MODEL 1
REMARK VINA RESULT: -9.047225801      0.000      0.000
REMARK  15 active torsions:
REMARK  status: ('A' for Active; 'I' for Inactive)
REMARK    1  A    between atoms: C2_2  and  C26_31 
REMARK    2  A    between atoms: C3_3  and  C4_4 
REMARK    3  A    between atoms: C4_4  and  C5_5 
REMARK    4  A    between atoms: C5_5  and  C6_6 
REMARK    5  A    between atoms: C7_7  and  C8_8 
REMARK    6  A    between atoms: C8_8  and  O1_9 
REMARK    7  A    between atoms: C8_8  and  C9_11 
REMARK    8  A    between atoms: C19_22  and  C21_24 
REMARK    9  A    between atoms: C21_24  and  O2_25 
REMARK   10  A    between atoms: C26_31  and  C27_32 
REMARK   11  A    between atoms: C27_32  and  O3_33 
REMARK   12  A    between atoms: C27_32  and  C28_35 
REMARK   13  A    between atoms: C29_36  and  C30_37 
REMARK   14  A    between atoms: C30_37  and  C31_38 
REMARK   15  A    between atoms: C31_38  and  C32_39 
ROOT
HETATM    1  C6  UNL     1     -10.560  15.532  28.447  1.00  0.00     0.005 C 
HETATM    2  C7  UNL     1      -9.420  15.298  27.508  1.00  0.00     0.042 C 
HETATM    3  C16 UNL     1      -8.293  14.826  28.350  1.00  0.00    -0.023 C 
HETATM    4  C17 UNL     1      -8.063  15.288  29.550  1.00  0.00    -0.024 C 
HETATM    5  C18 UNL     1      -8.884  16.308  30.176  1.00  0.00     0.026 C 
HETATM    6  C19 UNL     1      -8.954  16.199  31.674  1.00  0.00    -0.015 C 
HETATM    7  C20 UNL     1      -8.172  17.308  32.346  1.00  0.00     0.018 C 
HETATM    8  C22 UNL     1     -10.392  16.327  32.033  1.00  0.00     0.012 C 
HETATM    9  C23 UNL     1     -11.096  15.829  30.801  1.00  0.00     0.011 C 
HETATM   10  C24 UNL     1     -10.257  16.379  29.626  1.00  0.00    -0.032 C 
HETATM   11  C25 UNL     1     -10.634  17.827  29.499  1.00  0.00     0.016 C 
ENDROOT
BRANCH   1  12
HETATM   12  C5  UNL     1     -11.871  15.817  27.818  1.00  0.00     0.010 C 
BRANCH  12  13
HETATM   13  C4  UNL     1     -12.850  14.664  27.869  1.00  0.00     0.028 C 
BRANCH  13  14
HETATM   14  C3  UNL     1     -13.975  14.855  28.780  1.00  0.00    -0.024 C 
HETATM   15  C2  UNL     1     -14.250  14.260  29.909  1.00  0.00    -0.085 C 
HETATM   16  C1  UNL     1     -15.480  14.650  30.649  1.00  0.00     0.043 C 
BRANCH  15  17
HETATM   17  C26 UNL     1     -13.393  13.213  30.480  1.00  0.00     0.069 C 
BRANCH  17  18
HETATM   18  C27 UNL     1     -13.743  12.893  31.921  1.00  0.00     0.144 C 
BRANCH  18  19
HETATM   19  O3  UNL     1     -13.409  11.578  32.190  1.00  0.00    -0.391 OA
ATOM     20  H3  UNL     1     -14.031  11.002  31.762  1.00  0.00     0.210 HD
ENDBRANCH  18  19
BRANCH  18  21
HETATM   21  C28 UNL     1     -13.032  13.780  32.866  1.00  0.00     0.001 C 
HETATM   22  C29 UNL     1     -13.224  13.649  34.164  1.00  0.00    -0.028 C 
BRANCH  22  23
HETATM   23  C30 UNL     1     -12.541  14.509  35.167  1.00  0.00     0.037 C 
BRANCH  23  24
HETATM   24  C31 UNL     1     -11.059  14.227  35.073  1.00  0.00     0.117 C 
BRANCH  24  25
HETATM   25  C32 UNL     1     -10.288  15.457  35.371  1.00  0.00     0.172 C 
HETATM   26  O4  UNL     1      -9.105  15.442  35.803  1.00  0.00    -0.648 OA
HETATM   27  O5  UNL     1     -10.902  16.690  35.163  1.00  0.00    -0.648 OA
ENDBRANCH  24  25
ENDBRANCH  23  24
ENDBRANCH  22  23
ENDBRANCH  18  21
ENDBRANCH  17  18
ENDBRANCH  15  17
ENDBRANCH  13  14
ENDBRANCH  12  13
ENDBRANCH   1  12
BRANCH   2  28
HETATM   28  C8  UNL     1      -9.092  16.343  26.537  1.00  0.00     0.130 C 
BRANCH  28  29
HETATM   29  O1  UNL     1      -7.834  16.916  26.664  1.00  0.00    -0.395 OA
ATOM     30  H1  UNL     1      -7.759  17.819  26.379  1.00  0.00     0.210 HD
ENDBRANCH  28  29
BRANCH  28  31
HETATM   31  C9  UNL     1      -9.134  15.872  25.079  1.00  0.00     0.017 C 
HETATM   32  C10 UNL     1     -10.423  16.188  24.390  1.00  0.00     0.009 C 
HETATM   33  C11 UNL     1     -10.585  15.186  23.245  1.00  0.00     0.020 C 
HETATM   34  C12 UNL     1      -9.335  15.192  22.357  1.00  0.00     0.116 C 
HETATM   35  N1  UNL     1      -9.027  16.561  22.102  1.00  0.00    -0.417 N 
HETATM   36  C13 UNL     1      -8.659  16.872  20.768  1.00  0.00     0.143 C 
HETATM   37  C14 UNL     1      -8.279  17.226  23.114  1.00  0.00     0.117 C 
HETATM   38  C15 UNL     1      -7.965  16.390  24.305  1.00  0.00     0.026 C 
ENDBRANCH  28  31
ENDBRANCH   2  28
BRANCH   6  39
HETATM   39  C21 UNL     1      -8.401  14.900  32.206  1.00  0.00     0.173 C 
BRANCH  39  40
HETATM   40  O2  UNL     1      -7.568  15.044  33.285  1.00  0.00    -0.400 OA
ATOM     41  H2  UNL     1      -8.009  15.003  34.125  1.00  0.00     0.209 HD
ENDBRANCH  39  40
ENDBRANCH   6  39
TORSDOF 15
ENDMDL
MODEL 2
REMARK VINA RESULT: -8.878952142      1.050      1.373
REMARK  15 active torsions:
REMARK  status: ('A' for Active; 'I' for Inactive)
REMARK    1  A    between atoms: C2_2  and  C26_31 
REMARK    2  A    between atoms: C3_3  and  C4_4 
REMARK    3  A    between atoms: C4_4  and  C5_5 
REMARK    4  A    between atoms: C5_5  and  C6_6 
REMARK    5  A    between atoms: C7_7  and  C8_8 
REMARK    6  A    between atoms: C8_8  and  O1_9 
REMARK    7  A    between atoms: C8_8  and  C9_11 
REMARK    8  A    between atoms: C19_22  and  C21_24 
REMARK    9  A    between atoms: C21_24  and  O2_25 
REMARK   10  A    between atoms: C26_31  and  C27_32 
REMARK   11  A    between atoms: C27_32  and  O3_33 
REMARK   12  A    between atoms: C27_32  and  C28_35 
REMARK   13  A    between atoms: C29_36  and  C30_37 
REMARK   14  A    between atoms: C30_37  and  C31_38 
REMARK   15  A    between atoms: C31_38  and  C32_39 
ROOT
HETATM    1  C6  UNL     1     -10.915  15.660  28.303  1.00  0.00     0.005 C 
HETATM    2  C7  UNL     1      -9.904  15.291  27.265  1.00  0.00     0.042 C 
HETATM    3  C16 UNL     1      -8.769  14.684  28.004  1.00  0.00    -0.023 C 
HETATM    4  C17 UNL     1      -8.375  15.112  29.174  1.00  0.00    -0.024 C 
HETATM    5  C18 UNL     1      -9.006  16.222  29.864  1.00  0.00     0.026 C 
HETATM    6  C19 UNL     1      -8.950  16.118  31.363  1.00  0.00    -0.015 C 
HETATM    7  C20 UNL     1      -7.981  17.122  31.951  1.00  0.00     0.018 C 
HETATM    8  C22 UNL     1     -10.323  16.419  31.851  1.00  0.00     0.012 C 
HETATM    9  C23 UNL     1     -11.192  16.013  30.694  1.00  0.00     0.011 C 
HETATM   10  C24 UNL     1     -10.404  16.460  29.442  1.00  0.00    -0.032 C 
HETATM   11  C25 UNL     1     -10.614  17.944  29.338  1.00  0.00     0.016 C 
ENDROOT
BRANCH   1  12
HETATM   12  C5  UNL     1     -12.234  16.103  27.794  1.00  0.00     0.010 C 
BRANCH  12  13
HETATM   13  C4  UNL     1     -13.356  15.114  28.028  1.00  0.00     0.028 C 
BRANCH  13  14
HETATM   14  C3  UNL     1     -12.959  13.889  28.717  1.00  0.00    -0.024 C 
HETATM   15  C2  UNL     1     -13.538  13.255  29.701  1.00  0.00    -0.085 C 
HETATM   16  C1  UNL     1     -12.913  12.011  30.224  1.00  0.00     0.043 C 
BRANCH  15  17
HETATM   17  C26 UNL     1     -14.784  13.725  30.319  1.00  0.00     0.069 C 
BRANCH  17  18
HETATM   18  C27 UNL     1     -14.557  14.846  31.313  1.00  0.00     0.144 C 
BRANCH  18  19
HETATM   19  O3  UNL     1     -15.720  15.584  31.443  1.00  0.00    -0.391 OA
ATOM     20  H3  UNL     1     -15.510  16.441  31.798  1.00  0.00     0.210 HD
ENDBRANCH  18  19
BRANCH  18  21
HETATM   21  C28 UNL     1     -14.157  14.329  32.639  1.00  0.00     0.001 C 
HETATM   22  C29 UNL     1     -13.274  14.987  33.364  1.00  0.00    -0.028 C 
BRANCH  22  23
HETATM   23  C30 UNL     1     -12.828  14.521  34.705  1.00  0.00     0.037 C 
BRANCH  23  24
HETATM   24  C31 UNL     1     -11.345  14.246  34.620  1.00  0.00     0.117 C 
BRANCH  24  25
HETATM   25  C32 UNL     1     -10.585  15.375  35.206  1.00  0.00     0.172 C 
HETATM   26  O4  UNL     1     -10.997  16.565  35.190  1.00  0.00    -0.648 OA
HETATM   27  O5  UNL     1      -9.356  15.106  35.805  1.00  0.00    -0.648 OA
ENDBRANCH  24  25
ENDBRANCH  23  24
ENDBRANCH  22  23
ENDBRANCH  18  21
ENDBRANCH  17  18
ENDBRANCH  15  17
ENDBRANCH  13  14
ENDBRANCH  12  13
ENDBRANCH   1  12
BRANCH   2  28
HETATM   28  C8  UNL     1      -9.542  16.291  26.259  1.00  0.00     0.130 C 
BRANCH  28  29
HETATM   29  O1  UNL     1      -8.500  17.144  26.599  1.00  0.00    -0.395 OA
ATOM     30  H1  UNL     1      -7.912  17.382  25.891  1.00  0.00     0.210 HD
ENDBRANCH  28  29
BRANCH  28  31
HETATM   31  C9  UNL     1      -9.103  15.693  24.918  1.00  0.00     0.017 C 
HETATM   32  C10 UNL     1     -10.106  15.889  23.825  1.00  0.00     0.009 C 
HETATM   33  C11 UNL     1      -9.874  14.785  22.792  1.00  0.00     0.020 C 
HETATM   34  C12 UNL     1      -8.405  14.770  22.355  1.00  0.00     0.116 C 
HETATM   35  N1  UNL     1      -8.051  16.124  22.080  1.00  0.00    -0.417 N 
HETATM   36  C13 UNL     1      -7.276  16.334  20.910  1.00  0.00     0.143 C 
HETATM   37  C14 UNL     1      -7.680  16.908  23.209  1.00  0.00     0.117 C 
HETATM   38  C15 UNL     1      -7.755  16.195  24.512  1.00  0.00     0.026 C 
ENDBRANCH  28  31
ENDBRANCH   2  28
BRANCH   6  39
HETATM   39  C21 UNL     1      -8.512  14.760  31.853  1.00  0.00     0.173 C 
BRANCH  39  40
HETATM   40  O2  UNL     1      -7.981  14.764  33.117  1.00  0.00    -0.400 OA
ATOM     41  H2  UNL     1      -8.386  14.143  33.710  1.00  0.00     0.209 HD
ENDBRANCH  39  40
ENDBRANCH   6  39
TORSDOF 15
ENDMDL
MODEL 3
REMARK VINA RESULT: -8.813747511      0.903      1.082
REMARK  15 active torsions:
REMARK  status: ('A' for Active; 'I' for Inactive)
REMARK    1  A    between atoms: C2_2  and  C26_31 
REMARK    2  A    between atoms: C3_3  and  C4_4 
REMARK    3  A    between atoms: C4_4  and  C5_5 
REMARK    4  A    between atoms: C5_5  and  C6_6 
REMARK    5  A    between atoms: C7_7  and  C8_8 
REMARK    6  A    between atoms: C8_8  and  O1_9 
REMARK    7  A    between atoms: C8_8  and  C9_11 
REMARK    8  A    between atoms: C19_22  and  C21_24 
REMARK    9  A    between atoms: C21_24  and  O2_25 
REMARK   10  A    between atoms: C26_31  and  C27_32 
REMARK   11  A    between atoms: C27_32  and  O3_33 
REMARK   12  A    between atoms: C27_32  and  C28_35 
REMARK   13  A    between atoms: C29_36  and  C30_37 
REMARK   14  A    between atoms: C30_37  and  C31_38 
REMARK   15  A    between atoms: C31_38  and  C32_39 
ROOT
HETATM    1  C6  UNL     1     -10.578  15.554  28.552  1.00  0.00     0.005 C 
HETATM    2  C7  UNL     1      -9.463  15.282  27.594  1.00  0.00     0.042 C 
HETATM    3  C16 UNL     1      -8.362  14.710  28.408  1.00  0.00    -0.023 C 
HETATM    4  C17 UNL     1      -8.093  15.115  29.621  1.00  0.00    -0.024 C 
HETATM    5  C18 UNL     1      -8.843  16.161  30.290  1.00  0.00     0.026 C 
HETATM    6  C19 UNL     1      -8.908  16.005  31.784  1.00  0.00    -0.015 C 
HETATM    7  C20 UNL     1      -8.052  17.038  32.485  1.00  0.00     0.018 C 
HETATM    8  C22 UNL     1     -10.332  16.211  32.161  1.00  0.00     0.012 C 
HETATM    9  C23 UNL     1     -11.076  15.802  30.920  1.00  0.00     0.011 C 
HETATM   10  C24 UNL     1     -10.213  16.338  29.757  1.00  0.00    -0.032 C 
HETATM   11  C25 UNL     1     -10.499  17.811  29.683  1.00  0.00     0.016 C 
ENDROOT
BRANCH   1  12
HETATM   12  C5  UNL     1     -11.873  15.944  27.946  1.00  0.00     0.010 C 
BRANCH  12  13
HETATM   13  C4  UNL     1     -12.891  14.825  27.880  1.00  0.00     0.028 C 
BRANCH  13  14
HETATM   14  C3  UNL     1     -13.993  14.942  28.831  1.00  0.00    -0.024 C 
HETATM   15  C2  UNL     1     -14.292  14.201  29.864  1.00  0.00    -0.085 C 
HETATM   16  C1  UNL     1     -15.488  14.547  30.678  1.00  0.00     0.043 C 
BRANCH  15  17
HETATM   17  C26 UNL     1     -13.494  13.032  30.256  1.00  0.00     0.069 C 
BRANCH  17  18
HETATM   18  C27 UNL     1     -13.762  12.592  31.682  1.00  0.00     0.144 C 
BRANCH  18  19
HETATM   19  O3  UNL     1     -13.474  11.246  31.807  1.00  0.00    -0.391 OA
ATOM     20  H3  UNL     1     -13.065  11.089  32.650  1.00  0.00     0.210 HD
ENDBRANCH  18  19
BRANCH  18  21
HETATM   21  C28 UNL     1     -12.950  13.357  32.652  1.00  0.00     0.001 C 
HETATM   22  C29 UNL     1     -13.535  13.973  33.661  1.00  0.00    -0.028 C 
BRANCH  22  23
HETATM   23  C30 UNL     1     -12.776  14.759  34.670  1.00  0.00     0.037 C 
BRANCH  23  24
HETATM   24  C31 UNL     1     -12.608  13.886  35.892  1.00  0.00     0.117 C 
BRANCH  24  25
HETATM   25  C32 UNL     1     -11.299  13.192  35.844  1.00  0.00     0.172 C 
HETATM   26  O4  UNL     1     -10.198  13.800  35.795  1.00  0.00    -0.648 OA
HETATM   27  O5  UNL     1     -11.289  11.799  35.855  1.00  0.00    -0.648 OA
ENDBRANCH  24  25
ENDBRANCH  23  24
ENDBRANCH  22  23
ENDBRANCH  18  21
ENDBRANCH  17  18
ENDBRANCH  15  17
ENDBRANCH  13  14
ENDBRANCH  12  13
ENDBRANCH   1  12
BRANCH   2  28
HETATM   28  C8  UNL     1      -9.077  16.337  26.656  1.00  0.00     0.130 C 
BRANCH  28  29
HETATM   29  O1  UNL     1      -7.789  16.834  26.800  1.00  0.00    -0.395 OA
ATOM     30  H1  UNL     1      -7.376  17.153  26.005  1.00  0.00     0.210 HD
ENDBRANCH  28  29
BRANCH  28  31
HETATM   31  C9  UNL     1      -9.145  15.916  25.184  1.00  0.00     0.017 C 
HETATM   32  C10 UNL     1     -10.437  16.278  24.523  1.00  0.00     0.009 C 
HETATM   33  C11 UNL     1     -10.631  15.318  23.348  1.00  0.00     0.020 C 
HETATM   34  C12 UNL     1      -9.392  15.332  22.444  1.00  0.00     0.116 C 
HETATM   35  N1  UNL     1      -9.063  16.702  22.231  1.00  0.00    -0.417 N 
HETATM   36  C13 UNL     1      -8.706  17.053  20.903  1.00  0.00     0.143 C 
HETATM   37  C14 UNL     1      -8.291  17.320  23.255  1.00  0.00     0.117 C 
HETATM   38  C15 UNL     1      -7.977  16.440  24.413  1.00  0.00     0.026 C 
ENDBRANCH  28  31
ENDBRANCH   2  28
BRANCH   6  39
HETATM   39  C21 UNL     1      -8.434  14.656  32.265  1.00  0.00     0.173 C 
BRANCH  39  40
HETATM   40  O2  UNL     1      -9.312  14.019  33.103  1.00  0.00    -0.400 OA
ATOM     41  H2  UNL     1      -9.463  13.107  32.887  1.00  0.00     0.209 HD
ENDBRANCH  39  40
ENDBRANCH   6  39
TORSDOF 15
ENDMDL
MODEL 4
REMARK VINA RESULT: -8.789221431      1.191      1.528
REMARK  15 active torsions:
REMARK  status: ('A' for Active; 'I' for Inactive)
REMARK    1  A    between atoms: C2_2  and  C26_31 
REMARK    2  A    between atoms: C3_3  and  C4_4 
REMARK    3  A    between atoms: C4_4  and  C5_5 
REMARK    4  A    between atoms: C5_5  and  C6_6 
REMARK    5  A    between atoms: C7_7  and  C8_8 
REMARK    6  A    between atoms: C8_8  and  O1_9 
REMARK    7  A    between atoms: C8_8  and  C9_11 
REMARK    8  A    between atoms: C19_22  and  C21_24 
REMARK    9  A    between atoms: C21_24  and  O2_25 
REMARK   10  A    between atoms: C26_31  and  C27_32 
REMARK   11  A    between atoms: C27_32  and  O3_33 
REMARK   12  A    between atoms: C27_32  and  C28_35 
REMARK   13  A    between atoms: C29_36  and  C30_37 
REMARK   14  A    between atoms: C30_37  and  C31_38 
REMARK   15  A    between atoms: C31_38  and  C32_39 
ROOT
HETATM    1  C6  UNL     1     -10.614  15.523  28.610  1.00  0.00     0.005 C 
HETATM    2  C7  UNL     1      -9.511  15.287  27.629  1.00  0.00     0.042 C 
HETATM    3  C16 UNL     1      -8.377  14.746  28.418  1.00  0.00    -0.023 C 
HETATM    4  C17 UNL     1      -8.097  15.154  29.628  1.00  0.00    -0.024 C 
HETATM    5  C18 UNL     1      -8.865  16.175  30.316  1.00  0.00     0.026 C 
HETATM    6  C19 UNL     1      -8.896  16.010  31.810  1.00  0.00    -0.015 C 
HETATM    7  C20 UNL     1      -8.058  17.066  32.500  1.00  0.00     0.018 C 
HETATM    8  C22 UNL     1     -10.319  16.172  32.216  1.00  0.00     0.012 C 
HETATM    9  C23 UNL     1     -11.074  15.745  30.988  1.00  0.00     0.011 C 
HETATM   10  C24 UNL     1     -10.250  16.312  29.810  1.00  0.00    -0.032 C 
HETATM   11  C25 UNL     1     -10.581  17.776  29.749  1.00  0.00     0.016 C 
ENDROOT
BRANCH   1  12
HETATM   12  C5  UNL     1     -11.932  15.875  28.031  1.00  0.00     0.010 C 
BRANCH  12  13
HETATM   13  C4  UNL     1     -12.802  14.683  27.691  1.00  0.00     0.028 C 
BRANCH  13  14
HETATM   14  C3  UNL     1     -12.583  13.506  28.529  1.00  0.00    -0.024 C 
HETATM   15  C2  UNL     1     -13.309  13.020  29.498  1.00  0.00    -0.085 C 
HETATM   16  C1  UNL     1     -12.849  11.790  30.197  1.00  0.00     0.043 C 
BRANCH  15  17
HETATM   17  C26 UNL     1     -14.566  13.642  29.933  1.00  0.00     0.069 C 
BRANCH  17  18
HETATM   18  C27 UNL     1     -14.377  14.588  31.102  1.00  0.00     0.144 C 
BRANCH  18  19
HETATM   19  O3  UNL     1     -15.367  15.553  31.074  1.00  0.00    -0.391 OA
ATOM     20  H3  UNL     1     -15.966  15.410  31.798  1.00  0.00     0.210 HD
ENDBRANCH  18  19
BRANCH  18  21
HETATM   21  C28 UNL     1     -14.428  13.875  32.396  1.00  0.00     0.001 C 
HETATM   22  C29 UNL     1     -13.412  13.955  33.233  1.00  0.00    -0.028 C 
BRANCH  22  23
HETATM   23  C30 UNL     1     -13.400  13.261  34.550  1.00  0.00     0.037 C 
BRANCH  23  24
HETATM   24  C31 UNL     1     -12.559  14.091  35.492  1.00  0.00     0.117 C 
BRANCH  24  25
HETATM   25  C32 UNL     1     -11.255  13.426  35.726  1.00  0.00     0.172 C 
HETATM   26  O4  UNL     1     -11.120  12.175  35.787  1.00  0.00    -0.648 OA
HETATM   27  O5  UNL     1     -10.125  14.225  35.886  1.00  0.00    -0.648 OA
ENDBRANCH  24  25
ENDBRANCH  23  24
ENDBRANCH  22  23
ENDBRANCH  18  21
ENDBRANCH  17  18
ENDBRANCH  15  17
ENDBRANCH  13  14
ENDBRANCH  12  13
ENDBRANCH   1  12
BRANCH   2  28
HETATM   28  C8  UNL     1      -9.175  16.358  26.689  1.00  0.00     0.130 C 
BRANCH  28  29
HETATM   29  O1  UNL     1      -7.923  16.937  26.851  1.00  0.00    -0.395 OA
ATOM     30  H1  UNL     1      -7.619  17.024  27.747  1.00  0.00     0.210 HD
ENDBRANCH  28  29
BRANCH  28  31
HETATM   31  C9  UNL     1      -9.188  15.921  25.219  1.00  0.00     0.017 C 
HETATM   32  C10 UNL     1     -10.472  16.237  24.519  1.00  0.00     0.009 C 
HETATM   33  C11 UNL     1     -10.603  15.261  23.348  1.00  0.00     0.020 C 
HETATM   34  C12 UNL     1      -9.341  15.306  22.479  1.00  0.00     0.116 C 
HETATM   35  N1  UNL     1      -9.047  16.684  22.262  1.00  0.00    -0.417 N 
HETATM   36  C13 UNL     1      -8.664  17.032  20.941  1.00  0.00     0.143 C 
HETATM   37  C14 UNL     1      -8.324  17.334  23.301  1.00  0.00     0.117 C 
HETATM   38  C15 UNL     1      -8.016  16.474  24.476  1.00  0.00     0.026 C 
ENDBRANCH  28  31
ENDBRANCH   2  28
BRANCH   6  39
HETATM   39  C21 UNL     1      -8.373  14.674  32.276  1.00  0.00     0.173 C 
BRANCH  39  40
HETATM   40  O2  UNL     1      -9.227  13.995  33.105  1.00  0.00    -0.400 OA
ATOM     41  H2  UNL     1      -8.985  13.088  33.254  1.00  0.00     0.209 HD
ENDBRANCH  39  40
ENDBRANCH   6  39
TORSDOF 15
ENDMDL
MODEL 5
REMARK VINA RESULT: -8.697026092      3.550     10.144
REMARK  15 active torsions:
REMARK  status: ('A' for Active; 'I' for Inactive)
REMARK    1  A    between atoms: C2_2  and  C26_31 
REMARK    2  A    between atoms: C3_3  and  C4_4 
REMARK    3  A    between atoms: C4_4  and  C5_5 
REMARK    4  A    between atoms: C5_5  and  C6_6 
REMARK    5  A    between atoms: C7_7  and  C8_8 
REMARK    6  A    between atoms: C8_8  and  O1_9 
REMARK    7  A    between atoms: C8_8  and  C9_11 
REMARK    8  A    between atoms: C19_22  and  C21_24 
REMARK    9  A    between atoms: C21_24  and  O2_25 
REMARK   10  A    between atoms: C26_31  and  C27_32 
REMARK   11  A    between atoms: C27_32  and  O3_33 
REMARK   12  A    between atoms: C27_32  and  C28_35 
REMARK   13  A    between atoms: C29_36  and  C30_37 
REMARK   14  A    between atoms: C30_37  and  C31_38 
REMARK   15  A    between atoms: C31_38  and  C32_39 
ROOT
HETATM    1  C6  UNL     1      -7.812  17.491  27.705  1.00  0.00     0.005 C 
HETATM    2  C7  UNL     1      -7.968  16.469  28.786  1.00  0.00     0.042 C 
HETATM    3  C16 UNL     1      -8.080  15.162  28.093  1.00  0.00    -0.023 C 
HETATM    4  C17 UNL     1      -8.712  15.012  26.959  1.00  0.00    -0.024 C 
HETATM    5  C18 UNL     1      -9.368  16.107  26.268  1.00  0.00     0.026 C 
HETATM    6  C19 UNL     1      -9.389  15.957  24.772  1.00  0.00    -0.015 C 
HETATM    7  C20 UNL     1     -10.780  15.637  24.268  1.00  0.00     0.018 C 
HETATM    8  C22 UNL     1      -8.957  17.269  24.218  1.00  0.00     0.012 C 
HETATM    9  C23 UNL     1      -8.097  17.835  25.313  1.00  0.00     0.011 C 
HETATM   10  C24 UNL     1      -8.821  17.437  26.619  1.00  0.00    -0.032 C 
HETATM   11  C25 UNL     1      -9.972  18.393  26.755  1.00  0.00     0.016 C 
ENDROOT
BRANCH   1  12
HETATM   12  C5  UNL     1      -7.477  18.863  28.152  1.00  0.00     0.010 C 
BRANCH  12  13
HETATM   13  C4  UNL     1      -6.078  19.312  27.789  1.00  0.00     0.028 C 
BRANCH  13  14
HETATM   14  C3  UNL     1      -5.247  18.285  27.166  1.00  0.00    -0.024 C 
HETATM   15  C2  UNL     1      -4.466  18.357  26.122  1.00  0.00    -0.085 C 
HETATM   16  C1  UNL     1      -3.722  17.144  25.693  1.00  0.00     0.043 C 
BRANCH  15  17
HETATM   17  C26 UNL     1      -4.295  19.593  25.347  1.00  0.00     0.069 C 
BRANCH  17  18
HETATM   18  C27 UNL     1      -5.492  19.903  24.470  1.00  0.00     0.144 C 
BRANCH  18  19
HETATM   19  O3  UNL     1      -5.715  21.268  24.468  1.00  0.00    -0.391 OA
ATOM     20  H3  UNL     1      -6.558  21.448  24.066  1.00  0.00     0.210 HD
ENDBRANCH  18  19
BRANCH  18  21
HETATM   21  C28 UNL     1      -5.286  19.442  23.081  1.00  0.00     0.001 C 
HETATM   22  C29 UNL     1      -5.658  18.227  22.728  1.00  0.00    -0.028 C 
BRANCH  22  23
HETATM   23  C30 UNL     1      -5.479  17.701  21.347  1.00  0.00     0.037 C 
BRANCH  23  24
HETATM   24  C31 UNL     1      -6.617  18.234  20.508  1.00  0.00     0.117 C 
BRANCH  24  25
HETATM   25  C32 UNL     1      -7.817  17.381  20.681  1.00  0.00     0.172 C 
HETATM   26  O4  UNL     1      -8.975  17.847  20.846  1.00  0.00    -0.648 OA
HETATM   27  O5  UNL     1      -7.655  15.997  20.658  1.00  0.00    -0.648 OA
ENDBRANCH  24  25
ENDBRANCH  23  24
ENDBRANCH  22  23
ENDBRANCH  18  21
ENDBRANCH  17  18
ENDBRANCH  15  17
ENDBRANCH  13  14
ENDBRANCH  12  13
ENDBRANCH   1  12
BRANCH   2  28
HETATM   28  C8  UNL     1      -8.955  16.716  29.838  1.00  0.00     0.130 C 
BRANCH  28  29
HETATM   29  O1  UNL     1     -10.285  16.551  29.474  1.00  0.00    -0.395 OA
ATOM     30  H1  UNL     1     -10.606  15.657  29.471  1.00  0.00     0.210 HD
ENDBRANCH  28  29
BRANCH  28  31
HETATM   31  C9  UNL     1      -8.796  15.808  31.063  1.00  0.00     0.017 C 
HETATM   32  C10 UNL     1      -8.274  16.524  32.268  1.00  0.00     0.009 C 
HETATM   33  C11 UNL     1      -7.601  15.480  33.161  1.00  0.00     0.020 C 
HETATM   34  C12 UNL     1      -8.565  14.321  33.440  1.00  0.00     0.116 C 
HETATM   35  N1  UNL     1      -9.811  14.910  33.804  1.00  0.00    -0.417 N 
HETATM   36  C13 UNL     1     -10.481  14.310  34.902  1.00  0.00     0.143 C 
HETATM   37  C14 UNL     1     -10.646  15.312  32.723  1.00  0.00     0.117 C 
HETATM   38  C15 UNL     1     -10.066  15.083  31.372  1.00  0.00     0.026 C 
ENDBRANCH  28  31
ENDBRANCH   2  28
BRANCH   6  39
HETATM   39  C21 UNL     1      -8.485  14.859  24.268  1.00  0.00     0.173 C 
BRANCH  39  40
HETATM   40  O2  UNL     1      -7.608  15.258  23.294  1.00  0.00    -0.400 OA
ATOM     41  H2  UNL     1      -6.884  14.658  23.153  1.00  0.00     0.209 HD
ENDBRANCH  39  40
ENDBRANCH   6  39
TORSDOF 15
ENDMDL
