MODEL 1
REMARK VINA RESULT: -9.187008660      0.000      0.000
REMARK  14 active torsions:
REMARK  status: ('A' for Active; 'I' for Inactive)
REMARK    1  A    between atoms: O1_2  and  C2_3 
REMARK    2  A    between atoms: C5_6  and  O2_7 
REMARK    3  A    between atoms: C8_11  and  N1_12 
REMARK       I    between atoms: N1_12  and  C9_14 
REMARK       I    between atoms: C9_14  and  N2_16 
REMARK    4  A    between atoms: N2_16  and  C10_18 
REMARK    5  A    between atoms: C10_18  and  C11_19 
REMARK    6  A    between atoms: C11_19  and  C12_20 
REMARK    7  A    between atoms: C12_20  and  C13_21 
REMARK    8  A    between atoms: C13_21  and  C14_22 
REMARK    9  A    between atoms: C14_22  and  C15_23 
REMARK   10  A    between atoms: C15_23  and  C16_24 
REMARK   11  A    between atoms: C16_24  and  C17_25 
REMARK   12  A    between atoms: C21_31  and  C23_33 
REMARK   13  A    between atoms: C23_33  and  C24_34 
REMARK   14  A    between atoms: C24_34  and  C25_35 
ROOT
HETATM    1  C2  UNL     1      -9.600  16.700  28.097  1.00  0.00     0.072 C 
HETATM    2  C3  UNL     1     -10.887  17.395  27.889  1.00  0.00     0.047 C 
HETATM    3  C4  UNL     1     -10.329  17.987  26.578  1.00  0.00     0.025 C 
HETATM    4  C5  UNL     1     -10.636  17.443  25.298  1.00  0.00     0.122 C 
HETATM    5  C6  UNL     1      -9.999  16.330  24.610  1.00  0.00     0.034 C 
HETATM    6  C7  UNL     1      -8.526  16.170  24.647  1.00  0.00     0.028 C 
HETATM    7  C8  UNL     1      -7.727  17.271  25.197  1.00  0.00     0.090 C 
HETATM    8  C18 UNL     1      -7.806  17.674  26.592  1.00  0.00     0.016 C 
HETATM    9  C19 UNL     1      -6.931  16.912  27.593  1.00  0.00     0.008 C 
HETATM   10  C20 UNL     1      -7.420  17.296  28.987  1.00  0.00     0.012 C 
HETATM   11  C21 UNL     1      -8.769  16.686  29.315  1.00  0.00    -0.012 C 
HETATM   12  C22 UNL     1      -8.329  15.246  29.733  1.00  0.00     0.018 C 
HETATM   13  C30 UNL     1      -9.055  17.871  27.264  1.00  0.00     0.034 C 
ENDROOT
BRANCH   7  14
HETATM   14  N1  UNL     1      -6.313  16.985  24.879  1.00  0.00    -0.338 N 
HETATM   15  C9  UNL     1      -5.496  17.913  24.178  1.00  0.00     0.316 C 
HETATM   16  O3  UNL     1      -5.937  19.025  23.799  1.00  0.00    -0.247 OA
HETATM   17  N2  UNL     1      -4.155  17.578  23.900  1.00  0.00    -0.343 N 
ATOM     18  H2  UNL     1      -3.787  16.679  24.210  1.00  0.00     0.164 HD
ATOM     19  H1  UNL     1      -5.911  16.095  25.171  1.00  0.00     0.164 HD
BRANCH  17  20
HETATM   20  C10 UNL     1      -3.305  18.477  23.191  1.00  0.00     0.124 C 
BRANCH  20  21
HETATM   21  C11 UNL     1      -2.756  17.848  21.927  1.00  0.00     0.020 C 
BRANCH  21  22
HETATM   22  C12 UNL     1      -3.885  17.867  20.922  1.00  0.00     0.002 C 
BRANCH  22  23
HETATM   23  C13 UNL     1      -4.007  16.559  20.158  1.00  0.00     0.000 C 
BRANCH  23  24
HETATM   24  C14 UNL     1      -5.425  16.259  19.887  1.00  0.00     0.001 C 
BRANCH  24  25
HETATM   25  C15 UNL     1      -6.414  16.741  20.848  1.00  0.00     0.010 C 
BRANCH  25  26
HETATM   26  C16 UNL     1      -7.632  15.947  21.032  1.00  0.00     0.113 C 
BRANCH  26  27
HETATM   27  C17 UNL     1      -8.910  16.604  20.916  1.00  0.00     0.172 C 
HETATM   28  O4  UNL     1      -9.025  17.848  20.848  1.00  0.00    -0.648 OA
HETATM   29  O5  UNL     1     -10.113  15.892  20.878  1.00  0.00    -0.648 OA
ENDBRANCH  26  27
ENDBRANCH  25  26
ENDBRANCH  24  25
ENDBRANCH  23  24
ENDBRANCH  22  23
ENDBRANCH  21  22
ENDBRANCH  20  21
ENDBRANCH  17  20
ENDBRANCH   7  14
BRANCH   4  30
HETATM   30  O2  UNL     1     -12.032  17.127  25.309  1.00  0.00    -0.395 OA
ATOM     31  H2  UNL     1     -12.294  17.016  24.402  1.00  0.00     0.210 HD
ENDBRANCH   4  30
BRANCH   1  32
HETATM   32  O1  UNL     1      -9.639  15.476  27.556  1.00  0.00    -0.384 OA
HETATM   33  C1  UNL     1     -10.756  14.698  27.729  1.00  0.00     0.202 C 
ENDBRANCH   1  32
BRANCH  11  34
HETATM   34  C23 UNL     1      -9.298  17.369  30.527  1.00  0.00     0.012 C 
BRANCH  34  35
HETATM   35  C24 UNL     1      -8.646  17.027  31.829  1.00  0.00     0.010 C 
BRANCH  35  36
HETATM   36  C25 UNL     1      -9.679  16.686  32.877  1.00  0.00     0.043 A 
HETATM   37  C26 UNL     1     -10.802  15.816  32.473  1.00  0.00     0.176 A 
HETATM   38  O6  UNL     1     -10.329  14.728  33.224  1.00  0.00    -0.380 OA
HETATM   39  C27 UNL     1      -9.301  15.502  33.724  1.00  0.00     0.059 A 
HETATM   40  C28 UNL     1      -7.961  14.873  33.334  1.00  0.00     0.046 C 
HETATM   41  C29 UNL     1      -9.343  15.743  35.215  1.00  0.00     0.046 C 
ENDBRANCH  35  36
ENDBRANCH  34  35
ENDBRANCH  11  34
TORSDOF 14
ENDMDL
MODEL 2
REMARK VINA RESULT: -8.420722291      1.454      2.928
REMARK  14 active torsions:
REMARK  status: ('A' for Active; 'I' for Inactive)
REMARK    1  A    between atoms: O1_2  and  C2_3 
REMARK    2  A    between atoms: C5_6  and  O2_7 
REMARK    3  A    between atoms: C8_11  and  N1_12 
REMARK       I    between atoms: N1_12  and  C9_14 
REMARK       I    between atoms: C9_14  and  N2_16 
REMARK    4  A    between atoms: N2_16  and  C10_18 
REMARK    5  A    between atoms: C10_18  and  C11_19 
REMARK    6  A    between atoms: C11_19  and  C12_20 
REMARK    7  A    between atoms: C12_20  and  C13_21 
REMARK    8  A    between atoms: C13_21  and  C14_22 
REMARK    9  A    between atoms: C14_22  and  C15_23 
REMARK   10  A    between atoms: C15_23  and  C16_24 
REMARK   11  A    between atoms: C16_24  and  C17_25 
REMARK   12  A    between atoms: C21_31  and  C23_33 
REMARK   13  A    between atoms: C23_33  and  C24_34 
REMARK   14  A    between atoms: C24_34  and  C25_35 
ROOT
HETATM    1  C2  UNL     1      -9.473  16.665  27.889  1.00  0.00     0.072 C 
HETATM    2  C3  UNL     1     -10.842  17.222  27.907  1.00  0.00     0.047 C 
HETATM    3  C4  UNL     1     -10.627  17.737  26.469  1.00  0.00     0.025 C 
HETATM    4  C5  UNL     1     -11.127  17.052  25.325  1.00  0.00     0.122 C 
HETATM    5  C6  UNL     1     -10.529  15.940  24.601  1.00  0.00     0.034 C 
HETATM    6  C7  UNL     1      -9.071  15.914  24.338  1.00  0.00     0.028 C 
HETATM    7  C8  UNL     1      -8.297  17.127  24.627  1.00  0.00     0.090 C 
HETATM    8  C18 UNL     1      -8.134  17.649  25.974  1.00  0.00     0.016 C 
HETATM    9  C19 UNL     1      -6.999  17.063  26.820  1.00  0.00     0.008 C 
HETATM   10  C20 UNL     1      -7.233  17.529  28.255  1.00  0.00     0.012 C 
HETATM   11  C21 UNL     1      -8.416  16.837  28.903  1.00  0.00    -0.012 C 
HETATM   12  C22 UNL     1      -7.752  15.485  29.322  1.00  0.00     0.018 C 
HETATM   13  C30 UNL     1      -9.235  17.797  26.878  1.00  0.00     0.034 C 
ENDROOT
BRANCH   7  14
HETATM   14  N1  UNL     1      -6.955  16.939  24.039  1.00  0.00    -0.338 N 
HETATM   15  C9  UNL     1      -6.506  17.699  22.926  1.00  0.00     0.316 C 
HETATM   16  O3  UNL     1      -7.229  18.573  22.390  1.00  0.00    -0.247 OA
HETATM   17  N2  UNL     1      -5.215  17.467  22.408  1.00  0.00    -0.343 N 
ATOM     18  H2  UNL     1      -4.618  16.762  22.842  1.00  0.00     0.164 HD
ATOM     19  H1  UNL     1      -6.332  16.241  24.445  1.00  0.00     0.164 HD
BRANCH  17  20
HETATM   20  C10 UNL     1      -4.731  18.202  21.286  1.00  0.00     0.124 C 
BRANCH  20  21
HETATM   21  C11 UNL     1      -3.216  18.227  21.246  1.00  0.00     0.020 C 
BRANCH  21  22
HETATM   22  C12 UNL     1      -2.750  17.648  22.562  1.00  0.00     0.002 C 
BRANCH  22  23
HETATM   23  C13 UNL     1      -1.690  18.506  23.233  1.00  0.00     0.000 C 
BRANCH  23  24
HETATM   24  C14 UNL     1      -2.289  19.288  24.330  1.00  0.00     0.001 C 
BRANCH  24  25
HETATM   25  C15 UNL     1      -3.368  18.667  25.093  1.00  0.00     0.010 C 
BRANCH  25  26
HETATM   26  C16 UNL     1      -4.510  19.505  25.469  1.00  0.00     0.113 C 
BRANCH  26  27
HETATM   27  C17 UNL     1      -4.665  20.788  24.832  1.00  0.00     0.172 C 
HETATM   28  O4  UNL     1      -4.176  21.839  25.303  1.00  0.00    -0.648 OA
HETATM   29  O5  UNL     1      -5.381  20.946  23.640  1.00  0.00    -0.648 OA
ENDBRANCH  26  27
ENDBRANCH  25  26
ENDBRANCH  24  25
ENDBRANCH  23  24
ENDBRANCH  22  23
ENDBRANCH  21  22
ENDBRANCH  20  21
ENDBRANCH  17  20
ENDBRANCH   7  14
BRANCH   4  30
HETATM   30  O2  UNL     1     -12.451  16.617  25.652  1.00  0.00    -0.395 OA
ATOM     31  H2  UNL     1     -12.358  15.909  26.278  1.00  0.00     0.210 HD
ENDBRANCH   4  30
BRANCH   1  32
HETATM   32  O1  UNL     1      -9.493  15.397  27.459  1.00  0.00    -0.384 OA
HETATM   33  C1  UNL     1     -10.490  14.556  27.883  1.00  0.00     0.202 C 
ENDBRANCH   1  32
BRANCH  11  34
HETATM   34  C23 UNL     1      -8.758  17.579  30.146  1.00  0.00     0.012 C 
BRANCH  34  35
HETATM   35  C24 UNL     1      -8.395  16.925  31.441  1.00  0.00     0.010 C 
BRANCH  35  36
HETATM   36  C25 UNL     1      -9.614  16.740  32.314  1.00  0.00     0.043 A 
HETATM   37  C26 UNL     1     -10.674  15.834  31.825  1.00  0.00     0.176 A 
HETATM   38  O6  UNL     1     -10.385  14.855  32.790  1.00  0.00    -0.380 OA
HETATM   39  C27 UNL     1      -9.441  15.680  33.366  1.00  0.00     0.059 A 
HETATM   40  C28 UNL     1      -8.075  14.990  33.321  1.00  0.00     0.046 C 
HETATM   41  C29 UNL     1      -9.747  16.124  34.777  1.00  0.00     0.046 C 
ENDBRANCH  35  36
ENDBRANCH  34  35
ENDBRANCH  11  34
TORSDOF 14
ENDMDL
MODEL 3
REMARK VINA RESULT: -8.171801310      1.497      2.233
REMARK  14 active torsions:
REMARK  status: ('A' for Active; 'I' for Inactive)
REMARK    1  A    between atoms: O1_2  and  C2_3 
REMARK    2  A    between atoms: C5_6  and  O2_7 
REMARK    3  A    between atoms: C8_11  and  N1_12 
REMARK       I    between atoms: N1_12  and  C9_14 
REMARK       I    between atoms: C9_14  and  N2_16 
REMARK    4  A    between atoms: N2_16  and  C10_18 
REMARK    5  A    between atoms: C10_18  and  C11_19 
REMARK    6  A    between atoms: C11_19  and  C12_20 
REMARK    7  A    between atoms: C12_20  and  C13_21 
REMARK    8  A    between atoms: C13_21  and  C14_22 
REMARK    9  A    between atoms: C14_22  and  C15_23 
REMARK   10  A    between atoms: C15_23  and  C16_24 
REMARK   11  A    between atoms: C16_24  and  C17_25 
REMARK   12  A    between atoms: C21_31  and  C23_33 
REMARK   13  A    between atoms: C23_33  and  C24_34 
REMARK   14  A    between atoms: C24_34  and  C25_35 
ROOT
HETATM    1  C2  UNL     1      -9.601  16.692  28.111  1.00  0.00     0.072 C 
HETATM    2  C3  UNL     1     -10.882  17.398  27.896  1.00  0.00     0.047 C 
HETATM    3  C4  UNL     1     -10.312  17.990  26.591  1.00  0.00     0.025 C 
HETATM    4  C5  UNL     1     -10.615  17.451  25.307  1.00  0.00     0.122 C 
HETATM    5  C6  UNL     1      -9.981  16.336  24.620  1.00  0.00     0.034 C 
HETATM    6  C7  UNL     1      -8.510  16.166  24.666  1.00  0.00     0.028 C 
HETATM    7  C8  UNL     1      -7.707  17.259  25.224  1.00  0.00     0.090 C 
HETATM    8  C18 UNL     1      -7.791  17.659  26.620  1.00  0.00     0.016 C 
HETATM    9  C19 UNL     1      -6.928  16.888  27.624  1.00  0.00     0.008 C 
HETATM   10  C20 UNL     1      -7.423  17.270  29.015  1.00  0.00     0.012 C 
HETATM   11  C21 UNL     1      -8.778  16.669  29.334  1.00  0.00    -0.012 C 
HETATM   12  C22 UNL     1      -8.351  15.225  29.750  1.00  0.00     0.018 C 
HETATM   13  C30 UNL     1      -9.043  17.863  27.284  1.00  0.00     0.034 C 
ENDROOT
BRANCH   7  14
HETATM   14  N1  UNL     1      -6.293  16.965  24.914  1.00  0.00    -0.338 N 
HETATM   15  C9  UNL     1      -5.393  17.972  24.469  1.00  0.00     0.316 C 
HETATM   16  O3  UNL     1      -5.758  19.164  24.324  1.00  0.00    -0.247 OA
HETATM   17  N2  UNL     1      -4.057  17.625  24.183  1.00  0.00    -0.343 N 
ATOM     18  H2  UNL     1      -3.751  16.659  24.306  1.00  0.00     0.164 HD
ATOM     19  H1  UNL     1      -5.951  16.010  25.022  1.00  0.00     0.164 HD
BRANCH  17  20
HETATM   20  C10 UNL     1      -3.126  18.603  23.726  1.00  0.00     0.124 C 
BRANCH  20  21
HETATM   21  C11 UNL     1      -1.697  18.202  24.033  1.00  0.00     0.020 C 
BRANCH  21  22
HETATM   22  C12 UNL     1      -1.666  16.691  23.995  1.00  0.00     0.002 C 
BRANCH  22  23
HETATM   23  C13 UNL     1      -0.722  16.153  22.933  1.00  0.00     0.000 C 
BRANCH  23  24
HETATM   24  C14 UNL     1      -1.490  15.586  21.810  1.00  0.00     0.001 C 
BRANCH  24  25
HETATM   25  C15 UNL     1      -1.500  16.330  20.553  1.00  0.00     0.010 C 
BRANCH  25  26
HETATM   26  C16 UNL     1      -2.593  17.281  20.329  1.00  0.00     0.113 C 
BRANCH  26  27
HETATM   27  C17 UNL     1      -3.951  16.807  20.418  1.00  0.00     0.172 C 
HETATM   28  O4  UNL     1      -4.848  17.438  21.019  1.00  0.00    -0.648 OA
HETATM   29  O5  UNL     1      -4.358  15.600  19.838  1.00  0.00    -0.648 OA
ENDBRANCH  26  27
ENDBRANCH  25  26
ENDBRANCH  24  25
ENDBRANCH  23  24
ENDBRANCH  22  23
ENDBRANCH  21  22
ENDBRANCH  20  21
ENDBRANCH  17  20
ENDBRANCH   7  14
BRANCH   4  30
HETATM   30  O2  UNL     1     -12.013  17.145  25.309  1.00  0.00    -0.395 OA
ATOM     31  H2  UNL     1     -12.365  17.474  24.490  1.00  0.00     0.210 HD
ENDBRANCH   4  30
BRANCH   1  32
HETATM   32  O1  UNL     1      -9.646  15.470  27.566  1.00  0.00    -0.384 OA
HETATM   33  C1  UNL     1     -10.767  14.699  27.731  1.00  0.00     0.202 C 
ENDBRANCH   1  32
BRANCH  11  34
HETATM   34  C23 UNL     1      -9.309  17.352  30.544  1.00  0.00     0.012 C 
BRANCH  34  35
HETATM   35  C24 UNL     1      -8.658  17.014  31.847  1.00  0.00     0.010 C 
BRANCH  35  36
HETATM   36  C25 UNL     1      -9.690  16.667  32.894  1.00  0.00     0.043 A 
HETATM   37  C26 UNL     1     -10.812  15.796  32.486  1.00  0.00     0.176 A 
HETATM   38  O6  UNL     1     -10.336  14.707  33.234  1.00  0.00    -0.380 OA
HETATM   39  C27 UNL     1      -9.311  15.481  33.738  1.00  0.00     0.059 A 
HETATM   40  C28 UNL     1      -7.969  14.856  33.346  1.00  0.00     0.046 C 
HETATM   41  C29 UNL     1      -9.353  15.718  35.229  1.00  0.00     0.046 C 
ENDBRANCH  35  36
ENDBRANCH  34  35
ENDBRANCH  11  34
TORSDOF 14
ENDMDL
MODEL 4
REMARK VINA RESULT: -8.154408415      1.845      2.536
REMARK  14 active torsions:
REMARK  status: ('A' for Active; 'I' for Inactive)
REMARK    1  A    between atoms: O1_2  and  C2_3 
REMARK    2  A    between atoms: C5_6  and  O2_7 
REMARK    3  A    between atoms: C8_11  and  N1_12 
REMARK       I    between atoms: N1_12  and  C9_14 
REMARK       I    between atoms: C9_14  and  N2_16 
REMARK    4  A    between atoms: N2_16  and  C10_18 
REMARK    5  A    between atoms: C10_18  and  C11_19 
REMARK    6  A    between atoms: C11_19  and  C12_20 
REMARK    7  A    between atoms: C12_20  and  C13_21 
REMARK    8  A    between atoms: C13_21  and  C14_22 
REMARK    9  A    between atoms: C14_22  and  C15_23 
REMARK   10  A    between atoms: C15_23  and  C16_24 
REMARK   11  A    between atoms: C16_24  and  C17_25 
REMARK   12  A    between atoms: C21_31  and  C23_33 
REMARK   13  A    between atoms: C23_33  and  C24_34 
REMARK   14  A    between atoms: C24_34  and  C25_35 
ROOT
HETATM    1  C2  UNL     1      -9.608  16.709  28.136  1.00  0.00     0.072 C 
HETATM    2  C3  UNL     1     -10.901  17.394  27.926  1.00  0.00     0.047 C 
HETATM    3  C4  UNL     1     -10.343  18.000  26.622  1.00  0.00     0.025 C 
HETATM    4  C5  UNL     1     -10.639  17.461  25.337  1.00  0.00     0.122 C 
HETATM    5  C6  UNL     1      -9.988  16.358  24.645  1.00  0.00     0.034 C 
HETATM    6  C7  UNL     1      -8.514  16.211  24.688  1.00  0.00     0.028 C 
HETATM    7  C8  UNL     1      -7.728  17.316  25.248  1.00  0.00     0.090 C 
HETATM    8  C18 UNL     1      -7.817  17.710  26.645  1.00  0.00     0.016 C 
HETATM    9  C19 UNL     1      -6.939  16.950  27.645  1.00  0.00     0.008 C 
HETATM   10  C20 UNL     1      -7.438  17.320  29.039  1.00  0.00     0.012 C 
HETATM   11  C21 UNL     1      -8.782  16.696  29.357  1.00  0.00    -0.012 C 
HETATM   12  C22 UNL     1      -8.332  15.257  29.768  1.00  0.00     0.018 C 
HETATM   13  C30 UNL     1      -9.071  17.891  27.313  1.00  0.00     0.034 C 
ENDROOT
BRANCH   7  14
HETATM   14  N1  UNL     1      -6.310  17.046  24.935  1.00  0.00    -0.338 N 
HETATM   15  C9  UNL     1      -5.554  17.888  24.076  1.00  0.00     0.316 C 
HETATM   16  O3  UNL     1      -6.056  18.909  23.545  1.00  0.00    -0.247 OA
HETATM   17  N2  UNL     1      -4.206  17.572  23.811  1.00  0.00    -0.343 N 
ATOM     18  H2  UNL     1      -3.788  16.748  24.244  1.00  0.00     0.164 HD
ATOM     19  H1  UNL     1      -5.860  16.229  25.347  1.00  0.00     0.164 HD
BRANCH  17  20
HETATM   20  C10 UNL     1      -3.416  18.387  22.948  1.00  0.00     0.124 C 
BRANCH  20  21
HETATM   21  C11 UNL     1      -2.972  17.628  21.713  1.00  0.00     0.020 C 
BRANCH  21  22
HETATM   22  C12 UNL     1      -3.722  18.239  20.552  1.00  0.00     0.002 C 
BRANCH  22  23
HETATM   23  C13 UNL     1      -5.090  17.609  20.346  1.00  0.00     0.000 C 
BRANCH  23  24
HETATM   24  C14 UNL     1      -4.955  16.311  19.661  1.00  0.00     0.001 C 
BRANCH  24  25
HETATM   25  C15 UNL     1      -4.272  16.295  18.370  1.00  0.00     0.010 C 
BRANCH  25  26
HETATM   26  C16 UNL     1      -3.274  15.247  18.136  1.00  0.00     0.113 C 
BRANCH  26  27
HETATM   27  C17 UNL     1      -2.088  15.227  18.955  1.00  0.00     0.172 C 
HETATM   28  O4  UNL     1      -1.804  14.269  19.707  1.00  0.00    -0.648 OA
HETATM   29  O5  UNL     1      -1.175  16.287  18.967  1.00  0.00    -0.648 OA
ENDBRANCH  26  27
ENDBRANCH  25  26
ENDBRANCH  24  25
ENDBRANCH  23  24
ENDBRANCH  22  23
ENDBRANCH  21  22
ENDBRANCH  20  21
ENDBRANCH  17  20
ENDBRANCH   7  14
BRANCH   4  30
HETATM   30  O2  UNL     1     -12.032  17.132  25.340  1.00  0.00    -0.395 OA
ATOM     31  H2  UNL     1     -12.429  17.624  24.630  1.00  0.00     0.210 HD
ENDBRANCH   4  30
BRANCH   1  32
HETATM   32  O1  UNL     1      -9.634  15.489  27.587  1.00  0.00    -0.384 OA
HETATM   33  C1  UNL     1     -10.745  14.701  27.748  1.00  0.00     0.202 C 
ENDBRANCH   1  32
BRANCH  11  34
HETATM   34  C23 UNL     1      -9.323  17.366  30.571  1.00  0.00     0.012 C 
BRANCH  34  35
HETATM   35  C24 UNL     1      -8.671  17.026  31.873  1.00  0.00     0.010 C 
BRANCH  35  36
HETATM   36  C25 UNL     1      -9.701  16.669  32.918  1.00  0.00     0.043 A 
HETATM   37  C26 UNL     1     -10.821  15.797  32.505  1.00  0.00     0.176 A 
HETATM   38  O6  UNL     1     -10.342  14.704  33.245  1.00  0.00    -0.380 OA
HETATM   39  C27 UNL     1      -9.318  15.479  33.753  1.00  0.00     0.059 A 
HETATM   40  C28 UNL     1      -7.974  14.860  33.357  1.00  0.00     0.046 C 
HETATM   41  C29 UNL     1      -9.361  15.705  35.246  1.00  0.00     0.046 C 
ENDBRANCH  35  36
ENDBRANCH  34  35
ENDBRANCH  11  34
TORSDOF 14
ENDMDL
MODEL 5
REMARK VINA RESULT: -8.145490972      3.276      4.419
REMARK  14 active torsions:
REMARK  status: ('A' for Active; 'I' for Inactive)
REMARK    1  A    between atoms: O1_2  and  C2_3 
REMARK    2  A    between atoms: C5_6  and  O2_7 
REMARK    3  A    between atoms: C8_11  and  N1_12 
REMARK       I    between atoms: N1_12  and  C9_14 
REMARK       I    between atoms: C9_14  and  N2_16 
REMARK    4  A    between atoms: N2_16  and  C10_18 
REMARK    5  A    between atoms: C10_18  and  C11_19 
REMARK    6  A    between atoms: C11_19  and  C12_20 
REMARK    7  A    between atoms: C12_20  and  C13_21 
REMARK    8  A    between atoms: C13_21  and  C14_22 
REMARK    9  A    between atoms: C14_22  and  C15_23 
REMARK   10  A    between atoms: C15_23  and  C16_24 
REMARK   11  A    between atoms: C16_24  and  C17_25 
REMARK   12  A    between atoms: C21_31  and  C23_33 
REMARK   13  A    between atoms: C23_33  and  C24_34 
REMARK   14  A    between atoms: C24_34  and  C25_35 
ROOT
HETATM    1  C2  UNL     1      -9.574  16.680  28.146  1.00  0.00     0.072 C 
HETATM    2  C3  UNL     1     -10.832  17.426  27.931  1.00  0.00     0.047 C 
HETATM    3  C4  UNL     1     -10.257  17.970  26.607  1.00  0.00     0.025 C 
HETATM    4  C5  UNL     1     -10.594  17.415  25.338  1.00  0.00     0.122 C 
HETATM    5  C6  UNL     1     -10.008  16.264  24.669  1.00  0.00     0.034 C 
HETATM    6  C7  UNL     1      -8.543  16.042  24.701  1.00  0.00     0.028 C 
HETATM    7  C8  UNL     1      -7.696  17.119  25.227  1.00  0.00     0.090 C 
HETATM    8  C18 UNL     1      -7.749  17.550  26.615  1.00  0.00     0.016 C 
HETATM    9  C19 UNL     1      -6.902  16.771  27.625  1.00  0.00     0.008 C 
HETATM   10  C20 UNL     1      -7.366  17.200  29.014  1.00  0.00     0.012 C 
HETATM   11  C21 UNL     1      -8.738  16.654  29.360  1.00  0.00    -0.012 C 
HETATM   12  C22 UNL     1      -8.357  15.204  29.802  1.00  0.00     0.018 C 
HETATM   13  C30 UNL     1      -8.985  17.812  27.288  1.00  0.00     0.034 C 
ENDROOT
BRANCH   7  14
HETATM   14  N1  UNL     1      -6.297  16.768  24.907  1.00  0.00    -0.338 N 
HETATM   15  C9  UNL     1      -5.345  17.747  24.514  1.00  0.00     0.316 C 
HETATM   16  O3  UNL     1      -5.648  18.962  24.425  1.00  0.00    -0.247 OA
HETATM   17  N2  UNL     1      -4.026  17.346  24.216  1.00  0.00    -0.343 N 
ATOM     18  H2  UNL     1      -3.770  16.362  24.293  1.00  0.00     0.164 HD
ATOM     19  H1  UNL     1      -6.005  15.793  24.970  1.00  0.00     0.164 HD
BRANCH  17  20
HETATM   20  C10 UNL     1      -3.044  18.297  23.810  1.00  0.00     0.124 C 
BRANCH  20  21
HETATM   21  C11 UNL     1      -1.650  17.702  23.824  1.00  0.00     0.020 C 
BRANCH  21  22
HETATM   22  C12 UNL     1      -1.813  16.257  24.234  1.00  0.00     0.002 C 
BRANCH  22  23
HETATM   23  C13 UNL     1      -0.577  15.424  23.938  1.00  0.00     0.000 C 
BRANCH  23  24
HETATM   24  C14 UNL     1      -0.767  14.043  24.418  1.00  0.00     0.001 C 
BRANCH  24  25
HETATM   25  C15 UNL     1       0.257  13.484  25.295  1.00  0.00     0.010 C 
BRANCH  25  26
HETATM   26  C16 UNL     1      -0.073  12.268  26.045  1.00  0.00     0.113 C 
BRANCH  26  27
HETATM   27  C17 UNL     1      -0.014  12.306  27.485  1.00  0.00     0.172 C 
HETATM   28  O4  UNL     1       0.851  12.961  28.107  1.00  0.00    -0.648 OA
HETATM   29  O5  UNL     1      -0.923  11.607  28.285  1.00  0.00    -0.648 OA
ENDBRANCH  26  27
ENDBRANCH  25  26
ENDBRANCH  24  25
ENDBRANCH  23  24
ENDBRANCH  22  23
ENDBRANCH  21  22
ENDBRANCH  20  21
ENDBRANCH  17  20
ENDBRANCH   7  14
BRANCH   4  30
HETATM   30  O2  UNL     1     -12.002  17.160  25.362  1.00  0.00    -0.395 OA
ATOM     31  H2  UNL     1     -12.276  17.226  26.270  1.00  0.00     0.210 HD
ENDBRANCH   4  30
BRANCH   1  32
HETATM   32  O1  UNL     1      -9.669  15.450  27.628  1.00  0.00    -0.384 OA
HETATM   33  C1  UNL     1     -10.801  14.709  27.851  1.00  0.00     0.202 C 
ENDBRANCH   1  32
BRANCH  11  34
HETATM   34  C23 UNL     1      -9.231  17.381  30.561  1.00  0.00     0.012 C 
BRANCH  34  35
HETATM   35  C24 UNL     1      -8.599  17.023  31.869  1.00  0.00     0.010 C 
BRANCH  35  36
HETATM   36  C25 UNL     1      -9.648  16.681  32.901  1.00  0.00     0.043 A 
HETATM   37  C26 UNL     1     -10.760  15.804  32.481  1.00  0.00     0.176 A 
HETATM   38  O6  UNL     1     -10.294  14.722  33.246  1.00  0.00    -0.380 OA
HETATM   39  C27 UNL     1      -9.279  15.503  33.760  1.00  0.00     0.059 A 
HETATM   40  C28 UNL     1      -7.929  14.879  33.396  1.00  0.00     0.046 C 
HETATM   41  C29 UNL     1      -9.348  15.751  35.248  1.00  0.00     0.046 C 
ENDBRANCH  35  36
ENDBRANCH  34  35
ENDBRANCH  11  34
TORSDOF 14
ENDMDL
