MODEL 1
REMARK VINA RESULT: -9.444058053      0.000      0.000
REMARK  12 active torsions:
REMARK  status: ('A' for Active; 'I' for Inactive)
REMARK    1  A    between atoms: N1_2  and  C3_4 
REMARK    2  A    between atoms: N1_2  and  C22_35 
REMARK    3  A    between atoms: C3_4  and  C4_5 
REMARK    4  A    between atoms: C4_5  and  N2_6 
REMARK    5  A    between atoms: N2_6  and  C5_9 
REMARK    6  A    between atoms: C5_9  and  C6_10 
REMARK    7  A    between atoms: C6_10  and  C7_11 
REMARK    8  A    between atoms: C7_11  and  C8_12 
REMARK    9  A    between atoms: C8_12  and  C9_13 
REMARK   10  A    between atoms: C9_13  and  C10_14 
REMARK   11  A    between atoms: C10_14  and  N3_15 
REMARK   12  A    between atoms: C17_27  and  C18_28 
ROOT
HETATM    1  C9  UNL     1     -10.493  15.559  25.159  1.00  0.00     0.020 C 
ENDROOT
BRANCH   1   2
HETATM    2  C8  UNL     1     -10.603  16.048  23.734  1.00  0.00     0.002 C 
BRANCH   2   3
HETATM    3  C7  UNL     1     -10.260  15.053  22.690  1.00  0.00     0.002 C 
BRANCH   3   4
HETATM    4  C6  UNL     1      -9.041  15.484  21.937  1.00  0.00     0.027 C 
BRANCH   4   5
HETATM    5  C5  UNL     1      -9.349  16.688  21.032  1.00  0.00     0.232 C 
BRANCH   5   6
HETATM    6  N2  UNL     1      -8.129  17.429  20.892  1.00  0.00    -0.074 N 
ATOM      7  H22 UNL     1      -8.312  18.418  20.720  1.00  0.00     0.277 HD
ATOM      8  H21 UNL     1      -7.654  17.201  20.019  1.00  0.00     0.277 HD
BRANCH   6   9
HETATM    9  C4  UNL     1      -7.245  17.239  22.051  1.00  0.00     0.260 C 
BRANCH   9  10
HETATM   10  C3  UNL     1      -7.198  18.429  22.928  1.00  0.00     0.264 C 
BRANCH  10  11
HETATM   11  N1  UNL     1      -5.925  18.901  23.339  1.00  0.00    -0.069 N 
HETATM   12  C1  UNL     1      -4.841  18.456  22.481  1.00  0.00     0.272 C 
HETATM   13  C2  UNL     1      -5.969  20.374  23.136  1.00  0.00     0.272 C 
BRANCH  11  14
HETATM   14  C22 UNL     1      -5.548  18.666  24.710  1.00  0.00     0.189 C 
HETATM   15  C23 UNL     1      -4.768  17.429  24.913  1.00  0.00     0.033 C 
HETATM   16  C24 UNL     1      -3.745  17.448  26.014  1.00  0.00     0.002 C 
HETATM   17  C25 UNL     1      -4.214  17.828  27.363  1.00  0.00     0.000 C 
HETATM   18  C26 UNL     1      -5.673  17.852  27.603  1.00  0.00     0.000 C 
HETATM   19  C27 UNL     1      -6.382  19.133  27.404  1.00  0.00     0.000 C 
HETATM   20  C28 UNL     1      -5.693  20.219  26.679  1.00  0.00     0.002 C 
HETATM   21  C29 UNL     1      -5.007  19.876  25.396  1.00  0.00     0.033 C 
ENDBRANCH  11  14
ENDBRANCH  10  11
ENDBRANCH   9  10
ENDBRANCH   6   9
ENDBRANCH   5   6
ENDBRANCH   4   5
ENDBRANCH   3   4
ENDBRANCH   2   3
ENDBRANCH   1   2
BRANCH   1  22
HETATM   22  C10 UNL     1     -11.368  16.475  25.997  1.00  0.00     0.135 C 
BRANCH  22  23
HETATM   23  N3  UNL     1     -11.049  16.443  27.406  1.00  0.00    -0.289 N 
HETATM   24  C11 UNL     1     -11.877  15.778  28.264  1.00  0.00     0.181 A 
HETATM   25  S1  UNL     1     -13.193  15.041  27.630  1.00  0.00    -0.040 SA
HETATM   26  N4  UNL     1     -11.645  15.714  29.587  1.00  0.00    -0.330 N 
HETATM   27  C12 UNL     1     -10.570  16.308  30.149  1.00  0.00     0.079 A 
ATOM     28  H4  UNL     1     -12.298  15.204  30.182  1.00  0.00     0.168 HD
HETATM   29  C13 UNL     1      -9.708  16.988  29.321  1.00  0.00     0.129 A 
HETATM   30  C20 UNL     1     -10.084  16.414  31.433  1.00  0.00     0.021 A 
HETATM   31  N5  UNL     1      -8.736  17.484  30.102  1.00  0.00    -0.349 N 
HETATM   32  C21 UNL     1      -9.978  17.036  27.954  1.00  0.00     0.279 A 
HETATM   33  C14 UNL     1      -8.912  17.167  31.394  1.00  0.00     0.045 A 
ATOM     34  H5  UNL     1      -7.953  18.037  29.753  1.00  0.00     0.166 HD
HETATM   35  C15 UNL     1      -8.226  17.421  32.565  1.00  0.00     0.031 A 
HETATM   36  C16 UNL     1      -8.674  16.950  33.774  1.00  0.00     0.019 A 
HETATM   37  C17 UNL     1      -9.836  16.205  33.805  1.00  0.00     0.030 A 
HETATM   38  C19 UNL     1     -10.532  15.941  32.647  1.00  0.00     0.032 A 
HETATM   39  O2  UNL     1      -9.203  17.650  27.201  1.00  0.00    -0.265 OA
BRANCH  37  40
HETATM   40  C18 UNL     1     -10.312  15.705  35.091  1.00  0.00     0.265 C 
HETATM   41  N6  UNL     1     -11.679  15.855  35.439  1.00  0.00    -0.057 NA
HETATM   42  O1  UNL     1      -9.562  15.140  35.919  1.00  0.00    -0.271 OA
ENDBRANCH  37  40
ENDBRANCH  22  23
ENDBRANCH   1  22
TORSDOF 12
ENDMDL
MODEL 2
REMARK VINA RESULT: -9.028911708      1.387      1.691
REMARK  12 active torsions:
REMARK  status: ('A' for Active; 'I' for Inactive)
REMARK    1  A    between atoms: N1_2  and  C3_4 
REMARK    2  A    between atoms: N1_2  and  C22_35 
REMARK    3  A    between atoms: C3_4  and  C4_5 
REMARK    4  A    between atoms: C4_5  and  N2_6 
REMARK    5  A    between atoms: N2_6  and  C5_9 
REMARK    6  A    between atoms: C5_9  and  C6_10 
REMARK    7  A    between atoms: C6_10  and  C7_11 
REMARK    8  A    between atoms: C7_11  and  C8_12 
REMARK    9  A    between atoms: C8_12  and  C9_13 
REMARK   10  A    between atoms: C9_13  and  C10_14 
REMARK   11  A    between atoms: C10_14  and  N3_15 
REMARK   12  A    between atoms: C17_27  and  C18_28 
ROOT
HETATM    1  C9  UNL     1     -10.186  16.113  26.324  1.00  0.00     0.020 C 
ENDROOT
BRANCH   1   2
HETATM    2  C8  UNL     1     -10.585  16.455  24.908  1.00  0.00     0.002 C 
BRANCH   2   3
HETATM    3  C7  UNL     1     -10.462  15.352  23.925  1.00  0.00     0.002 C 
BRANCH   3   4
HETATM    4  C6  UNL     1      -9.828  15.844  22.663  1.00  0.00     0.027 C 
BRANCH   4   5
HETATM    5  C5  UNL     1      -8.471  15.161  22.425  1.00  0.00     0.232 C 
BRANCH   5   6
HETATM    6  N2  UNL     1      -7.470  16.002  23.013  1.00  0.00    -0.074 N 
ATOM      7  H22 UNL     1      -6.620  15.478  23.223  1.00  0.00     0.277 HD
ATOM      8  H21 UNL     1      -7.725  16.278  23.960  1.00  0.00     0.277 HD
BRANCH   6   9
HETATM    9  C4  UNL     1      -7.184  17.172  22.170  1.00  0.00     0.260 C 
BRANCH   9  10
HETATM   10  C3  UNL     1      -7.152  18.432  22.944  1.00  0.00     0.264 C 
BRANCH  10  11
HETATM   11  N1  UNL     1      -5.893  18.898  23.403  1.00  0.00    -0.069 N 
HETATM   12  C1  UNL     1      -4.785  18.491  22.557  1.00  0.00     0.272 C 
HETATM   13  C2  UNL     1      -5.943  20.376  23.252  1.00  0.00     0.272 C 
BRANCH  11  14
HETATM   14  C22 UNL     1      -5.547  18.617  24.774  1.00  0.00     0.189 C 
HETATM   15  C23 UNL     1      -4.539  17.549  24.931  1.00  0.00     0.033 C 
HETATM   16  C24 UNL     1      -3.602  17.672  26.098  1.00  0.00     0.002 C 
HETATM   17  C25 UNL     1      -4.208  17.821  27.438  1.00  0.00     0.000 C 
HETATM   18  C26 UNL     1      -5.652  17.527  27.576  1.00  0.00     0.000 C 
HETATM   19  C27 UNL     1      -6.599  18.652  27.432  1.00  0.00     0.000 C 
HETATM   20  C28 UNL     1      -6.114  19.917  26.847  1.00  0.00     0.002 C 
HETATM   21  C29 UNL     1      -5.306  19.841  25.591  1.00  0.00     0.033 C 
ENDBRANCH  11  14
ENDBRANCH  10  11
ENDBRANCH   9  10
ENDBRANCH   6   9
ENDBRANCH   5   6
ENDBRANCH   4   5
ENDBRANCH   3   4
ENDBRANCH   2   3
ENDBRANCH   1   2
BRANCH   1  22
HETATM   22  C10 UNL     1     -11.139  16.868  27.234  1.00  0.00     0.135 C 
BRANCH  22  23
HETATM   23  N3  UNL     1     -11.098  16.420  28.607  1.00  0.00    -0.289 N 
HETATM   24  C11 UNL     1     -12.012  15.502  29.038  1.00  0.00     0.181 A 
HETATM   25  S1  UNL     1     -13.106  14.953  27.953  1.00  0.00    -0.040 SA
HETATM   26  N4  UNL     1     -12.036  15.047  30.304  1.00  0.00    -0.330 N 
HETATM   27  C12 UNL     1     -11.150  15.475  31.229  1.00  0.00     0.079 A 
ATOM     28  H4  UNL     1     -12.742  14.362  30.572  1.00  0.00     0.168 HD
HETATM   29  C13 UNL     1     -10.210  16.399  30.838  1.00  0.00     0.129 A 
HETATM   30  C20 UNL     1     -10.934  15.201  32.561  1.00  0.00     0.021 A 
HETATM   31  N5  UNL     1      -9.458  16.664  31.916  1.00  0.00    -0.349 N 
HETATM   32  C21 UNL     1     -10.213  16.851  29.519  1.00  0.00     0.279 A 
HETATM   33  C14 UNL     1      -9.852  15.965  32.993  1.00  0.00     0.045 A 
ATOM     34  H5  UNL     1      -8.677  17.320  31.918  1.00  0.00     0.166 HD
HETATM   35  C15 UNL     1      -9.432  15.873  34.305  1.00  0.00     0.031 A 
HETATM   36  C16 UNL     1     -10.061  15.044  35.200  1.00  0.00     0.019 A 
HETATM   37  C17 UNL     1     -11.133  14.291  34.767  1.00  0.00     0.030 A 
HETATM   38  C19 UNL     1     -11.563  14.370  33.462  1.00  0.00     0.032 A 
HETATM   39  O2  UNL     1      -9.367  17.687  29.159  1.00  0.00    -0.265 OA
BRANCH  37  40
HETATM   40  C18 UNL     1     -11.801  13.410  35.720  1.00  0.00     0.265 C 
HETATM   41  N6  UNL     1     -11.293  12.105  35.943  1.00  0.00    -0.057 NA
HETATM   42  O1  UNL     1     -12.819  13.753  36.362  1.00  0.00    -0.271 OA
ENDBRANCH  37  40
ENDBRANCH  22  23
ENDBRANCH   1  22
TORSDOF 12
ENDMDL
MODEL 3
REMARK VINA RESULT: -8.925699155      2.796      9.215
REMARK  12 active torsions:
REMARK  status: ('A' for Active; 'I' for Inactive)
REMARK    1  A    between atoms: N1_2  and  C3_4 
REMARK    2  A    between atoms: N1_2  and  C22_35 
REMARK    3  A    between atoms: C3_4  and  C4_5 
REMARK    4  A    between atoms: C4_5  and  N2_6 
REMARK    5  A    between atoms: N2_6  and  C5_9 
REMARK    6  A    between atoms: C5_9  and  C6_10 
REMARK    7  A    between atoms: C6_10  and  C7_11 
REMARK    8  A    between atoms: C7_11  and  C8_12 
REMARK    9  A    between atoms: C8_12  and  C9_13 
REMARK   10  A    between atoms: C9_13  and  C10_14 
REMARK   11  A    between atoms: C10_14  and  N3_15 
REMARK   12  A    between atoms: C17_27  and  C18_28 
ROOT
HETATM    1  C9  UNL     1     -11.805  16.120  27.036  1.00  0.00     0.020 C 
ENDROOT
BRANCH   1   2
HETATM    2  C8  UNL     1     -12.468  15.305  28.121  1.00  0.00     0.002 C 
BRANCH   2   3
HETATM    3  C7  UNL     1     -11.906  13.951  28.338  1.00  0.00     0.002 C 
BRANCH   3   4
HETATM    4  C6  UNL     1     -12.998  12.929  28.363  1.00  0.00     0.027 C 
BRANCH   4   5
HETATM    5  C5  UNL     1     -13.167  12.338  29.773  1.00  0.00     0.232 C 
BRANCH   5   6
HETATM    6  N2  UNL     1     -14.474  12.711  30.229  1.00  0.00    -0.074 N 
ATOM      7  H22 UNL     1     -15.137  11.942  30.128  1.00  0.00     0.277 HD
ATOM      8  H21 UNL     1     -14.912  13.381  29.598  1.00  0.00     0.277 HD
BRANCH   6   9
HETATM    9  C4  UNL     1     -14.442  13.216  31.610  1.00  0.00     0.260 C 
BRANCH   9  10
HETATM   10  C3  UNL     1     -13.077  13.220  32.179  1.00  0.00     0.264 C 
BRANCH  10  11
HETATM   11  N1  UNL     1     -12.727  14.275  33.059  1.00  0.00    -0.069 N 
HETATM   12  C1  UNL     1     -13.681  15.370  33.052  1.00  0.00     0.272 C 
HETATM   13  C2  UNL     1     -12.844  13.699  34.426  1.00  0.00     0.272 C 
BRANCH  11  14
HETATM   14  C22 UNL     1     -11.401  14.824  32.935  1.00  0.00     0.189 C 
HETATM   15  C23 UNL     1     -11.065  15.276  31.570  1.00  0.00     0.033 C 
HETATM   16  C24 UNL     1     -10.138  16.453  31.457  1.00  0.00     0.002 C 
HETATM   17  C25 UNL     1      -8.839  16.358  32.155  1.00  0.00     0.000 C 
HETATM   18  C26 UNL     1      -8.414  15.026  32.640  1.00  0.00     0.000 C 
HETATM   19  C27 UNL     1      -8.764  14.654  34.026  1.00  0.00     0.000 C 
HETATM   20  C28 UNL     1      -9.774  15.457  34.742  1.00  0.00     0.002 C 
HETATM   21  C29 UNL     1     -11.046  15.780  34.024  1.00  0.00     0.033 C 
ENDBRANCH  11  14
ENDBRANCH  10  11
ENDBRANCH   9  10
ENDBRANCH   6   9
ENDBRANCH   5   6
ENDBRANCH   4   5
ENDBRANCH   3   4
ENDBRANCH   2   3
ENDBRANCH   1   2
BRANCH   1  22
HETATM   22  C10 UNL     1     -10.825  15.192  26.340  1.00  0.00     0.135 C 
BRANCH  22  23
HETATM   23  N3  UNL     1      -9.536  15.799  26.095  1.00  0.00    -0.289 N 
HETATM   24  C11 UNL     1      -9.215  16.201  24.830  1.00  0.00     0.181 A 
HETATM   25  S1  UNL     1     -10.333  15.975  23.657  1.00  0.00    -0.040 SA
HETATM   26  N4  UNL     1      -8.032  16.765  24.530  1.00  0.00    -0.330 N 
HETATM   27  C12 UNL     1      -7.084  16.969  25.470  1.00  0.00     0.079 A 
ATOM     28  H4  UNL     1      -7.845  17.045  23.568  1.00  0.00     0.168 HD
HETATM   29  C13 UNL     1      -7.365  16.580  26.759  1.00  0.00     0.129 A 
HETATM   30  C20 UNL     1      -5.816  17.505  25.465  1.00  0.00     0.021 A 
HETATM   31  N5  UNL     1      -6.285  16.881  27.496  1.00  0.00    -0.349 N 
HETATM   32  C21 UNL     1      -8.600  15.998  27.036  1.00  0.00     0.279 A 
HETATM   33  C14 UNL     1      -5.312  17.445  26.763  1.00  0.00     0.045 A 
ATOM     34  H5  UNL     1      -6.212  16.703  28.498  1.00  0.00     0.166 HD
HETATM   35  C15 UNL     1      -4.044  17.923  27.024  1.00  0.00     0.031 A 
HETATM   36  C16 UNL     1      -3.261  18.456  26.031  1.00  0.00     0.019 A 
HETATM   37  C17 UNL     1      -3.765  18.512  24.748  1.00  0.00     0.030 A 
HETATM   38  C19 UNL     1      -5.028  18.041  24.469  1.00  0.00     0.032 A 
HETATM   39  O2  UNL     1      -8.860  15.644  28.199  1.00  0.00    -0.265 OA
BRANCH  37  40
HETATM   40  C18 UNL     1      -2.932  19.079  23.692  1.00  0.00     0.265 C 
HETATM   41  N6  UNL     1      -3.110  18.650  22.352  1.00  0.00    -0.057 NA
HETATM   42  O1  UNL     1      -2.050  19.939  23.912  1.00  0.00    -0.271 OA
ENDBRANCH  37  40
ENDBRANCH  22  23
ENDBRANCH   1  22
TORSDOF 12
ENDMDL
MODEL 4
REMARK VINA RESULT: -8.821322526      1.138      1.802
REMARK  12 active torsions:
REMARK  status: ('A' for Active; 'I' for Inactive)
REMARK    1  A    between atoms: N1_2  and  C3_4 
REMARK    2  A    between atoms: N1_2  and  C22_35 
REMARK    3  A    between atoms: C3_4  and  C4_5 
REMARK    4  A    between atoms: C4_5  and  N2_6 
REMARK    5  A    between atoms: N2_6  and  C5_9 
REMARK    6  A    between atoms: C5_9  and  C6_10 
REMARK    7  A    between atoms: C6_10  and  C7_11 
REMARK    8  A    between atoms: C7_11  and  C8_12 
REMARK    9  A    between atoms: C8_12  and  C9_13 
REMARK   10  A    between atoms: C9_13  and  C10_14 
REMARK   11  A    between atoms: C10_14  and  N3_15 
REMARK   12  A    between atoms: C17_27  and  C18_28 
ROOT
HETATM    1  C9  UNL     1     -10.116  15.861  25.052  1.00  0.00     0.020 C 
ENDROOT
BRANCH   1   2
HETATM    2  C8  UNL     1     -10.654  15.896  23.641  1.00  0.00     0.002 C 
BRANCH   2   3
HETATM    3  C7  UNL     1     -10.112  14.864  22.726  1.00  0.00     0.002 C 
BRANCH   3   4
HETATM    4  C6  UNL     1      -9.045  15.447  21.855  1.00  0.00     0.027 C 
BRANCH   4   5
HETATM    5  C5  UNL     1      -9.399  16.882  21.434  1.00  0.00     0.232 C 
BRANCH   5   6
HETATM    6  N2  UNL     1      -8.288  17.383  20.677  1.00  0.00    -0.074 N 
ATOM      7  H22 UNL     1      -8.413  18.368  20.441  1.00  0.00     0.277 HD
ATOM      8  H21 UNL     1      -8.274  16.994  19.735  1.00  0.00     0.277 HD
BRANCH   6   9
HETATM    9  C4  UNL     1      -7.013  17.154  21.373  1.00  0.00     0.260 C 
BRANCH   9  10
HETATM   10  C3  UNL     1      -6.230  18.397  21.543  1.00  0.00     0.264 C 
BRANCH  10  11
HETATM   11  N1  UNL     1      -5.833  18.758  22.856  1.00  0.00    -0.069 N 
HETATM   12  C1  UNL     1      -5.992  20.174  23.136  1.00  0.00     0.272 C 
HETATM   13  C2  UNL     1      -6.813  18.096  23.757  1.00  0.00     0.272 C 
BRANCH  11  14
HETATM   14  C22 UNL     1      -4.517  18.353  23.280  1.00  0.00     0.189 C 
HETATM   15  C23 UNL     1      -3.587  18.080  22.166  1.00  0.00     0.033 C 
HETATM   16  C24 UNL     1      -2.136  18.384  22.407  1.00  0.00     0.002 C 
HETATM   17  C25 UNL     1      -1.504  17.763  23.590  1.00  0.00     0.000 C 
HETATM   18  C26 UNL     1      -2.230  16.661  24.260  1.00  0.00     0.000 C 
HETATM   19  C27 UNL     1      -3.124  17.009  25.383  1.00  0.00     0.000 C 
HETATM   20  C28 UNL     1      -3.502  18.423  25.577  1.00  0.00     0.002 C 
HETATM   21  C29 UNL     1      -3.959  19.193  24.379  1.00  0.00     0.033 C 
ENDBRANCH  11  14
ENDBRANCH  10  11
ENDBRANCH   9  10
ENDBRANCH   6   9
ENDBRANCH   5   6
ENDBRANCH   4   5
ENDBRANCH   3   4
ENDBRANCH   2   3
ENDBRANCH   1   2
BRANCH   1  22
HETATM   22  C10 UNL     1     -10.975  16.815  25.864  1.00  0.00     0.135 C 
BRANCH  22  23
HETATM   23  N3  UNL     1     -10.750  16.719  27.288  1.00  0.00    -0.289 N 
HETATM   24  C11 UNL     1     -11.587  15.953  28.047  1.00  0.00     0.181 A 
HETATM   25  S1  UNL     1     -12.805  15.173  27.282  1.00  0.00    -0.040 SA
HETATM   26  N4  UNL     1     -11.441  15.825  29.378  1.00  0.00    -0.330 N 
HETATM   27  C12 UNL     1     -10.449  16.452  30.047  1.00  0.00     0.079 A 
ATOM     28  H4  UNL     1     -12.097  15.240  29.896  1.00  0.00     0.168 HD
HETATM   29  C13 UNL     1      -9.581  17.234  29.321  1.00  0.00     0.129 A 
HETATM   30  C20 UNL     1     -10.059  16.512  31.366  1.00  0.00     0.021 A 
HETATM   31  N5  UNL     1      -8.700  17.743  30.195  1.00  0.00    -0.349 N 
HETATM   32  C21 UNL     1      -9.761  17.346  27.943  1.00  0.00     0.279 A 
HETATM   33  C14 UNL     1      -8.941  17.339  31.452  1.00  0.00     0.045 A 
ATOM     34  H5  UNL     1      -7.934  18.365  29.933  1.00  0.00     0.166 HD
HETATM   35  C15 UNL     1      -8.354  17.566  32.681  1.00  0.00     0.031 A 
HETATM   36  C16 UNL     1      -8.849  16.996  33.827  1.00  0.00     0.019 A 
HETATM   37  C17 UNL     1      -9.958  16.179  33.735  1.00  0.00     0.030 A 
HETATM   38  C19 UNL     1     -10.554  15.941  32.518  1.00  0.00     0.032 A 
HETATM   39  O2  UNL     1      -8.980  18.051  27.282  1.00  0.00    -0.265 OA
BRANCH  37  40
HETATM   40  C18 UNL     1     -10.484  15.573  34.954  1.00  0.00     0.265 C 
HETATM   41  N6  UNL     1     -11.811  15.861  35.363  1.00  0.00    -0.057 NA
HETATM   42  O1  UNL     1      -9.812  14.800  35.672  1.00  0.00    -0.271 OA
ENDBRANCH  37  40
ENDBRANCH  22  23
ENDBRANCH   1  22
TORSDOF 12
ENDMDL
MODEL 5
REMARK VINA RESULT: -8.722444773      2.671      9.270
REMARK  12 active torsions:
REMARK  status: ('A' for Active; 'I' for Inactive)
REMARK    1  A    between atoms: N1_2  and  C3_4 
REMARK    2  A    between atoms: N1_2  and  C22_35 
REMARK    3  A    between atoms: C3_4  and  C4_5 
REMARK    4  A    between atoms: C4_5  and  N2_6 
REMARK    5  A    between atoms: N2_6  and  C5_9 
REMARK    6  A    between atoms: C5_9  and  C6_10 
REMARK    7  A    between atoms: C6_10  and  C7_11 
REMARK    8  A    between atoms: C7_11  and  C8_12 
REMARK    9  A    between atoms: C8_12  and  C9_13 
REMARK   10  A    between atoms: C9_13  and  C10_14 
REMARK   11  A    between atoms: C10_14  and  N3_15 
REMARK   12  A    between atoms: C17_27  and  C18_28 
ROOT
HETATM    1  C9  UNL     1     -11.907  16.230  27.135  1.00  0.00     0.020 C 
ENDROOT
BRANCH   1   2
HETATM    2  C8  UNL     1     -12.316  15.648  28.468  1.00  0.00     0.002 C 
BRANCH   2   3
HETATM    3  C7  UNL     1     -13.566  14.852  28.460  1.00  0.00     0.002 C 
BRANCH   3   4
HETATM    4  C6  UNL     1     -13.844  14.302  29.823  1.00  0.00     0.027 C 
BRANCH   4   5
HETATM    5  C5  UNL     1     -15.270  14.652  30.279  1.00  0.00     0.232 C 
BRANCH   5   6
HETATM    6  N2  UNL     1     -15.146  15.499  31.430  1.00  0.00    -0.074 N 
ATOM      7  H22 UNL     1     -16.043  15.910  31.688  1.00  0.00     0.277 HD
ATOM      8  H21 UNL     1     -14.636  16.353  31.210  1.00  0.00     0.277 HD
BRANCH   6   9
HETATM    9  C4  UNL     1     -14.536  14.786  32.562  1.00  0.00     0.260 C 
BRANCH   9  10
HETATM   10  C3  UNL     1     -13.404  15.530  33.156  1.00  0.00     0.264 C 
BRANCH  10  11
HETATM   11  N1  UNL     1     -12.380  14.784  33.793  1.00  0.00    -0.069 N 
HETATM   12  C1  UNL     1     -12.469  14.805  35.242  1.00  0.00     0.272 C 
HETATM   13  C2  UNL     1     -12.645  13.366  33.432  1.00  0.00     0.272 C 
BRANCH  11  14
HETATM   14  C22 UNL     1     -11.020  15.077  33.414  1.00  0.00     0.189 C 
HETATM   15  C23 UNL     1     -10.008  14.492  34.316  1.00  0.00     0.033 C 
HETATM   16  C24 UNL     1      -8.703  14.084  33.693  1.00  0.00     0.002 C 
HETATM   17  C25 UNL     1      -7.974  15.111  32.920  1.00  0.00     0.000 C 
HETATM   18  C26 UNL     1      -8.402  16.519  33.071  1.00  0.00     0.000 C 
HETATM   19  C27 UNL     1      -9.400  17.042  32.115  1.00  0.00     0.000 C 
HETATM   20  C28 UNL     1     -10.153  16.084  31.282  1.00  0.00     0.002 C 
HETATM   21  C29 UNL     1     -10.753  14.893  31.958  1.00  0.00     0.033 C 
ENDBRANCH  11  14
ENDBRANCH  10  11
ENDBRANCH   9  10
ENDBRANCH   6   9
ENDBRANCH   5   6
ENDBRANCH   4   5
ENDBRANCH   3   4
ENDBRANCH   2   3
ENDBRANCH   1   2
BRANCH   1  22
HETATM   22  C10 UNL     1     -10.917  15.253  26.525  1.00  0.00     0.135 C 
BRANCH  22  23
HETATM   23  N3  UNL     1      -9.627  15.842  26.246  1.00  0.00    -0.289 N 
HETATM   24  C11 UNL     1      -9.345  16.263  24.978  1.00  0.00     0.181 A 
HETATM   25  S1  UNL     1     -10.507  16.080  23.841  1.00  0.00    -0.040 SA
HETATM   26  N4  UNL     1      -8.163  16.813  24.647  1.00  0.00    -0.330 N 
HETATM   27  C12 UNL     1      -7.179  16.983  25.556  1.00  0.00     0.079 A 
ATOM     28  H4  UNL     1      -8.006  17.110  23.684  1.00  0.00     0.168 HD
HETATM   29  C13 UNL     1      -7.421  16.573  26.846  1.00  0.00     0.129 A 
HETATM   30  C20 UNL     1      -5.903  17.498  25.515  1.00  0.00     0.021 A 
HETATM   31  N5  UNL     1      -6.310  16.841  27.549  1.00  0.00    -0.349 N 
HETATM   32  C21 UNL     1      -8.656  16.006  27.156  1.00  0.00     0.279 A 
HETATM   33  C14 UNL     1      -5.354  17.404  26.793  1.00  0.00     0.045 A 
ATOM     34  H5  UNL     1      -6.205  16.642  28.544  1.00  0.00     0.166 HD
HETATM   35  C15 UNL     1      -4.069  17.854  27.018  1.00  0.00     0.031 A 
HETATM   36  C16 UNL     1      -3.313  18.394  26.008  1.00  0.00     0.019 A 
HETATM   37  C17 UNL     1      -3.861  18.484  24.745  1.00  0.00     0.030 A 
HETATM   38  C19 UNL     1      -5.141  18.040  24.503  1.00  0.00     0.032 A 
HETATM   39  O2  UNL     1      -8.880  15.634  28.321  1.00  0.00    -0.265 OA
BRANCH  37  40
HETATM   40  C18 UNL     1      -3.056  19.058  23.671  1.00  0.00     0.265 C 
HETATM   41  N6  UNL     1      -3.295  18.665  22.329  1.00  0.00    -0.057 NA
HETATM   42  O1  UNL     1      -2.148  19.894  23.876  1.00  0.00    -0.271 OA
ENDBRANCH  37  40
ENDBRANCH  22  23
ENDBRANCH   1  22
TORSDOF 12
ENDMDL
