MODEL 1
REMARK VINA RESULT: -9.070104433      0.000      0.000
REMARK  13 active torsions:
REMARK  status: ('A' for Active; 'I' for Inactive)
REMARK    1  A    between atoms: N2_4  and  C3_6 
REMARK    2  A    between atoms: C3_6  and  C4_7 
REMARK    3  A    between atoms: C4_7  and  C5_8 
REMARK    4  A    between atoms: C5_8  and  C6_9 
REMARK    5  A    between atoms: C6_9  and  C7_10 
REMARK    6  A    between atoms: C7_10  and  N3_11 
REMARK       I    between atoms: N3_11  and  C8_13 
REMARK    7  A    between atoms: C8_13  and  C9_15 
REMARK    8  A    between atoms: C9_15  and  C10_16 
REMARK    9  A    between atoms: C10_16  and  C11_17 
REMARK   10  A    between atoms: C11_17  and  N4_18 
REMARK   11  A    between atoms: C13_20  and  S1_21 
REMARK   12  A    between atoms: S1_21  and  C14_22 
REMARK   13  A    between atoms: C27_35  and  N5_36 
REMARK       I    between atoms: N5_36  and  C28_38 
ROOT
HETATM    1  N4  UNL     1     -10.707  16.421  29.330  1.00  0.00    -0.341 N 
HETATM    2  C12 UNL     1     -10.791  16.315  30.688  1.00  0.00     0.112 A 
HETATM    3  C13 UNL     1     -11.510  15.303  31.277  1.00  0.00     0.027 A 
HETATM    4  C20 UNL     1     -12.150  14.387  30.463  1.00  0.00    -0.004 A 
HETATM    5  C21 UNL     1     -12.882  13.333  31.021  1.00  0.00     0.020 A 
HETATM    6  C22 UNL     1     -13.501  12.428  30.198  1.00  0.00    -0.061 A 
HETATM    7  C23 UNL     1     -14.298  11.276  30.749  1.00  0.00     0.048 C 
HETATM    8  C24 UNL     1     -13.390  12.575  28.839  1.00  0.00     0.007 A 
HETATM    9  C25 UNL     1     -12.667  13.615  28.266  1.00  0.00     0.017 A 
HETATM   10  C26 UNL     1     -12.048  14.520  29.117  1.00  0.00     0.020 A 
HETATM   11  C27 UNL     1     -11.302  15.572  28.481  1.00  0.00     0.120 A 
ENDROOT
BRANCH   1  12
HETATM   12  C11 UNL     1      -9.889  17.525  28.800  1.00  0.00     0.130 C 
BRANCH  12  13
HETATM   13  C10 UNL     1      -8.494  17.257  29.247  1.00  0.00     0.029 C 
BRANCH  13  14
HETATM   14  C9  UNL     1      -7.564  16.683  28.245  1.00  0.00     0.104 C 
BRANCH  14  15
HETATM   15  C8  UNL     1      -6.603  17.617  27.637  1.00  0.00     0.217 C 
HETATM   16  N3  UNL     1      -5.322  17.152  27.244  1.00  0.00    -0.361 N 
ATOM     17  H3  UNL     1      -5.080  16.172  27.390  1.00  0.00     0.162 HD
HETATM   18  O1  UNL     1      -6.863  18.824  27.448  1.00  0.00    -0.274 OA
BRANCH  16  19
HETATM   19  C7  UNL     1      -4.347  18.044  26.636  1.00  0.00     0.122 C 
BRANCH  19  20
HETATM   20  C6  UNL     1      -4.173  17.765  25.171  1.00  0.00     0.020 C 
BRANCH  20  21
HETATM   21  C5  UNL     1      -5.247  18.277  24.290  1.00  0.00     0.003 C 
BRANCH  21  22
HETATM   22  C4  UNL     1      -6.321  17.355  23.866  1.00  0.00     0.020 C 
BRANCH  22  23
HETATM   23  C3  UNL     1      -7.630  17.937  23.485  1.00  0.00     0.120 C 
BRANCH  23  24
HETATM   24  N2  UNL     1      -8.664  17.017  23.122  1.00  0.00    -0.382 N 
HETATM   25  C2  UNL     1      -9.172  16.950  21.938  1.00  0.00     0.085 C 
HETATM   26  C1  UNL     1     -10.243  15.963  21.649  1.00  0.00     0.085 C 
HETATM   27  N1  UNL     1      -8.754  17.788  20.861  1.00  0.00    -0.088 NA
ATOM     28  H2  UNL     1      -9.019  16.382  23.837  1.00  0.00     0.160 HD
ENDBRANCH  23  24
ENDBRANCH  22  23
ENDBRANCH  21  22
ENDBRANCH  20  21
ENDBRANCH  19  20
ENDBRANCH  16  19
ENDBRANCH  14  15
ENDBRANCH  13  14
ENDBRANCH  12  13
ENDBRANCH   1  12
BRANCH  11  29
HETATM   29  N5  UNL     1     -11.302  15.599  27.259  1.00  0.00    -0.316 N 
HETATM   30  C28 UNL     1     -10.907  16.093  26.080  1.00  0.00     0.187 C 
HETATM   31  N6  UNL     1     -11.411  16.989  25.405  1.00  0.00    -0.373 N 
HETATM   32  N7  UNL     1      -9.713  15.475  25.464  1.00  0.00    -0.064 NA
ATOM     33  H62 UNL     1     -12.234  17.415  25.829  1.00  0.00     0.158 HD
ATOM     34  H61 UNL     1     -11.110  17.366  24.506  1.00  0.00     0.158 HD
ATOM     35  H5  UNL     1     -11.940  14.846  27.002  1.00  0.00     0.170 HD
ENDBRANCH  11  29
BRANCH   3  36
HETATM   36  S1  UNL     1     -11.611  15.123  33.047  1.00  0.00    -0.123 SA
BRANCH  36  37
HETATM   37  C14 UNL     1     -10.021  15.288  33.832  1.00  0.00     0.052 C 
HETATM   38  C15 UNL     1      -9.599  16.646  34.242  1.00  0.00     0.015 C 
HETATM   39  C16 UNL     1      -8.715  17.375  33.259  1.00  0.00     0.001 C 
HETATM   40  C17 UNL     1      -7.520  16.608  32.806  1.00  0.00     0.000 C 
HETATM   41  C18 UNL     1      -7.580  15.178  33.309  1.00  0.00     0.001 C 
HETATM   42  C19 UNL     1      -8.943  14.582  33.023  1.00  0.00     0.015 C 
ENDBRANCH  36  37
ENDBRANCH   3  36
TORSDOF 13
ENDMDL
MODEL 2
REMARK VINA RESULT: -9.021682874      2.855      9.382
REMARK  13 active torsions:
REMARK  status: ('A' for Active; 'I' for Inactive)
REMARK    1  A    between atoms: N2_4  and  C3_6 
REMARK    2  A    between atoms: C3_6  and  C4_7 
REMARK    3  A    between atoms: C4_7  and  C5_8 
REMARK    4  A    between atoms: C5_8  and  C6_9 
REMARK    5  A    between atoms: C6_9  and  C7_10 
REMARK    6  A    between atoms: C7_10  and  N3_11 
REMARK       I    between atoms: N3_11  and  C8_13 
REMARK    7  A    between atoms: C8_13  and  C9_15 
REMARK    8  A    between atoms: C9_15  and  C10_16 
REMARK    9  A    between atoms: C10_16  and  C11_17 
REMARK   10  A    between atoms: C11_17  and  N4_18 
REMARK   11  A    between atoms: C13_20  and  S1_21 
REMARK   12  A    between atoms: S1_21  and  C14_22 
REMARK   13  A    between atoms: C27_35  and  N5_36 
REMARK       I    between atoms: N5_36  and  C28_38 
ROOT
HETATM    1  N4  UNL     1      -9.029  17.712  26.313  1.00  0.00    -0.341 N 
HETATM    2  C12 UNL     1      -8.876  17.748  24.958  1.00  0.00     0.112 A 
HETATM    3  C13 UNL     1      -7.627  17.783  24.387  1.00  0.00     0.027 A 
HETATM    4  C20 UNL     1      -6.520  17.781  25.216  1.00  0.00    -0.004 A 
HETATM    5  C21 UNL     1      -5.230  17.803  24.675  1.00  0.00     0.020 A 
HETATM    6  C22 UNL     1      -4.145  17.789  25.513  1.00  0.00    -0.061 A 
HETATM    7  C23 UNL     1      -2.737  17.810  24.982  1.00  0.00     0.048 C 
HETATM    8  C24 UNL     1      -4.348  17.754  26.869  1.00  0.00     0.007 A 
HETATM    9  C25 UNL     1      -5.622  17.731  27.424  1.00  0.00     0.017 A 
HETATM   10  C26 UNL     1      -6.706  17.746  26.558  1.00  0.00     0.020 A 
HETATM   11  C27 UNL     1      -8.004  17.709  27.176  1.00  0.00     0.120 A 
ENDROOT
BRANCH   1  12
HETATM   12  C11 UNL     1     -10.410  17.648  26.823  1.00  0.00     0.130 C 
BRANCH  12  13
HETATM   13  C10 UNL     1     -11.022  16.438  26.206  1.00  0.00     0.029 C 
BRANCH  13  14
HETATM   14  C9  UNL     1     -10.860  15.155  26.933  1.00  0.00     0.104 C 
BRANCH  14  15
HETATM   15  C8  UNL     1     -12.036  14.675  27.678  1.00  0.00     0.217 C 
HETATM   16  N3  UNL     1     -12.075  13.336  28.142  1.00  0.00    -0.361 N 
ATOM     17  H3  UNL     1     -11.286  12.718  27.951  1.00  0.00     0.162 HD
HETATM   18  O1  UNL     1     -13.020  15.402  27.924  1.00  0.00    -0.274 OA
BRANCH  16  19
HETATM   19  C7  UNL     1     -13.217  12.827  28.884  1.00  0.00     0.122 C 
BRANCH  19  20
HETATM   20  C6  UNL     1     -12.846  12.453  30.290  1.00  0.00     0.020 C 
BRANCH  20  21
HETATM   21  C5  UNL     1     -12.929  13.546  31.286  1.00  0.00     0.003 C 
BRANCH  21  22
HETATM   22  C4  UNL     1     -11.822  14.519  31.368  1.00  0.00     0.020 C 
BRANCH  22  23
HETATM   23  C3  UNL     1     -11.282  14.850  32.709  1.00  0.00     0.120 C 
BRANCH  23  24
HETATM   24  N2  UNL     1     -10.142  15.714  32.751  1.00  0.00    -0.382 N 
HETATM   25  C2  UNL     1      -9.902  16.526  33.724  1.00  0.00     0.085 C 
HETATM   26  C1  UNL     1      -8.693  17.388  33.685  1.00  0.00     0.085 C 
HETATM   27  N1  UNL     1     -10.750  16.650  34.865  1.00  0.00    -0.088 NA
ATOM     28  H2  UNL     1      -9.485  15.686  31.971  1.00  0.00     0.160 HD
ENDBRANCH  23  24
ENDBRANCH  22  23
ENDBRANCH  21  22
ENDBRANCH  20  21
ENDBRANCH  19  20
ENDBRANCH  16  19
ENDBRANCH  14  15
ENDBRANCH  13  14
ENDBRANCH  12  13
ENDBRANCH   1  12
BRANCH  11  29
HETATM   29  N5  UNL     1      -8.044  17.700  28.398  1.00  0.00    -0.316 N 
HETATM   30  C28 UNL     1      -8.636  17.430  29.567  1.00  0.00     0.187 C 
HETATM   31  N6  UNL     1      -9.380  18.139  30.243  1.00  0.00    -0.373 N 
HETATM   32  N7  UNL     1      -8.350  16.111  30.170  1.00  0.00    -0.064 NA
ATOM     33  H62 UNL     1      -9.577  19.049  29.828  1.00  0.00     0.158 HD
ATOM     34  H61 UNL     1      -9.831  17.933  31.134  1.00  0.00     0.158 HD
ATOM     35  H5  UNL     1      -7.155  18.121  28.670  1.00  0.00     0.170 HD
ENDBRANCH  11  29
BRANCH   3  36
HETATM   36  S1  UNL     1      -7.396  17.800  22.620  1.00  0.00    -0.123 SA
BRANCH  36  37
HETATM   37  C14 UNL     1      -8.198  16.423  21.823  1.00  0.00     0.052 C 
HETATM   38  C15 UNL     1      -9.564  16.639  21.296  1.00  0.00     0.015 C 
HETATM   39  C16 UNL     1     -10.688  16.216  22.212  1.00  0.00     0.001 C 
HETATM   40  C17 UNL     1     -10.579  14.823  22.731  1.00  0.00     0.000 C 
HETATM   41  C18 UNL     1      -9.241  14.215  22.356  1.00  0.00     0.001 C 
HETATM   42  C19 UNL     1      -8.119  15.175  22.692  1.00  0.00     0.015 C 
ENDBRANCH  36  37
ENDBRANCH   3  36
TORSDOF 13
ENDMDL
MODEL 3
REMARK VINA RESULT: -8.968947898      2.925      9.476
REMARK  13 active torsions:
REMARK  status: ('A' for Active; 'I' for Inactive)
REMARK    1  A    between atoms: N2_4  and  C3_6 
REMARK    2  A    between atoms: C3_6  and  C4_7 
REMARK    3  A    between atoms: C4_7  and  C5_8 
REMARK    4  A    between atoms: C5_8  and  C6_9 
REMARK    5  A    between atoms: C6_9  and  C7_10 
REMARK    6  A    between atoms: C7_10  and  N3_11 
REMARK       I    between atoms: N3_11  and  C8_13 
REMARK    7  A    between atoms: C8_13  and  C9_15 
REMARK    8  A    between atoms: C9_15  and  C10_16 
REMARK    9  A    between atoms: C10_16  and  C11_17 
REMARK   10  A    between atoms: C11_17  and  N4_18 
REMARK   11  A    between atoms: C13_20  and  S1_21 
REMARK   12  A    between atoms: S1_21  and  C14_22 
REMARK   13  A    between atoms: C27_35  and  N5_36 
REMARK       I    between atoms: N5_36  and  C28_38 
ROOT
HETATM    1  N4  UNL     1      -9.280  17.532  26.134  1.00  0.00    -0.341 N 
HETATM    2  C12 UNL     1      -8.938  17.452  24.816  1.00  0.00     0.112 A 
HETATM    3  C13 UNL     1      -7.635  17.618  24.411  1.00  0.00     0.027 A 
HETATM    4  C20 UNL     1      -6.671  17.867  25.371  1.00  0.00    -0.004 A 
HETATM    5  C21 UNL     1      -5.331  18.028  25.003  1.00  0.00     0.020 A 
HETATM    6  C22 UNL     1      -4.387  18.263  25.970  1.00  0.00    -0.061 A 
HETATM    7  C23 UNL     1      -2.933  18.442  25.626  1.00  0.00     0.048 C 
HETATM    8  C24 UNL     1      -4.779  18.335  27.282  1.00  0.00     0.007 A 
HETATM    9  C25 UNL     1      -6.105  18.177  27.667  1.00  0.00     0.017 A 
HETATM   10  C26 UNL     1      -7.044  17.940  26.672  1.00  0.00     0.020 A 
HETATM   11  C27 UNL     1      -8.401  17.771  27.117  1.00  0.00     0.120 A 
ENDROOT
BRANCH   1  12
HETATM   12  C11 UNL     1     -10.699  17.312  26.466  1.00  0.00     0.130 C 
BRANCH  12  13
HETATM   13  C10 UNL     1     -10.962  15.867  26.215  1.00  0.00     0.029 C 
BRANCH  13  14
HETATM   14  C9  UNL     1     -10.595  14.919  27.294  1.00  0.00     0.104 C 
BRANCH  14  15
HETATM   15  C8  UNL     1     -11.665  14.563  28.241  1.00  0.00     0.217 C 
HETATM   16  N3  UNL     1     -12.363  13.338  28.085  1.00  0.00    -0.361 N 
ATOM     17  H3  UNL     1     -12.116  12.717  27.313  1.00  0.00     0.162 HD
HETATM   18  O1  UNL     1     -11.996  15.300  29.192  1.00  0.00    -0.274 OA
BRANCH  16  19
HETATM   19  C7  UNL     1     -13.423  12.950  29.002  1.00  0.00     0.122 C 
BRANCH  19  20
HETATM   20  C6  UNL     1     -12.890  12.184  30.178  1.00  0.00     0.020 C 
BRANCH  20  21
HETATM   21  C5  UNL     1     -13.573  12.435  31.467  1.00  0.00     0.003 C 
BRANCH  21  22
HETATM   22  C4  UNL     1     -14.602  13.492  31.535  1.00  0.00     0.020 C 
BRANCH  22  23
HETATM   23  C3  UNL     1     -14.258  14.756  32.229  1.00  0.00     0.120 C 
BRANCH  23  24
HETATM   24  N2  UNL     1     -12.900  15.195  32.137  1.00  0.00    -0.382 N 
HETATM   25  C2  UNL     1     -12.148  15.398  33.166  1.00  0.00     0.085 C 
HETATM   26  C1  UNL     1     -10.747  15.853  32.978  1.00  0.00     0.085 C 
HETATM   27  N1  UNL     1     -12.592  15.205  34.508  1.00  0.00    -0.088 NA
ATOM     28  H2  UNL     1     -12.505  15.356  31.210  1.00  0.00     0.160 HD
ENDBRANCH  23  24
ENDBRANCH  22  23
ENDBRANCH  21  22
ENDBRANCH  20  21
ENDBRANCH  19  20
ENDBRANCH  16  19
ENDBRANCH  14  15
ENDBRANCH  13  14
ENDBRANCH  12  13
ENDBRANCH   1  12
BRANCH  11  29
HETATM   29  N5  UNL     1      -8.616  17.880  28.316  1.00  0.00    -0.316 N 
HETATM   30  C28 UNL     1      -9.183  17.490  29.462  1.00  0.00     0.187 C 
HETATM   31  N6  UNL     1     -10.264  17.821  29.947  1.00  0.00    -0.373 N 
HETATM   32  N7  UNL     1      -8.411  16.549  30.301  1.00  0.00    -0.064 NA
ATOM     33  H62 UNL     1     -10.797  18.470  29.368  1.00  0.00     0.158 HD
ATOM     34  H61 UNL     1     -10.697  17.523  30.821  1.00  0.00     0.158 HD
ATOM     35  H5  UNL     1      -8.078  18.705  28.582  1.00  0.00     0.170 HD
ENDBRANCH  11  29
BRANCH   3  36
HETATM   36  S1  UNL     1      -7.155  17.490  22.700  1.00  0.00    -0.123 SA
BRANCH  36  37
HETATM   37  C14 UNL     1      -8.001  16.167  21.861  1.00  0.00     0.052 C 
HETATM   38  C15 UNL     1      -9.226  16.511  21.104  1.00  0.00     0.015 C 
HETATM   39  C16 UNL     1     -10.526  16.304  21.843  1.00  0.00     0.001 C 
HETATM   40  C17 UNL     1     -10.690  14.952  22.450  1.00  0.00     0.000 C 
HETATM   41  C18 UNL     1      -9.405  14.154  22.335  1.00  0.00     0.001 C 
HETATM   42  C19 UNL     1      -8.230  14.990  22.798  1.00  0.00     0.015 C 
ENDBRANCH  36  37
ENDBRANCH   3  36
TORSDOF 13
ENDMDL
MODEL 4
REMARK VINA RESULT: -8.745232243      3.130      9.299
REMARK  13 active torsions:
REMARK  status: ('A' for Active; 'I' for Inactive)
REMARK    1  A    between atoms: N2_4  and  C3_6 
REMARK    2  A    between atoms: C3_6  and  C4_7 
REMARK    3  A    between atoms: C4_7  and  C5_8 
REMARK    4  A    between atoms: C5_8  and  C6_9 
REMARK    5  A    between atoms: C6_9  and  C7_10 
REMARK    6  A    between atoms: C7_10  and  N3_11 
REMARK       I    between atoms: N3_11  and  C8_13 
REMARK    7  A    between atoms: C8_13  and  C9_15 
REMARK    8  A    between atoms: C9_15  and  C10_16 
REMARK    9  A    between atoms: C10_16  and  C11_17 
REMARK   10  A    between atoms: C11_17  and  N4_18 
REMARK   11  A    between atoms: C13_20  and  S1_21 
REMARK   12  A    between atoms: S1_21  and  C14_22 
REMARK   13  A    between atoms: C27_35  and  N5_36 
REMARK       I    between atoms: N5_36  and  C28_38 
ROOT
HETATM    1  N4  UNL     1      -9.053  17.725  26.197  1.00  0.00    -0.341 N 
HETATM    2  C12 UNL     1      -8.842  17.694  24.850  1.00  0.00     0.112 A 
HETATM    3  C13 UNL     1      -7.572  17.750  24.330  1.00  0.00     0.027 A 
HETATM    4  C20 UNL     1      -6.503  17.840  25.204  1.00  0.00    -0.004 A 
HETATM    5  C21 UNL     1      -5.193  17.886  24.718  1.00  0.00     0.020 A 
HETATM    6  C22 UNL     1      -4.146  17.963  25.600  1.00  0.00    -0.061 A 
HETATM    7  C23 UNL     1      -2.717  18.014  25.127  1.00  0.00     0.048 C 
HETATM    8  C24 UNL     1      -4.407  17.993  26.946  1.00  0.00     0.007 A 
HETATM    9  C25 UNL     1      -5.702  17.947  27.448  1.00  0.00     0.017 A 
HETATM   10  C26 UNL     1      -6.747  17.869  26.538  1.00  0.00     0.020 A 
HETATM   11  C27 UNL     1      -8.068  17.812  27.102  1.00  0.00     0.120 A 
ENDROOT
BRANCH   1  12
HETATM   12  C11 UNL     1     -10.452  17.631  26.653  1.00  0.00     0.130 C 
BRANCH  12  13
HETATM   13  C10 UNL     1     -11.014  16.412  26.006  1.00  0.00     0.029 C 
BRANCH  13  14
HETATM   14  C9  UNL     1     -10.625  15.103  26.584  1.00  0.00     0.104 C 
BRANCH  14  15
HETATM   15  C8  UNL     1     -11.364  14.674  27.783  1.00  0.00     0.217 C 
HETATM   16  N3  UNL     1     -10.746  14.759  29.057  1.00  0.00    -0.361 N 
ATOM     17  H3  UNL     1      -9.792  15.114  29.127  1.00  0.00     0.162 HD
HETATM   18  O1  UNL     1     -12.529  14.230  27.734  1.00  0.00    -0.274 OA
BRANCH  16  19
HETATM   19  C7  UNL     1     -11.445  14.349  30.265  1.00  0.00     0.122 C 
BRANCH  19  20
HETATM   20  C6  UNL     1     -10.671  14.699  31.503  1.00  0.00     0.020 C 
BRANCH  20  21
HETATM   21  C5  UNL     1     -11.321  15.672  32.410  1.00  0.00     0.003 C 
BRANCH  21  22
HETATM   22  C4  UNL     1     -11.930  15.182  33.662  1.00  0.00     0.020 C 
BRANCH  22  23
HETATM   23  C3  UNL     1     -13.389  14.915  33.670  1.00  0.00     0.120 C 
BRANCH  23  24
HETATM   24  N2  UNL     1     -14.112  15.243  32.480  1.00  0.00    -0.382 N 
HETATM   25  C2  UNL     1     -14.790  14.381  31.801  1.00  0.00     0.085 C 
HETATM   26  C1  UNL     1     -15.512  14.809  30.576  1.00  0.00     0.085 C 
HETATM   27  N1  UNL     1     -14.890  13.005  32.164  1.00  0.00    -0.088 NA
ATOM     28  H2  UNL     1     -14.092  16.209  32.153  1.00  0.00     0.160 HD
ENDBRANCH  23  24
ENDBRANCH  22  23
ENDBRANCH  21  22
ENDBRANCH  20  21
ENDBRANCH  19  20
ENDBRANCH  16  19
ENDBRANCH  14  15
ENDBRANCH  13  14
ENDBRANCH  12  13
ENDBRANCH   1  12
BRANCH  11  29
HETATM   29  N5  UNL     1      -8.161  17.867  28.320  1.00  0.00    -0.316 N 
HETATM   30  C28 UNL     1      -8.706  17.511  29.488  1.00  0.00     0.187 C 
HETATM   31  N6  UNL     1      -9.652  18.016  30.091  1.00  0.00    -0.373 N 
HETATM   32  N7  UNL     1      -8.084  16.370  30.193  1.00  0.00    -0.064 NA
ATOM     33  H62 UNL     1     -10.081  18.803  29.605  1.00  0.00     0.158 HD
ATOM     34  H61 UNL     1     -10.067  17.744  30.982  1.00  0.00     0.158 HD
ATOM     35  H5  UNL     1      -7.444  18.542  28.584  1.00  0.00     0.170 HD
ENDBRANCH  11  29
BRANCH   3  36
HETATM   36  S1  UNL     1      -7.264  17.681  22.576  1.00  0.00    -0.123 SA
BRANCH  36  37
HETATM   37  C14 UNL     1      -8.099  16.312  21.801  1.00  0.00     0.052 C 
HETATM   38  C15 UNL     1      -9.412  16.579  21.173  1.00  0.00     0.015 C 
HETATM   39  C16 UNL     1     -10.617  16.276  22.031  1.00  0.00     0.001 C 
HETATM   40  C17 UNL     1     -10.629  14.910  22.629  1.00  0.00     0.000 C 
HETATM   41  C18 UNL     1      -9.311  14.203  22.376  1.00  0.00     0.001 C 
HETATM   42  C19 UNL     1      -8.155  15.112  22.736  1.00  0.00     0.015 C 
ENDBRANCH  36  37
ENDBRANCH   3  36
TORSDOF 13
ENDMDL
MODEL 5
REMARK VINA RESULT: -8.685876787      1.442      2.585
REMARK  13 active torsions:
REMARK  status: ('A' for Active; 'I' for Inactive)
REMARK    1  A    between atoms: N2_4  and  C3_6 
REMARK    2  A    between atoms: C3_6  and  C4_7 
REMARK    3  A    between atoms: C4_7  and  C5_8 
REMARK    4  A    between atoms: C5_8  and  C6_9 
REMARK    5  A    between atoms: C6_9  and  C7_10 
REMARK    6  A    between atoms: C7_10  and  N3_11 
REMARK       I    between atoms: N3_11  and  C8_13 
REMARK    7  A    between atoms: C8_13  and  C9_15 
REMARK    8  A    between atoms: C9_15  and  C10_16 
REMARK    9  A    between atoms: C10_16  and  C11_17 
REMARK   10  A    between atoms: C11_17  and  N4_18 
REMARK   11  A    between atoms: C13_20  and  S1_21 
REMARK   12  A    between atoms: S1_21  and  C14_22 
REMARK   13  A    between atoms: C27_35  and  N5_36 
REMARK       I    between atoms: N5_36  and  C28_38 
ROOT
HETATM    1  N4  UNL     1     -10.904  16.493  29.443  1.00  0.00    -0.341 N 
HETATM    2  C12 UNL     1     -10.919  16.321  30.796  1.00  0.00     0.112 A 
HETATM    3  C13 UNL     1     -11.557  15.247  31.367  1.00  0.00     0.027 A 
HETATM    4  C20 UNL     1     -12.188  14.337  30.540  1.00  0.00    -0.004 A 
HETATM    5  C21 UNL     1     -12.839  13.222  31.079  1.00  0.00     0.020 A 
HETATM    6  C22 UNL     1     -13.449  12.323  30.241  1.00  0.00    -0.061 A 
HETATM    7  C23 UNL     1     -14.160  11.107  30.771  1.00  0.00     0.048 C 
HETATM    8  C24 UNL     1     -13.408  12.538  28.887  1.00  0.00     0.007 A 
HETATM    9  C25 UNL     1     -12.767  13.640  28.334  1.00  0.00     0.017 A 
HETATM   10  C26 UNL     1     -12.156  14.536  29.199  1.00  0.00     0.020 A 
HETATM   11  C27 UNL     1     -11.494  15.654  28.581  1.00  0.00     0.120 A 
ENDROOT
BRANCH   1  12
HETATM   12  C11 UNL     1     -10.169  17.662  28.931  1.00  0.00     0.130 C 
BRANCH  12  13
HETATM   13  C10 UNL     1      -8.751  17.473  29.348  1.00  0.00     0.029 C 
BRANCH  13  14
HETATM   14  C9  UNL     1      -7.704  17.933  28.403  1.00  0.00     0.104 C 
BRANCH  14  15
HETATM   15  C8  UNL     1      -7.509  17.113  27.196  1.00  0.00     0.217 C 
HETATM   16  N3  UNL     1      -7.689  17.694  25.915  1.00  0.00    -0.361 N 
ATOM     17  H3  UNL     1      -7.955  18.676  25.845  1.00  0.00     0.162 HD
HETATM   18  O1  UNL     1      -7.189  15.907  27.245  1.00  0.00    -0.274 OA
BRANCH  16  19
HETATM   19  C7  UNL     1      -7.501  16.917  24.700  1.00  0.00     0.122 C 
BRANCH  19  20
HETATM   20  C6  UNL     1      -7.993  17.651  23.487  1.00  0.00     0.020 C 
BRANCH  20  21
HETATM   21  C5  UNL     1      -7.033  18.600  22.880  1.00  0.00     0.003 C 
BRANCH  21  22
HETATM   22  C4  UNL     1      -5.663  18.136  22.584  1.00  0.00     0.020 C 
BRANCH  22  23
HETATM   23  C3  UNL     1      -4.535  18.794  23.287  1.00  0.00     0.120 C 
BRANCH  23  24
HETATM   24  N2  UNL     1      -4.087  18.183  24.501  1.00  0.00    -0.382 N 
HETATM   25  C2  UNL     1      -4.413  18.611  25.673  1.00  0.00     0.085 C 
HETATM   26  C1  UNL     1      -3.901  17.915  26.882  1.00  0.00     0.085 C 
HETATM   27  N1  UNL     1      -5.257  19.742  25.885  1.00  0.00    -0.088 NA
ATOM     28  H2  UNL     1      -3.478  17.367  24.436  1.00  0.00     0.160 HD
ENDBRANCH  23  24
ENDBRANCH  22  23
ENDBRANCH  21  22
ENDBRANCH  20  21
ENDBRANCH  19  20
ENDBRANCH  16  19
ENDBRANCH  14  15
ENDBRANCH  13  14
ENDBRANCH  12  13
ENDBRANCH   1  12
BRANCH  11  29
HETATM   29  N5  UNL     1     -11.552  15.736  27.363  1.00  0.00    -0.316 N 
HETATM   30  C28 UNL     1     -11.121  16.187  26.180  1.00  0.00     0.187 C 
HETATM   31  N6  UNL     1     -11.451  17.201  25.567  1.00  0.00    -0.373 N 
HETATM   32  N7  UNL     1     -10.126  15.354  25.471  1.00  0.00    -0.064 NA
ATOM     33  H62 UNL     1     -12.137  17.776  26.055  1.00  0.00     0.158 HD
ATOM     34  H61 UNL     1     -11.122  17.545  24.665  1.00  0.00     0.158 HD
ATOM     35  H5  UNL     1     -12.352  15.152  27.120  1.00  0.00     0.170 HD
ENDBRANCH  11  29
BRANCH   3  36
HETATM   36  S1  UNL     1     -11.567  14.981  33.129  1.00  0.00    -0.123 SA
BRANCH  36  37
HETATM   37  C14 UNL     1      -9.956  15.209  33.853  1.00  0.00     0.052 C 
HETATM   38  C15 UNL     1      -9.573  16.582  34.252  1.00  0.00     0.015 C 
HETATM   39  C16 UNL     1      -8.758  17.349  33.238  1.00  0.00     0.001 C 
HETATM   40  C17 UNL     1      -7.552  16.632  32.736  1.00  0.00     0.000 C 
HETATM   41  C18 UNL     1      -7.534  15.199  33.235  1.00  0.00     0.001 C 
HETATM   42  C19 UNL     1      -8.882  14.549  33.000  1.00  0.00     0.015 C 
ENDBRANCH  36  37
ENDBRANCH   3  36
TORSDOF 13
ENDMDL
