MODEL 1
REMARK VINA RESULT: -7.791164540      0.000      0.000
REMARK  13 active torsions:
REMARK  status: ('A' for Active; 'I' for Inactive)
REMARK    1  A    between atoms: C4_6  and  C5_7 
REMARK    2  A    between atoms: C5_7  and  C6_8 
REMARK    3  A    between atoms: C10_15  and  C11_16 
REMARK    4  A    between atoms: C11_16  and  C12_17 
REMARK    5  A    between atoms: C16_24  and  C18_26 
REMARK    6  A    between atoms: C18_26  and  O3_27 
REMARK    7  A    between atoms: C19_31  and  O4_32 
REMARK    8  A    between atoms: N6_38  and  C22_39 
REMARK    9  A    between atoms: C22_39  and  C23_40 
REMARK   10  A    between atoms: N7_43  and  C26_44 
REMARK   11  A    between atoms: C26_44  and  C27_45 
REMARK   12  A    between atoms: C27_45  and  C28_46 
REMARK   13  A    between atoms: C28_46  and  C29_47 
ROOT
HETATM    1  C1  UNL     1      26.400  21.949   7.440  1.00  0.00     0.065 C 
HETATM    2  C2  UNL     1      25.868  22.247   6.259  1.00  0.00     0.113 C 
HETATM    3  N1  UNL     1      25.844  23.604   5.866  1.00  0.00    -0.374 N 
ATOM      4  H1  UNL     1      25.467  23.893   4.963  1.00  0.00     0.161 HD
HETATM    5  C3  UNL     1      26.374  24.546   6.792  1.00  0.00     0.146 C 
HETATM    6  C4  UNL     1      26.516  25.925   6.123  1.00  0.00     0.102 C 
HETATM    7  N2  UNL     1      25.352  26.761   6.278  1.00  0.00    -0.353 N 
ATOM      8  H2  UNL     1      25.111  27.014   7.236  1.00  0.00     0.163 HD
HETATM    9  C9  UNL     1      24.500  27.274   5.271  1.00  0.00     0.240 C 
HETATM   10  O1  UNL     1      24.510  28.551   5.136  1.00  0.00    -0.271 OA
HETATM   11  C10 UNL     1      23.613  26.515   4.372  1.00  0.00     0.177 C 
HETATM   12  N3  UNL     1      23.656  26.932   2.978  1.00  0.00    -0.346 N 
ATOM     13  H3  UNL     1      23.999  27.876   2.799  1.00  0.00     0.163 HD
HETATM   14  C15 UNL     1      23.280  26.183   1.851  1.00  0.00     0.248 C 
HETATM   15  O2  UNL     1      22.413  26.677   1.070  1.00  0.00    -0.271 OA
HETATM   16  C16 UNL     1      23.799  24.818   1.441  1.00  0.00     0.131 C 
HETATM   17  C17 UNL     1      23.336  24.586  -0.048  1.00  0.00     0.051 C 
HETATM   18  N4  UNL     1      23.123  23.780   2.136  1.00  0.00    -0.350 N 
ATOM     19  H4  UNL     1      22.141  23.799   1.864  1.00  0.00     0.163 HD
HETATM   20  C19 UNL     1      23.302  22.776   3.027  1.00  0.00     0.161 C 
HETATM   21  C20 UNL     1      24.201  21.629   3.256  1.00  0.00     0.073 C 
HETATM   22  C21 UNL     1      25.387  21.476   2.407  1.00  0.00     0.074 C 
HETATM   23  N5  UNL     1      24.259  21.342   4.615  1.00  0.00    -0.293 N 
ATOM     24  H5  UNL     1      23.353  21.216   5.067  1.00  0.00     0.187 HD
HETATM   25  N6  UNL     1      25.310  21.205   5.419  1.00  0.00    -0.251 N 
ENDROOT
BRANCH  25  26
HETATM   26  C22 UNL     1      25.941  19.932   5.577  1.00  0.00     0.130 C 
BRANCH  26  27
HETATM   27  C23 UNL     1      25.172  18.719   5.561  1.00  0.00    -0.010 A 
HETATM   28  C24 UNL     1      24.632  18.113   4.490  1.00  0.00     0.030 A 
HETATM   29  C25 UNL     1      23.904  16.920   4.556  1.00  0.00     0.091 A 
HETATM   30  N7  UNL     1      23.716  16.328   5.736  1.00  0.00    -0.366 N 
HETATM   31  C31 UNL     1      24.250  16.921   6.828  1.00  0.00     0.098 A 
HETATM   32  C32 UNL     1      24.969  18.089   6.800  1.00  0.00    -0.035 A 
HETATM   33  C33 UNL     1      25.527  18.693   8.047  1.00  0.00     0.050 C 
BRANCH  30  34
HETATM   34  C26 UNL     1      22.973  15.062   5.887  1.00  0.00     0.128 C 
BRANCH  34  35
HETATM   35  C27 UNL     1      21.518  15.235   5.654  1.00  0.00     0.020 C 
BRANCH  35  36
HETATM   36  C28 UNL     1      21.112  14.346   4.494  1.00  0.00     0.001 C 
BRANCH  36  37
HETATM   37  C29 UNL     1      20.837  15.134   3.241  1.00  0.00    -0.004 C 
HETATM   38  C30 UNL     1      19.574  14.704   2.542  1.00  0.00     0.005 C 
ENDBRANCH  36  37
ENDBRANCH  35  36
ENDBRANCH  34  35
ENDBRANCH  30  34
ENDBRANCH  26  27
ENDBRANCH  25  26
BRANCH  20  39
HETATM   39  O4  UNL     1      22.408  22.789   4.013  1.00  0.00    -0.345 OA
ATOM     40  H4  UNL     1      22.118  21.920   4.265  1.00  0.00     0.219 HD
ENDBRANCH  20  39
BRANCH   6  41
HETATM   41  C5  UNL     1      27.809  26.584   6.390  1.00  0.00     0.030 C 
BRANCH  41  42
HETATM   42  C6  UNL     1      28.377  26.566   7.746  1.00  0.00    -0.021 C 
HETATM   43  C7  UNL     1      29.903  26.747   7.570  1.00  0.00     0.009 C 
HETATM   44  C8  UNL     1      27.978  27.714   8.648  1.00  0.00     0.009 C 
ENDBRANCH  41  42
ENDBRANCH   6  41
BRANCH  16  45
HETATM   45  C18 UNL     1      25.259  24.834   1.281  1.00  0.00     0.204 C 
BRANCH  45  46
HETATM   46  O3  UNL     1      25.912  26.035   1.227  1.00  0.00    -0.398 OA
ATOM     47  H3  UNL     1      26.748  26.090   0.777  1.00  0.00     0.209 HD
ENDBRANCH  45  46
ENDBRANCH  16  45
BRANCH  11  48
HETATM   48  C11 UNL     1      22.242  26.279   4.885  1.00  0.00     0.038 C 
BRANCH  48  49
HETATM   49  C12 UNL     1      21.091  26.198   3.982  1.00  0.00    -0.020 C 
HETATM   50  C13 UNL     1      20.021  25.389   4.777  1.00  0.00     0.009 C 
HETATM   51  C14 UNL     1      20.392  27.479   3.640  1.00  0.00     0.009 C 
ENDBRANCH  48  49
ENDBRANCH  11  48
TORSDOF 13
ENDMDL
MODEL 2
REMARK VINA RESULT: -7.706203123      1.071      1.581
REMARK  13 active torsions:
REMARK  status: ('A' for Active; 'I' for Inactive)
REMARK    1  A    between atoms: C4_6  and  C5_7 
REMARK    2  A    between atoms: C5_7  and  C6_8 
REMARK    3  A    between atoms: C10_15  and  C11_16 
REMARK    4  A    between atoms: C11_16  and  C12_17 
REMARK    5  A    between atoms: C16_24  and  C18_26 
REMARK    6  A    between atoms: C18_26  and  O3_27 
REMARK    7  A    between atoms: C19_31  and  O4_32 
REMARK    8  A    between atoms: N6_38  and  C22_39 
REMARK    9  A    between atoms: C22_39  and  C23_40 
REMARK   10  A    between atoms: N7_43  and  C26_44 
REMARK   11  A    between atoms: C26_44  and  C27_45 
REMARK   12  A    between atoms: C27_45  and  C28_46 
REMARK   13  A    between atoms: C28_46  and  C29_47 
ROOT
HETATM    1  C1  UNL     1      26.435  21.943   7.450  1.00  0.00     0.065 C 
HETATM    2  C2  UNL     1      25.895  22.236   6.271  1.00  0.00     0.113 C 
HETATM    3  N1  UNL     1      25.868  23.592   5.873  1.00  0.00    -0.374 N 
ATOM      4  H1  UNL     1      25.485  23.877   4.971  1.00  0.00     0.161 HD
HETATM    5  C3  UNL     1      26.400  24.538   6.793  1.00  0.00     0.146 C 
HETATM    6  C4  UNL     1      26.537  25.915   6.118  1.00  0.00     0.102 C 
HETATM    7  N2  UNL     1      25.372  26.749   6.277  1.00  0.00    -0.353 N 
ATOM      8  H2  UNL     1      25.136  27.006   7.235  1.00  0.00     0.163 HD
HETATM    9  C9  UNL     1      24.514  27.257   5.272  1.00  0.00     0.240 C 
HETATM   10  O1  UNL     1      24.521  28.533   5.133  1.00  0.00    -0.271 OA
HETATM   11  C10 UNL     1      23.623  26.493   4.381  1.00  0.00     0.177 C 
HETATM   12  N3  UNL     1      23.658  26.906   2.985  1.00  0.00    -0.346 N 
ATOM     13  H3  UNL     1      23.998  27.850   2.801  1.00  0.00     0.163 HD
HETATM   14  C15 UNL     1      23.277  26.153   1.863  1.00  0.00     0.248 C 
HETATM   15  O2  UNL     1      22.405  26.641   1.085  1.00  0.00    -0.271 OA
HETATM   16  C16 UNL     1      23.796  24.786   1.455  1.00  0.00     0.131 C 
HETATM   17  C17 UNL     1      23.326  24.548  -0.031  1.00  0.00     0.051 C 
HETATM   18  N4  UNL     1      23.126  23.750   2.157  1.00  0.00    -0.350 N 
ATOM     19  H4  UNL     1      22.142  23.766   1.890  1.00  0.00     0.163 HD
HETATM   20  C19 UNL     1      23.311  22.749   3.051  1.00  0.00     0.161 C 
HETATM   21  C20 UNL     1      24.214  21.605   3.279  1.00  0.00     0.073 C 
HETATM   22  C21 UNL     1      25.396  21.450   2.424  1.00  0.00     0.074 C 
HETATM   23  N5  UNL     1      24.279  21.322   4.639  1.00  0.00    -0.293 N 
ATOM     24  H5  UNL     1      23.376  21.197   5.096  1.00  0.00     0.187 HD
HETATM   25  N6  UNL     1      25.335  21.190   5.438  1.00  0.00    -0.251 N 
ENDROOT
BRANCH  25  26
HETATM   26  C22 UNL     1      25.970  19.919   5.597  1.00  0.00     0.130 C 
BRANCH  26  27
HETATM   27  C23 UNL     1      25.195  18.712   5.679  1.00  0.00    -0.010 A 
HETATM   28  C24 UNL     1      24.604  18.055   4.665  1.00  0.00     0.030 A 
HETATM   29  C25 UNL     1      23.874  16.873   4.826  1.00  0.00     0.091 A 
HETATM   30  N7  UNL     1      23.738  16.343   6.042  1.00  0.00    -0.366 N 
HETATM   31  C31 UNL     1      24.323  16.988   7.077  1.00  0.00     0.098 A 
HETATM   32  C32 UNL     1      25.046  18.148   6.956  1.00  0.00    -0.035 A 
HETATM   33  C33 UNL     1      25.662  18.812   8.144  1.00  0.00     0.050 C 
BRANCH  30  34
HETATM   34  C26 UNL     1      22.997  15.091   6.292  1.00  0.00     0.128 C 
BRANCH  34  35
HETATM   35  C27 UNL     1      22.658  14.918   7.727  1.00  0.00     0.020 C 
BRANCH  35  36
HETATM   36  C28 UNL     1      23.060  13.517   8.146  1.00  0.00     0.001 C 
BRANCH  36  37
HETATM   37  C29 UNL     1      21.877  12.686   8.564  1.00  0.00    -0.004 C 
HETATM   38  C30 UNL     1      20.894  13.448   9.414  1.00  0.00     0.005 C 
ENDBRANCH  36  37
ENDBRANCH  35  36
ENDBRANCH  34  35
ENDBRANCH  30  34
ENDBRANCH  26  27
ENDBRANCH  25  26
BRANCH  20  39
HETATM   39  O4  UNL     1      22.423  22.765   4.042  1.00  0.00    -0.345 OA
ATOM     40  H4  UNL     1      21.889  21.979   4.076  1.00  0.00     0.219 HD
ENDBRANCH  20  39
BRANCH   6  41
HETATM   41  C5  UNL     1      27.830  26.577   6.376  1.00  0.00     0.030 C 
BRANCH  41  42
HETATM   42  C6  UNL     1      28.405  26.565   7.729  1.00  0.00    -0.021 C 
HETATM   43  C7  UNL     1      29.918  26.831   7.550  1.00  0.00     0.009 C 
HETATM   44  C8  UNL     1      27.949  27.674   8.653  1.00  0.00     0.009 C 
ENDBRANCH  41  42
ENDBRANCH   6  41
BRANCH  16  45
HETATM   45  C18 UNL     1      25.255  24.805   1.287  1.00  0.00     0.204 C 
BRANCH  45  46
HETATM   46  O3  UNL     1      25.903  26.007   1.194  1.00  0.00    -0.398 OA
ATOM     47  H3  UNL     1      26.852  26.028   1.239  1.00  0.00     0.209 HD
ENDBRANCH  45  46
ENDBRANCH  16  45
BRANCH  11  48
HETATM   48  C11 UNL     1      22.255  26.257   4.903  1.00  0.00     0.038 C 
BRANCH  48  49
HETATM   49  C12 UNL     1      21.101  26.164   4.005  1.00  0.00    -0.020 C 
HETATM   50  C13 UNL     1      20.042  25.347   4.807  1.00  0.00     0.009 C 
HETATM   51  C14 UNL     1      20.389  27.438   3.665  1.00  0.00     0.009 C 
ENDBRANCH  48  49
ENDBRANCH  11  48
TORSDOF 13
ENDMDL
MODEL 3
REMARK VINA RESULT: -7.664977427      0.570      1.213
REMARK  13 active torsions:
REMARK  status: ('A' for Active; 'I' for Inactive)
REMARK    1  A    between atoms: C4_6  and  C5_7 
REMARK    2  A    between atoms: C5_7  and  C6_8 
REMARK    3  A    between atoms: C10_15  and  C11_16 
REMARK    4  A    between atoms: C11_16  and  C12_17 
REMARK    5  A    between atoms: C16_24  and  C18_26 
REMARK    6  A    between atoms: C18_26  and  O3_27 
REMARK    7  A    between atoms: C19_31  and  O4_32 
REMARK    8  A    between atoms: N6_38  and  C22_39 
REMARK    9  A    between atoms: C22_39  and  C23_40 
REMARK   10  A    between atoms: N7_43  and  C26_44 
REMARK   11  A    between atoms: C26_44  and  C27_45 
REMARK   12  A    between atoms: C27_45  and  C28_46 
REMARK   13  A    between atoms: C28_46  and  C29_47 
ROOT
HETATM    1  C1  UNL     1      26.357  21.687   7.175  1.00  0.00     0.065 C 
HETATM    2  C2  UNL     1      25.822  22.065   6.018  1.00  0.00     0.113 C 
HETATM    3  N1  UNL     1      25.832  23.442   5.702  1.00  0.00    -0.374 N 
ATOM      4  H1  UNL     1      25.454  23.792   4.820  1.00  0.00     0.161 HD
HETATM    5  C3  UNL     1      26.395  24.316   6.674  1.00  0.00     0.146 C 
HETATM    6  C4  UNL     1      26.569  25.727   6.081  1.00  0.00     0.102 C 
HETATM    7  N2  UNL     1      25.429  26.582   6.296  1.00  0.00    -0.353 N 
ATOM      8  H2  UNL     1      25.204  26.788   7.269  1.00  0.00     0.163 HD
HETATM    9  C9  UNL     1      24.583  27.174   5.327  1.00  0.00     0.240 C 
HETATM   10  O1  UNL     1      24.626  28.456   5.264  1.00  0.00    -0.271 OA
HETATM   11  C10 UNL     1      23.667  26.490   4.397  1.00  0.00     0.177 C 
HETATM   12  N3  UNL     1      23.709  26.985   3.028  1.00  0.00    -0.346 N 
ATOM     13  H3  UNL     1      24.075  27.928   2.899  1.00  0.00     0.163 HD
HETATM   14  C15 UNL     1      23.302  26.311   1.865  1.00  0.00     0.248 C 
HETATM   15  O2  UNL     1      22.441  26.870   1.122  1.00  0.00    -0.271 OA
HETATM   16  C16 UNL     1      23.779  24.957   1.374  1.00  0.00     0.131 C 
HETATM   17  C17 UNL     1      23.297  24.821  -0.121  1.00  0.00     0.051 C 
HETATM   18  N4  UNL     1      23.083  23.900   2.017  1.00  0.00    -0.350 N 
ATOM     19  H4  UNL     1      22.098  23.960   1.757  1.00  0.00     0.163 HD
HETATM   20  C19 UNL     1      23.241  22.843   2.848  1.00  0.00     0.161 C 
HETATM   21  C20 UNL     1      24.111  21.661   3.003  1.00  0.00     0.073 C 
HETATM   22  C21 UNL     1      25.285  21.525   2.134  1.00  0.00     0.074 C 
HETATM   23  N5  UNL     1      24.174  21.297   4.343  1.00  0.00    -0.293 N 
ATOM     24  H5  UNL     1      23.269  21.170   4.797  1.00  0.00     0.187 HD
HETATM   25  N6  UNL     1      25.228  21.087   5.127  1.00  0.00    -0.251 N 
ENDROOT
BRANCH  25  26
HETATM   26  C22 UNL     1      25.826  19.791   5.207  1.00  0.00     0.130 C 
BRANCH  26  27
HETATM   27  C23 UNL     1      25.144  18.700   5.847  1.00  0.00    -0.010 A 
HETATM   28  C24 UNL     1      25.073  18.449   7.165  1.00  0.00     0.030 A 
HETATM   29  C25 UNL     1      24.374  17.367   7.713  1.00  0.00     0.091 A 
HETATM   30  N7  UNL     1      23.735  16.519   6.907  1.00  0.00    -0.366 N 
HETATM   31  C31 UNL     1      23.795  16.752   5.575  1.00  0.00     0.098 A 
HETATM   32  C32 UNL     1      24.469  17.801   5.004  1.00  0.00    -0.035 A 
HETATM   33  C33 UNL     1      24.499  17.998   3.523  1.00  0.00     0.050 C 
BRANCH  30  34
HETATM   34  C26 UNL     1      22.964  15.364   7.407  1.00  0.00     0.128 C 
BRANCH  34  35
HETATM   35  C27 UNL     1      22.523  14.467   6.310  1.00  0.00     0.020 C 
BRANCH  35  36
HETATM   36  C28 UNL     1      21.009  14.376   6.350  1.00  0.00     0.001 C 
BRANCH  36  37
HETATM   37  C29 UNL     1      20.357  15.285   5.343  1.00  0.00    -0.004 C 
HETATM   38  C30 UNL     1      20.874  15.078   3.943  1.00  0.00     0.005 C 
ENDBRANCH  36  37
ENDBRANCH  35  36
ENDBRANCH  34  35
ENDBRANCH  30  34
ENDBRANCH  26  27
ENDBRANCH  25  26
BRANCH  20  39
HETATM   39  O4  UNL     1      22.358  22.825   3.843  1.00  0.00    -0.345 OA
ATOM     40  H4  UNL     1      22.442  22.061   4.402  1.00  0.00     0.219 HD
ENDBRANCH  20  39
BRANCH   6  41
HETATM   41  C5  UNL     1      27.882  26.334   6.371  1.00  0.00     0.030 C 
BRANCH  41  42
HETATM   42  C6  UNL     1      28.438  26.268   7.730  1.00  0.00    -0.021 C 
HETATM   43  C7  UNL     1      29.951  26.559   7.584  1.00  0.00     0.009 C 
HETATM   44  C8  UNL     1      27.957  27.329   8.696  1.00  0.00     0.009 C 
ENDBRANCH  41  42
ENDBRANCH   6  41
BRANCH  16  45
HETATM   45  C18 UNL     1      25.238  24.944   1.199  1.00  0.00     0.204 C 
BRANCH  45  46
HETATM   46  O3  UNL     1      25.920  26.129   1.179  1.00  0.00    -0.398 OA
ATOM     47  H3  UNL     1      26.763  26.173   0.742  1.00  0.00     0.209 HD
ENDBRANCH  45  46
ENDBRANCH  16  45
BRANCH  11  48
HETATM   48  C11 UNL     1      22.295  26.263   4.911  1.00  0.00     0.038 C 
BRANCH  48  49
HETATM   49  C12 UNL     1      21.144  26.181   4.008  1.00  0.00    -0.020 C 
HETATM   50  C13 UNL     1      20.083  25.351   4.792  1.00  0.00     0.009 C 
HETATM   51  C14 UNL     1      20.431  27.460   3.683  1.00  0.00     0.009 C 
ENDBRANCH  48  49
ENDBRANCH  11  48
TORSDOF 13
ENDMDL
MODEL 4
REMARK VINA RESULT: -7.597401107      1.222      2.001
REMARK  13 active torsions:
REMARK  status: ('A' for Active; 'I' for Inactive)
REMARK    1  A    between atoms: C4_6  and  C5_7 
REMARK    2  A    between atoms: C5_7  and  C6_8 
REMARK    3  A    between atoms: C10_15  and  C11_16 
REMARK    4  A    between atoms: C11_16  and  C12_17 
REMARK    5  A    between atoms: C16_24  and  C18_26 
REMARK    6  A    between atoms: C18_26  and  O3_27 
REMARK    7  A    between atoms: C19_31  and  O4_32 
REMARK    8  A    between atoms: N6_38  and  C22_39 
REMARK    9  A    between atoms: C22_39  and  C23_40 
REMARK   10  A    between atoms: N7_43  and  C26_44 
REMARK   11  A    between atoms: C26_44  and  C27_45 
REMARK   12  A    between atoms: C27_45  and  C28_46 
REMARK   13  A    between atoms: C28_46  and  C29_47 
ROOT
HETATM    1  C1  UNL     1      26.266  21.525   7.111  1.00  0.00     0.065 C 
HETATM    2  C2  UNL     1      25.736  21.932   5.961  1.00  0.00     0.113 C 
HETATM    3  N1  UNL     1      25.776  23.314   5.666  1.00  0.00    -0.374 N 
ATOM      4  H1  UNL     1      25.404  23.685   4.792  1.00  0.00     0.161 HD
HETATM    5  C3  UNL     1      26.362  24.159   6.649  1.00  0.00     0.146 C 
HETATM    6  C4  UNL     1      26.566  25.575   6.078  1.00  0.00     0.102 C 
HETATM    7  N2  UNL     1      25.447  26.453   6.309  1.00  0.00    -0.353 N 
ATOM      8  H2  UNL     1      25.230  26.649   7.286  1.00  0.00     0.163 HD
HETATM    9  C9  UNL     1      24.611  27.078   5.353  1.00  0.00     0.240 C 
HETATM   10  O1  UNL     1      24.683  28.359   5.309  1.00  0.00    -0.271 OA
HETATM   11  C10 UNL     1      23.677  26.430   4.416  1.00  0.00     0.177 C 
HETATM   12  N3  UNL     1      23.726  26.944   3.054  1.00  0.00    -0.346 N 
ATOM     13  H3  UNL     1      24.113  27.880   2.938  1.00  0.00     0.163 HD
HETATM   14  C15 UNL     1      23.300  26.297   1.883  1.00  0.00     0.248 C 
HETATM   15  O2  UNL     1      22.450  26.887   1.151  1.00  0.00    -0.271 OA
HETATM   16  C16 UNL     1      23.745  24.940   1.369  1.00  0.00     0.131 C 
HETATM   17  C17 UNL     1      23.255  24.839  -0.126  1.00  0.00     0.051 C 
HETATM   18  N4  UNL     1      23.027  23.891   1.998  1.00  0.00    -0.350 N 
ATOM     19  H4  UNL     1      22.043  23.977   1.743  1.00  0.00     0.163 HD
HETATM   20  C19 UNL     1      23.164  22.817   2.813  1.00  0.00     0.161 C 
HETATM   21  C20 UNL     1      24.007  21.614   2.947  1.00  0.00     0.073 C 
HETATM   22  C21 UNL     1      25.175  21.464   2.072  1.00  0.00     0.074 C 
HETATM   23  N5  UNL     1      24.066  21.228   4.281  1.00  0.00    -0.293 N 
ATOM     24  H5  UNL     1      23.160  21.115   4.736  1.00  0.00     0.187 HD
HETATM   25  N6  UNL     1      25.117  20.982   5.058  1.00  0.00    -0.251 N 
ENDROOT
BRANCH  25  26
HETATM   26  C22 UNL     1      25.686  19.672   5.116  1.00  0.00     0.130 C 
BRANCH  26  27
HETATM   27  C23 UNL     1      24.933  18.561   5.628  1.00  0.00    -0.010 A 
HETATM   28  C24 UNL     1      24.725  18.246   6.919  1.00  0.00     0.030 A 
HETATM   29  C25 UNL     1      23.965  17.149   7.339  1.00  0.00     0.091 A 
HETATM   30  N7  UNL     1      23.403  16.351   6.431  1.00  0.00    -0.366 N 
HETATM   31  C31 UNL     1      23.599  16.648   5.126  1.00  0.00     0.098 A 
HETATM   32  C32 UNL     1      24.338  17.714   4.678  1.00  0.00    -0.035 A 
HETATM   33  C33 UNL     1      24.519  17.982   3.220  1.00  0.00     0.050 C 
BRANCH  30  34
HETATM   34  C26 UNL     1      22.575  15.185   6.793  1.00  0.00     0.128 C 
BRANCH  34  35
HETATM   35  C27 UNL     1      23.054  14.520   8.031  1.00  0.00     0.020 C 
BRANCH  35  36
HETATM   36  C28 UNL     1      22.108  13.379   8.356  1.00  0.00     0.001 C 
BRANCH  36  37
HETATM   37  C29 UNL     1      21.166  13.723   9.478  1.00  0.00    -0.004 C 
HETATM   38  C30 UNL     1      20.202  12.610   9.798  1.00  0.00     0.005 C 
ENDBRANCH  36  37
ENDBRANCH  35  36
ENDBRANCH  34  35
ENDBRANCH  30  34
ENDBRANCH  26  27
ENDBRANCH  25  26
BRANCH  20  39
HETATM   39  O4  UNL     1      22.283  22.804   3.811  1.00  0.00    -0.345 OA
ATOM     40  H4  UNL     1      22.507  22.186   4.497  1.00  0.00     0.219 HD
ENDBRANCH  20  39
BRANCH   6  41
HETATM   41  C5  UNL     1      27.893  26.148   6.373  1.00  0.00     0.030 C 
BRANCH  41  42
HETATM   42  C6  UNL     1      28.457  26.040   7.726  1.00  0.00    -0.021 C 
HETATM   43  C7  UNL     1      29.942  26.453   7.602  1.00  0.00     0.009 C 
HETATM   44  C8  UNL     1      27.899  26.998   8.756  1.00  0.00     0.009 C 
ENDBRANCH  41  42
ENDBRANCH   6  41
BRANCH  16  45
HETATM   45  C18 UNL     1      25.203  24.897   1.189  1.00  0.00     0.204 C 
BRANCH  45  46
HETATM   46  O3  UNL     1      25.912  26.067   1.192  1.00  0.00    -0.398 OA
ATOM     47  H3  UNL     1      26.247  26.405   2.014  1.00  0.00     0.209 HD
ENDBRANCH  45  46
ENDBRANCH  16  45
BRANCH  11  48
HETATM   48  C11 UNL     1      22.302  26.226   4.931  1.00  0.00     0.038 C 
BRANCH  48  49
HETATM   49  C12 UNL     1      21.149  26.167   4.029  1.00  0.00    -0.020 C 
HETATM   50  C13 UNL     1      20.075  25.352   4.812  1.00  0.00     0.009 C 
HETATM   51  C14 UNL     1      20.457  27.458   3.711  1.00  0.00     0.009 C 
ENDBRANCH  48  49
ENDBRANCH  11  48
TORSDOF 13
ENDMDL
MODEL 5
REMARK VINA RESULT: -6.885258386      1.361      1.552
REMARK  13 active torsions:
REMARK  status: ('A' for Active; 'I' for Inactive)
REMARK    1  A    between atoms: C4_6  and  C5_7 
REMARK    2  A    between atoms: C5_7  and  C6_8 
REMARK    3  A    between atoms: C10_15  and  C11_16 
REMARK    4  A    between atoms: C11_16  and  C12_17 
REMARK    5  A    between atoms: C16_24  and  C18_26 
REMARK    6  A    between atoms: C18_26  and  O3_27 
REMARK    7  A    between atoms: C19_31  and  O4_32 
REMARK    8  A    between atoms: N6_38  and  C22_39 
REMARK    9  A    between atoms: C22_39  and  C23_40 
REMARK   10  A    between atoms: N7_43  and  C26_44 
REMARK   11  A    between atoms: C26_44  and  C27_45 
REMARK   12  A    between atoms: C27_45  and  C28_46 
REMARK   13  A    between atoms: C28_46  and  C29_47 
ROOT
HETATM    1  C1  UNL     1      26.454  22.514   6.423  1.00  0.00     0.065 C 
HETATM    2  C2  UNL     1      25.902  22.896   5.276  1.00  0.00     0.113 C 
HETATM    3  N1  UNL     1      26.095  24.234   4.862  1.00  0.00    -0.374 N 
ATOM      4  H1  UNL     1      25.715  24.582   3.982  1.00  0.00     0.161 HD
HETATM    5  C3  UNL     1      26.847  25.069   5.735  1.00  0.00     0.146 C 
HETATM    6  C4  UNL     1      27.188  26.398   5.033  1.00  0.00     0.102 C 
HETATM    7  N2  UNL     1      26.206  27.429   5.253  1.00  0.00    -0.353 N 
ATOM      8  H2  UNL     1      26.081  27.727   6.220  1.00  0.00     0.163 HD
HETATM    9  C9  UNL     1      25.392  28.083   4.296  1.00  0.00     0.240 C 
HETATM   10  O1  UNL     1      25.621  29.336   4.139  1.00  0.00    -0.271 OA
HETATM   11  C10 UNL     1      24.323  27.491   3.472  1.00  0.00     0.177 C 
HETATM   12  N3  UNL     1      24.344  27.888   2.071  1.00  0.00    -0.346 N 
ATOM     13  H3  UNL     1      24.837  28.754   1.854  1.00  0.00     0.163 HD
HETATM   14  C15 UNL     1      23.763  27.213   0.986  1.00  0.00     0.248 C 
HETATM   15  O2  UNL     1      22.946  27.850   0.256  1.00  0.00    -0.271 OA
HETATM   16  C16 UNL     1      23.999  25.774   0.565  1.00  0.00     0.131 C 
HETATM   17  C17 UNL     1      23.400  25.622  -0.886  1.00  0.00     0.051 C 
HETATM   18  N4  UNL     1      23.198  24.879   1.321  1.00  0.00    -0.350 N 
ATOM     19  H4  UNL     1      22.219  25.072   1.116  1.00  0.00     0.163 HD
HETATM   20  C19 UNL     1      23.255  23.862   2.215  1.00  0.00     0.161 C 
HETATM   21  C20 UNL     1      23.948  22.574   2.403  1.00  0.00     0.073 C 
HETATM   22  C21 UNL     1      25.026  22.206   1.479  1.00  0.00     0.074 C 
HETATM   23  N5  UNL     1      24.048  22.288   3.760  1.00  0.00    -0.293 N 
ATOM     24  H5  UNL     1      23.168  22.329   4.274  1.00  0.00     0.187 HD
HETATM   25  N6  UNL     1      25.110  21.968   4.494  1.00  0.00    -0.251 N 
ENDROOT
BRANCH  25  26
HETATM   26  C22 UNL     1      25.513  20.603   4.630  1.00  0.00     0.130 C 
BRANCH  26  27
HETATM   27  C23 UNL     1      24.551  19.538   4.565  1.00  0.00    -0.010 A 
HETATM   28  C24 UNL     1      24.077  18.938   3.460  1.00  0.00     0.030 A 
HETATM   29  C25 UNL     1      23.146  17.895   3.481  1.00  0.00     0.091 A 
HETATM   30  N7  UNL     1      22.682  17.449   4.649  1.00  0.00    -0.366 N 
HETATM   31  C31 UNL     1      23.143  18.040   5.774  1.00  0.00     0.098 A 
HETATM   32  C32 UNL     1      24.056  19.064   5.791  1.00  0.00    -0.035 A 
HETATM   33  C33 UNL     1      24.521  19.676   7.073  1.00  0.00     0.050 C 
BRANCH  30  34
HETATM   34  C26 UNL     1      21.710  16.343   4.755  1.00  0.00     0.128 C 
BRANCH  34  35
HETATM   35  C27 UNL     1      21.527  15.632   3.465  1.00  0.00     0.020 C 
BRANCH  35  36
HETATM   36  C28 UNL     1      20.272  14.785   3.562  1.00  0.00     0.001 C 
BRANCH  36  37
HETATM   37  C29 UNL     1      19.480  14.792   2.282  1.00  0.00    -0.004 C 
HETATM   38  C30 UNL     1      18.638  13.555   2.105  1.00  0.00     0.005 C 
ENDBRANCH  36  37
ENDBRANCH  35  36
ENDBRANCH  34  35
ENDBRANCH  30  34
ENDBRANCH  26  27
ENDBRANCH  25  26
BRANCH  20  39
HETATM   39  O4  UNL     1      22.449  24.041   3.259  1.00  0.00    -0.345 OA
ATOM     40  H4  UNL     1      21.528  23.966   3.036  1.00  0.00     0.219 HD
ENDBRANCH  20  39
BRANCH   6  41
HETATM   41  C5  UNL     1      28.593  26.815   5.203  1.00  0.00     0.030 C 
BRANCH  41  42
HETATM   42  C6  UNL     1      29.406  26.239   6.283  1.00  0.00    -0.021 C 
HETATM   43  C7  UNL     1      30.878  26.377   5.827  1.00  0.00     0.009 C 
HETATM   44  C8  UNL     1      29.367  26.972   7.606  1.00  0.00     0.009 C 
ENDBRANCH  41  42
ENDBRANCH   6  41
BRANCH  16  45
HETATM   45  C18 UNL     1      25.424  25.527   0.306  1.00  0.00     0.204 C 
BRANCH  45  46
HETATM   46  O3  UNL     1      26.361  26.305   0.930  1.00  0.00    -0.398 OA
ATOM     47  H3  UNL     1      26.966  26.814   0.403  1.00  0.00     0.209 HD
ENDBRANCH  45  46
ENDBRANCH  16  45
BRANCH  11  48
HETATM   48  C11 UNL     1      22.971  27.508   4.081  1.00  0.00     0.038 C 
BRANCH  48  49
HETATM   49  C12 UNL     1      21.785  27.864   3.297  1.00  0.00    -0.020 C 
HETATM   50  C13 UNL     1      20.675  26.887   3.794  1.00  0.00     0.009 C 
HETATM   51  C14 UNL     1      21.194  29.223   3.521  1.00  0.00     0.009 C 
ENDBRANCH  48  49
ENDBRANCH  11  48
TORSDOF 13
ENDMDL
