MODEL 1
REMARK VINA RESULT: -9.646442819      0.000      0.000
REMARK  14 active torsions:
REMARK  status: ('A' for Active; 'I' for Inactive)
REMARK    1  A    between atoms: C2_2  and  C3_3 
REMARK    2  A    between atoms: C3_3  and  C4_4 
REMARK    3  A    between atoms: N1_7  and  C7_8 
REMARK    4  A    between atoms: N2_10  and  C9_12 
REMARK    5  A    between atoms: C9_12  and  C10_13 
REMARK    6  A    between atoms: C10_13  and  N3_14 
REMARK       I    between atoms: N3_14  and  C11_16 
REMARK    7  A    between atoms: N5_18  and  C12_20 
REMARK    8  A    between atoms: C14_22  and  C15_23 
REMARK    9  A    between atoms: C17_27  and  C18_28 
REMARK   10  A    between atoms: C18_28  and  O2_29 
REMARK   11  A    between atoms: C18_28  and  N7_31 
REMARK       I    between atoms: N8_34  and  C21_35 
REMARK       I    between atoms: C21_35  and  N12_43 
REMARK       I    between atoms: N9_36  and  C22_38 
REMARK   12  A    between atoms: N12_43  and  C23_45 
REMARK   13  A    between atoms: C23_45  and  C24_46 
REMARK   14  A    between atoms: C24_46  and  N13_47 
ROOT
HETATM    1  C12 UNL     1      26.428  21.004   4.974  1.00  0.00     0.036 A 
HETATM    2  C13 UNL     1      26.726  21.969   5.905  1.00  0.00     0.046 A 
HETATM    3  C14 UNL     1      26.447  21.758   7.232  1.00  0.00     0.032 A 
HETATM    4  C16 UNL     1      25.870  20.569   7.597  1.00  0.00     0.032 A 
HETATM    5  C17 UNL     1      25.541  19.543   6.703  1.00  0.00     0.018 A 
HETATM    6  C30 UNL     1      25.833  19.792   5.398  1.00  0.00     0.045 A 
ENDROOT
BRANCH   5   7
HETATM    7  C18 UNL     1      24.917  18.379   7.202  1.00  0.00     0.149 C 
BRANCH   7   8
HETATM    8  O2  UNL     1      25.373  17.903   8.328  1.00  0.00    -0.346 OA
ATOM      9  H2  UNL     1      24.886  18.122   9.114  1.00  0.00     0.219 HD
ENDBRANCH   7   8
BRANCH   7  10
HETATM   10  N7  UNL     1      23.858  17.644   6.655  1.00  0.00    -0.343 N 
HETATM   11  C19 UNL     1      22.504  17.718   7.242  1.00  0.00     0.147 C 
HETATM   12  C20 UNL     1      21.615  17.118   6.161  1.00  0.00     0.163 C 
HETATM   13  N8  UNL     1      22.486  16.075   5.639  1.00  0.00    -0.200 N 
HETATM   14  C21 UNL     1      22.230  14.746   5.265  1.00  0.00     0.679 C 
HETATM   15  C29 UNL     1      23.795  16.723   5.572  1.00  0.00     0.269 C 
HETATM   16  N9  UNL     1      22.198  13.815   6.151  1.00  0.00    -0.164 N 
HETATM   17  N12 UNL     1      22.015  14.425   3.881  1.00  0.00    -0.224 N 
HETATM   18  C22 UNL     1      22.416  14.099   7.515  1.00  0.00     0.200 C 
ATOM     19  H9  UNL     1      22.012  12.855   5.863  1.00  0.00     0.187 HD
HETATM   20  N10 UNL     1      23.630  14.164   7.962  1.00  0.00    -0.373 N 
HETATM   21  N11 UNL     1      21.298  14.300   8.362  1.00  0.00    -0.063 NA
ATOM     22 2H10 UNL     1      24.434  14.020   7.353  1.00  0.00     0.158 HD
ATOM     23 1H10 UNL     1      23.787  14.370   8.949  1.00  0.00     0.158 HD
ATOM     24  H12 UNL     1      22.647  13.801   3.381  1.00  0.00     0.177 HD
BRANCH  17  25
HETATM   25  C23 UNL     1      20.878  15.014   3.224  1.00  0.00     0.168 C 
BRANCH  25  26
HETATM   26  C24 UNL     1      19.581  14.659   3.920  1.00  0.00     0.292 C 
BRANCH  26  27
HETATM   27  N13 UNL     1      18.656  14.001   3.040  1.00  0.00     0.090 N 
HETATM   28  C25 UNL     1      18.868  14.219   1.647  1.00  0.00     0.272 C 
HETATM   29  C26 UNL     1      17.864  13.252   1.025  1.00  0.00     0.032 C 
HETATM   30  C27 UNL     1      17.605  12.194   2.095  1.00  0.00     0.032 C 
HETATM   31  C28 UNL     1      18.648  12.560   3.153  1.00  0.00     0.272 C 
ENDBRANCH  26  27
ENDBRANCH  25  26
ENDBRANCH  17  25
ENDBRANCH   7  10
ENDBRANCH   5   7
BRANCH   3  32
HETATM   32  C15 UNL     1      26.770  22.790   8.218  1.00  0.00     0.265 C 
HETATM   33  N6  UNL     1      26.520  24.147   7.906  1.00  0.00    -0.057 NA
HETATM   34  O1  UNL     1      27.259  22.474   9.317  1.00  0.00    -0.271 OA
ENDBRANCH   3  32
BRANCH   1  35
HETATM   35  N5  UNL     1      26.680  21.158   3.594  1.00  0.00    -0.331 N 
HETATM   36  C11 UNL     1      25.730  21.331   2.772  1.00  0.00     0.188 C 
HETATM   37  N3  UNL     1      24.349  21.390   3.113  1.00  0.00    -0.363 N 
HETATM   38  N4  UNL     1      26.117  21.478   1.386  1.00  0.00    -0.064 NA
ATOM     39  H3  UNL     1      23.966  20.871   3.903  1.00  0.00     0.162 HD
ATOM     40  H5  UNL     1      27.641  21.130   3.253  1.00  0.00     0.168 HD
BRANCH  37  41
HETATM   41  C10 UNL     1      23.511  22.236   2.265  1.00  0.00     0.142 C 
BRANCH  41  42
HETATM   42  C9  UNL     1      22.678  23.205   3.079  1.00  0.00     0.140 C 
BRANCH  42  43
HETATM   43  N2  UNL     1      23.452  23.836   4.116  1.00  0.00    -0.379 N 
HETATM   44  C7  UNL     1      23.862  25.031   3.980  1.00  0.00     0.071 C 
HETATM   45  C8  UNL     1      24.664  25.632   5.075  1.00  0.00     0.088 C 
ATOM     46  H2  UNL     1      23.673  23.319   4.968  1.00  0.00     0.160 HD
BRANCH  44  47
HETATM   47  N1  UNL     1      23.575  25.782   2.812  1.00  0.00    -0.366 N 
HETATM   48  C4  UNL     1      22.398  26.533   2.332  1.00  0.00     0.090 C 
HETATM   49  C5  UNL     1      23.275  27.302   1.415  1.00  0.00     0.045 C 
HETATM   50  C6  UNL     1      24.248  26.166   1.594  1.00  0.00     0.126 C 
BRANCH  48  51
HETATM   51  C3  UNL     1      21.670  27.247   3.413  1.00  0.00     0.051 C 
BRANCH  51  52
HETATM   52  C2  UNL     1      20.428  26.563   3.800  1.00  0.00    -0.035 C 
HETATM   53  C1  UNL     1      20.295  25.573   4.636  1.00  0.00     0.007 C 
ENDBRANCH  51  52
ENDBRANCH  48  51
ENDBRANCH  44  47
ENDBRANCH  42  43
ENDBRANCH  41  42
ENDBRANCH  37  41
ENDBRANCH   1  35
TORSDOF 14
ENDMDL
MODEL 2
REMARK VINA RESULT: -9.485940982      1.492      3.242
REMARK  14 active torsions:
REMARK  status: ('A' for Active; 'I' for Inactive)
REMARK    1  A    between atoms: C2_2  and  C3_3 
REMARK    2  A    between atoms: C3_3  and  C4_4 
REMARK    3  A    between atoms: N1_7  and  C7_8 
REMARK    4  A    between atoms: N2_10  and  C9_12 
REMARK    5  A    between atoms: C9_12  and  C10_13 
REMARK    6  A    between atoms: C10_13  and  N3_14 
REMARK       I    between atoms: N3_14  and  C11_16 
REMARK    7  A    between atoms: N5_18  and  C12_20 
REMARK    8  A    between atoms: C14_22  and  C15_23 
REMARK    9  A    between atoms: C17_27  and  C18_28 
REMARK   10  A    between atoms: C18_28  and  O2_29 
REMARK   11  A    between atoms: C18_28  and  N7_31 
REMARK       I    between atoms: N8_34  and  C21_35 
REMARK       I    between atoms: C21_35  and  N12_43 
REMARK       I    between atoms: N9_36  and  C22_38 
REMARK   12  A    between atoms: N12_43  and  C23_45 
REMARK   13  A    between atoms: C23_45  and  C24_46 
REMARK   14  A    between atoms: C24_46  and  N13_47 
ROOT
HETATM    1  C12 UNL     1      26.483  21.962   6.049  1.00  0.00     0.036 A 
HETATM    2  C13 UNL     1      26.488  21.861   4.679  1.00  0.00     0.046 A 
HETATM    3  C14 UNL     1      25.826  20.831   4.060  1.00  0.00     0.032 A 
HETATM    4  C16 UNL     1      25.168  19.915   4.840  1.00  0.00     0.032 A 
HETATM    5  C17 UNL     1      25.122  19.956   6.239  1.00  0.00     0.018 A 
HETATM    6  C30 UNL     1      25.789  20.993   6.813  1.00  0.00     0.045 A 
ENDROOT
BRANCH   5   7
HETATM    7  C18 UNL     1      24.437  18.932   6.928  1.00  0.00     0.149 C 
BRANCH   7   8
HETATM    8  O2  UNL     1      24.716  18.785   8.194  1.00  0.00    -0.346 OA
ATOM      9  H2  UNL     1      24.413  19.468   8.781  1.00  0.00     0.219 HD
ENDBRANCH   7   8
BRANCH   7  10
HETATM   10  N7  UNL     1      23.482  18.030   6.442  1.00  0.00    -0.343 N 
HETATM   11  C19 UNL     1      22.143  17.941   7.061  1.00  0.00     0.147 C 
HETATM   12  C20 UNL     1      21.327  17.170   6.031  1.00  0.00     0.163 C 
HETATM   13  N8  UNL     1      22.326  16.237   5.534  1.00  0.00    -0.200 N 
HETATM   14  C21 UNL     1      22.254  14.869   5.226  1.00  0.00     0.679 C 
HETATM   15  C29 UNL     1      23.529  17.058   5.403  1.00  0.00     0.269 C 
HETATM   16  N9  UNL     1      22.372  13.986   6.154  1.00  0.00    -0.164 N 
HETATM   17  N12 UNL     1      22.059  14.455   3.864  1.00  0.00    -0.224 N 
HETATM   18  C22 UNL     1      22.574  14.363   7.497  1.00  0.00     0.200 C 
ATOM     19  H9  UNL     1      22.318  12.996   5.913  1.00  0.00     0.187 HD
HETATM   20  N10 UNL     1      23.776  14.619   7.909  1.00  0.00    -0.373 N 
HETATM   21  N11 UNL     1      21.456  14.445   8.364  1.00  0.00    -0.063 NA
ATOM     22 2H10 UNL     1      24.580  14.560   7.286  1.00  0.00     0.158 HD
ATOM     23 1H10 UNL     1      23.922  14.892   8.881  1.00  0.00     0.158 HD
ATOM     24  H12 UNL     1      22.764  13.902   3.375  1.00  0.00     0.177 HD
BRANCH  17  25
HETATM   25  C23 UNL     1      20.838  14.845   3.212  1.00  0.00     0.168 C 
BRANCH  25  26
HETATM   26  C24 UNL     1      19.620  14.307   3.931  1.00  0.00     0.292 C 
BRANCH  26  27
HETATM   27  N13 UNL     1      18.624  13.816   3.019  1.00  0.00     0.090 N 
HETATM   28  C25 UNL     1      18.868  14.078   1.639  1.00  0.00     0.272 C 
HETATM   29  C26 UNL     1      17.755  13.276   0.970  1.00  0.00     0.032 C 
HETATM   30  C27 UNL     1      17.361  12.205   1.984  1.00  0.00     0.032 C 
HETATM   31  C28 UNL     1      18.436  12.384   3.058  1.00  0.00     0.272 C 
ENDBRANCH  26  27
ENDBRANCH  25  26
ENDBRANCH  17  25
ENDBRANCH   7  10
ENDBRANCH   5   7
BRANCH   3  32
HETATM   32  C15 UNL     1      25.834  20.732   2.600  1.00  0.00     0.265 C 
HETATM   33  N6  UNL     1      26.949  21.219   1.879  1.00  0.00    -0.057 NA
HETATM   34  O1  UNL     1      24.869  20.225   2.003  1.00  0.00    -0.271 OA
ENDBRANCH   3  32
BRANCH   1  35
HETATM   35  N5  UNL     1      27.148  22.990   6.751  1.00  0.00    -0.331 N 
HETATM   36  C11 UNL     1      26.874  24.210   6.537  1.00  0.00     0.188 C 
HETATM   37  N3  UNL     1      25.907  24.684   5.605  1.00  0.00    -0.363 N 
HETATM   38  N4  UNL     1      27.621  25.168   7.320  1.00  0.00    -0.064 NA
ATOM     39  H3  UNL     1      25.691  24.177   4.747  1.00  0.00     0.162 HD
ATOM     40  H5  UNL     1      27.859  22.749   7.440  1.00  0.00     0.168 HD
BRANCH  37  41
HETATM   41  C10 UNL     1      25.241  25.939   5.949  1.00  0.00     0.142 C 
BRANCH  41  42
HETATM   42  C9  UNL     1      24.507  26.533   4.764  1.00  0.00     0.140 C 
BRANCH  42  43
HETATM   43  N2  UNL     1      23.079  26.452   4.922  1.00  0.00    -0.379 N 
HETATM   44  C7  UNL     1      22.393  25.660   4.202  1.00  0.00     0.071 C 
HETATM   45  C8  UNL     1      20.922  25.621   4.399  1.00  0.00     0.088 C 
ATOM     46  H2  UNL     1      22.613  27.036   5.617  1.00  0.00     0.160 HD
BRANCH  44  47
HETATM   47  N1  UNL     1      23.004  24.833   3.226  1.00  0.00    -0.366 N 
HETATM   48  C4  UNL     1      23.367  23.403   3.166  1.00  0.00     0.090 C 
HETATM   49  C5  UNL     1      23.391  23.481   1.685  1.00  0.00     0.045 C 
HETATM   50  C6  UNL     1      23.534  24.967   1.890  1.00  0.00     0.126 C 
BRANCH  48  51
HETATM   51  C3  UNL     1      22.381  22.514   3.833  1.00  0.00     0.051 C 
BRANCH  51  52
HETATM   52  C2  UNL     1      21.911  21.435   2.951  1.00  0.00    -0.035 C 
HETATM   53  C1  UNL     1      21.912  20.156   3.194  1.00  0.00     0.007 C 
ENDBRANCH  51  52
ENDBRANCH  48  51
ENDBRANCH  44  47
ENDBRANCH  42  43
ENDBRANCH  41  42
ENDBRANCH  37  41
ENDBRANCH   1  35
TORSDOF 14
ENDMDL
MODEL 3
REMARK VINA RESULT: -9.454451172      3.753     12.165
REMARK  14 active torsions:
REMARK  status: ('A' for Active; 'I' for Inactive)
REMARK    1  A    between atoms: C2_2  and  C3_3 
REMARK    2  A    between atoms: C3_3  and  C4_4 
REMARK    3  A    between atoms: N1_7  and  C7_8 
REMARK    4  A    between atoms: N2_10  and  C9_12 
REMARK    5  A    between atoms: C9_12  and  C10_13 
REMARK    6  A    between atoms: C10_13  and  N3_14 
REMARK       I    between atoms: N3_14  and  C11_16 
REMARK    7  A    between atoms: N5_18  and  C12_20 
REMARK    8  A    between atoms: C14_22  and  C15_23 
REMARK    9  A    between atoms: C17_27  and  C18_28 
REMARK   10  A    between atoms: C18_28  and  O2_29 
REMARK   11  A    between atoms: C18_28  and  N7_31 
REMARK       I    between atoms: N8_34  and  C21_35 
REMARK       I    between atoms: C21_35  and  N12_43 
REMARK       I    between atoms: N9_36  and  C22_38 
REMARK   12  A    between atoms: N12_43  and  C23_45 
REMARK   13  A    between atoms: C23_45  and  C24_46 
REMARK   14  A    between atoms: C24_46  and  N13_47 
ROOT
HETATM    1  C12 UNL     1      20.041  14.089   4.229  1.00  0.00     0.036 A 
HETATM    2  C13 UNL     1      19.711  13.536   5.442  1.00  0.00     0.046 A 
HETATM    3  C14 UNL     1      20.562  13.661   6.512  1.00  0.00     0.032 A 
HETATM    4  C16 UNL     1      21.736  14.345   6.336  1.00  0.00     0.032 A 
HETATM    5  C17 UNL     1      22.136  14.933   5.130  1.00  0.00     0.018 A 
HETATM    6  C30 UNL     1      21.265  14.787   4.095  1.00  0.00     0.045 A 
ENDROOT
BRANCH   5   7
HETATM    7  C18 UNL     1      23.388  15.582   5.070  1.00  0.00     0.149 C 
BRANCH   7   8
HETATM    8  O2  UNL     1      24.431  14.830   4.847  1.00  0.00    -0.346 OA
ATOM      9  H2  UNL     1      25.242  15.275   4.630  1.00  0.00     0.219 HD
ENDBRANCH   7   8
BRANCH   7  10
HETATM   10  N7  UNL     1      23.683  16.943   5.218  1.00  0.00    -0.343 N 
HETATM   11  C19 UNL     1      22.616  17.919   5.523  1.00  0.00     0.147 C 
HETATM   12  C20 UNL     1      23.384  19.154   5.975  1.00  0.00     0.163 C 
HETATM   13  N8  UNL     1      24.542  19.093   5.096  1.00  0.00    -0.200 N 
HETATM   14  C21 UNL     1      25.222  20.090   4.379  1.00  0.00     0.679 C 
HETATM   15  C29 UNL     1      24.897  17.675   5.093  1.00  0.00     0.269 C 
HETATM   16  N9  UNL     1      24.787  20.481   3.233  1.00  0.00    -0.164 N 
HETATM   17  N12 UNL     1      26.418  20.669   4.925  1.00  0.00    -0.224 N 
HETATM   18  C22 UNL     1      23.622  19.923   2.668  1.00  0.00     0.200 C 
ATOM     19  H9  UNL     1      25.294  21.205   2.725  1.00  0.00     0.187 HD
HETATM   20  N10 UNL     1      23.709  18.817   1.999  1.00  0.00    -0.373 N 
HETATM   21  N11 UNL     1      22.386  20.593   2.842  1.00  0.00    -0.063 NA
ATOM     22 2H10 UNL     1      24.599  18.335   1.874  1.00  0.00     0.158 HD
ATOM     23 1H10 UNL     1      22.867  18.414   1.591  1.00  0.00     0.158 HD
ATOM     24  H12 UNL     1      27.316  20.572   4.449  1.00  0.00     0.177 HD
BRANCH  17  25
HETATM   25  C23 UNL     1      26.310  21.389   6.166  1.00  0.00     0.168 C 
BRANCH  25  26
HETATM   26  C24 UNL     1      27.228  20.822   7.227  1.00  0.00     0.292 C 
BRANCH  26  27
HETATM   27  N13 UNL     1      26.508  20.405   8.400  1.00  0.00     0.090 N 
HETATM   28  C25 UNL     1      25.284  21.091   8.649  1.00  0.00     0.272 C 
HETATM   29  C26 UNL     1      24.712  20.290   9.816  1.00  0.00     0.032 C 
HETATM   30  C27 UNL     1      25.377  18.918   9.731  1.00  0.00     0.032 C 
HETATM   31  C28 UNL     1      26.116  19.014   8.394  1.00  0.00     0.272 C 
ENDBRANCH  26  27
ENDBRANCH  25  26
ENDBRANCH  17  25
ENDBRANCH   7  10
ENDBRANCH   5   7
BRANCH   3  32
HETATM   32  C15 UNL     1      20.201  13.072   7.803  1.00  0.00     0.265 C 
HETATM   33  N6  UNL     1      19.496  11.846   7.830  1.00  0.00    -0.057 NA
HETATM   34  O1  UNL     1      20.514  13.645   8.860  1.00  0.00    -0.271 OA
ENDBRANCH   3  32
BRANCH   1  35
HETATM   35  N5  UNL     1      19.218  13.993   3.087  1.00  0.00    -0.331 N 
HETATM   36  C11 UNL     1      18.532  12.950   2.861  1.00  0.00     0.188 C 
HETATM   37  N3  UNL     1      18.502  11.792   3.689  1.00  0.00    -0.363 N 
HETATM   38  N4  UNL     1      17.728  12.974   1.660  1.00  0.00    -0.064 NA
ATOM     39  H3  UNL     1      19.309  11.502   4.241  1.00  0.00     0.162 HD
ATOM     40  H5  UNL     1      19.174  14.774   2.433  1.00  0.00     0.168 HD
BRANCH  37  41
HETATM   41  C10 UNL     1      17.247  11.042   3.703  1.00  0.00     0.142 C 
BRANCH  41  42
HETATM   42  C9  UNL     1      16.275  11.583   4.732  1.00  0.00     0.140 C 
BRANCH  42  43
HETATM   43  N2  UNL     1      16.652  11.214   6.071  1.00  0.00    -0.379 N 
HETATM   44  C7  UNL     1      15.827  10.620   6.834  1.00  0.00     0.071 C 
HETATM   45  C8  UNL     1      16.262  10.270   8.209  1.00  0.00     0.088 C 
ATOM     46  H2  UNL     1      17.589  11.432   6.410  1.00  0.00     0.160 HD
BRANCH  44  47
HETATM   47  N1  UNL     1      14.516  10.300   6.398  1.00  0.00    -0.366 N 
HETATM   48  C4  UNL     1      13.965   9.452   5.322  1.00  0.00     0.090 C 
HETATM   49  C5  UNL     1      12.674   9.385   6.050  1.00  0.00     0.045 C 
HETATM   50  C6  UNL     1      13.158  10.618   6.767  1.00  0.00     0.126 C 
BRANCH  48  51
HETATM   51  C3  UNL     1      14.740   8.203   5.098  1.00  0.00     0.051 C 
BRANCH  51  52
HETATM   52  C2  UNL     1      14.448   7.173   6.105  1.00  0.00    -0.035 C 
HETATM   53  C1  UNL     1      15.197   6.808   7.106  1.00  0.00     0.007 C 
ENDBRANCH  51  52
ENDBRANCH  48  51
ENDBRANCH  44  47
ENDBRANCH  42  43
ENDBRANCH  41  42
ENDBRANCH  37  41
ENDBRANCH   1  35
TORSDOF 14
ENDMDL
MODEL 4
REMARK VINA RESULT: -9.444275501      0.880      1.757
REMARK  14 active torsions:
REMARK  status: ('A' for Active; 'I' for Inactive)
REMARK    1  A    between atoms: C2_2  and  C3_3 
REMARK    2  A    between atoms: C3_3  and  C4_4 
REMARK    3  A    between atoms: N1_7  and  C7_8 
REMARK    4  A    between atoms: N2_10  and  C9_12 
REMARK    5  A    between atoms: C9_12  and  C10_13 
REMARK    6  A    between atoms: C10_13  and  N3_14 
REMARK       I    between atoms: N3_14  and  C11_16 
REMARK    7  A    between atoms: N5_18  and  C12_20 
REMARK    8  A    between atoms: C14_22  and  C15_23 
REMARK    9  A    between atoms: C17_27  and  C18_28 
REMARK   10  A    between atoms: C18_28  and  O2_29 
REMARK   11  A    between atoms: C18_28  and  N7_31 
REMARK       I    between atoms: N8_34  and  C21_35 
REMARK       I    between atoms: C21_35  and  N12_43 
REMARK       I    between atoms: N9_36  and  C22_38 
REMARK   12  A    between atoms: N12_43  and  C23_45 
REMARK   13  A    between atoms: C23_45  and  C24_46 
REMARK   14  A    between atoms: C24_46  and  N13_47 
ROOT
HETATM    1  C12 UNL     1      26.396  20.936   5.036  1.00  0.00     0.036 A 
HETATM    2  C13 UNL     1      26.707  21.904   5.960  1.00  0.00     0.046 A 
HETATM    3  C14 UNL     1      26.455  21.692   7.293  1.00  0.00     0.032 A 
HETATM    4  C16 UNL     1      25.891  20.501   7.670  1.00  0.00     0.032 A 
HETATM    5  C17 UNL     1      25.549  19.472   6.783  1.00  0.00     0.018 A 
HETATM    6  C30 UNL     1      25.815  19.722   5.473  1.00  0.00     0.045 A 
ENDROOT
BRANCH   5   7
HETATM    7  C18 UNL     1      24.941  18.306   7.296  1.00  0.00     0.149 C 
BRANCH   7   8
HETATM    8  O2  UNL     1      25.413  17.841   8.419  1.00  0.00    -0.346 OA
ATOM      9  H2  UNL     1      25.877  17.013   8.379  1.00  0.00     0.219 HD
ENDBRANCH   7   8
BRANCH   7  10
HETATM   10  N7  UNL     1      23.883  17.559   6.764  1.00  0.00    -0.343 N 
HETATM   11  C19 UNL     1      22.528  17.643   7.350  1.00  0.00     0.147 C 
HETATM   12  C20 UNL     1      21.641  17.019   6.281  1.00  0.00     0.163 C 
HETATM   13  N8  UNL     1      22.513  15.968   5.780  1.00  0.00    -0.200 N 
HETATM   14  C21 UNL     1      22.259  14.631   5.433  1.00  0.00     0.679 C 
HETATM   15  C29 UNL     1      23.821  16.616   5.700  1.00  0.00     0.269 C 
HETATM   16  N9  UNL     1      22.228  13.718   6.338  1.00  0.00    -0.164 N 
HETATM   17  N12 UNL     1      22.044  14.282   4.057  1.00  0.00    -0.224 N 
HETATM   18  C22 UNL     1      22.445  14.030   7.696  1.00  0.00     0.200 C 
ATOM     19  H9  UNL     1      22.043  12.752   6.070  1.00  0.00     0.187 HD
HETATM   20  N10 UNL     1      23.660  14.106   8.142  1.00  0.00    -0.373 N 
HETATM   21  N11 UNL     1      21.328  14.247   8.539  1.00  0.00    -0.063 NA
ATOM     22 2H10 UNL     1      24.464  13.950   7.535  1.00  0.00     0.158 HD
ATOM     23 1H10 UNL     1      23.817  14.332   9.124  1.00  0.00     0.158 HD
ATOM     24  H12 UNL     1      22.677  13.648   3.568  1.00  0.00     0.177 HD
BRANCH  17  25
HETATM   25  C23 UNL     1      20.906  14.855   3.388  1.00  0.00     0.168 C 
BRANCH  25  26
HETATM   26  C24 UNL     1      19.603  14.311   3.931  1.00  0.00     0.292 C 
BRANCH  26  27
HETATM   27  N13 UNL     1      18.905  13.509   2.964  1.00  0.00     0.090 N 
HETATM   28  C25 UNL     1      17.688  12.918   3.414  1.00  0.00     0.272 C 
HETATM   29  C26 UNL     1      17.137  12.321   2.122  1.00  0.00     0.032 C 
HETATM   30  C27 UNL     1      17.796  13.114   0.995  1.00  0.00     0.032 C 
HETATM   31  C28 UNL     1      18.509  14.223   1.772  1.00  0.00     0.272 C 
ENDBRANCH  26  27
ENDBRANCH  25  26
ENDBRANCH  17  25
ENDBRANCH   7  10
ENDBRANCH   5   7
BRANCH   3  32
HETATM   32  C15 UNL     1      26.793  22.727   8.272  1.00  0.00     0.265 C 
HETATM   33  N6  UNL     1      26.590  24.086   7.938  1.00  0.00    -0.057 NA
HETATM   34  O1  UNL     1      27.251  22.410   9.383  1.00  0.00    -0.271 OA
ENDBRANCH   3  32
BRANCH   1  35
HETATM   35  N5  UNL     1      26.620  21.090   3.651  1.00  0.00    -0.331 N 
HETATM   36  C11 UNL     1      25.664  21.350   2.860  1.00  0.00     0.188 C 
HETATM   37  N3  UNL     1      24.302  21.514   3.242  1.00  0.00    -0.363 N 
HETATM   38  N4  UNL     1      26.022  21.486   1.466  1.00  0.00    -0.064 NA
ATOM     39  H3  UNL     1      23.901  21.016   4.037  1.00  0.00     0.162 HD
ATOM     40  H5  UNL     1      27.565  20.990   3.282  1.00  0.00     0.168 HD
BRANCH  37  41
HETATM   41  C10 UNL     1      23.511  22.436   2.430  1.00  0.00     0.142 C 
BRANCH  41  42
HETATM   42  C9  UNL     1      23.496  23.835   3.014  1.00  0.00     0.140 C 
BRANCH  42  43
HETATM   43  N2  UNL     1      22.290  24.093   3.755  1.00  0.00    -0.379 N 
HETATM   44  C7  UNL     1      21.976  25.279   4.087  1.00  0.00     0.071 C 
HETATM   45  C8  UNL     1      20.726  25.491   4.859  1.00  0.00     0.088 C 
ATOM     46  H2  UNL     1      21.681  23.318   4.017  1.00  0.00     0.160 HD
BRANCH  44  47
HETATM   47  N1  UNL     1      22.796  26.384   3.741  1.00  0.00    -0.366 N 
HETATM   48  C4  UNL     1      23.817  27.175   4.456  1.00  0.00     0.090 C 
HETATM   49  C5  UNL     1      24.368  27.622   3.153  1.00  0.00     0.045 C 
HETATM   50  C6  UNL     1      23.028  27.226   2.592  1.00  0.00     0.126 C 
BRANCH  48  51
HETATM   51  C3  UNL     1      24.666  26.361   5.365  1.00  0.00     0.051 C 
BRANCH  51  52
HETATM   52  C2  UNL     1      25.193  27.144   6.492  1.00  0.00    -0.035 C 
HETATM   53  C1  UNL     1      25.653  28.361   6.465  1.00  0.00     0.007 C 
ENDBRANCH  51  52
ENDBRANCH  48  51
ENDBRANCH  44  47
ENDBRANCH  42  43
ENDBRANCH  41  42
ENDBRANCH  37  41
ENDBRANCH   1  35
TORSDOF 14
ENDMDL
MODEL 5
REMARK VINA RESULT: -9.417912936      4.645     12.496
REMARK  14 active torsions:
REMARK  status: ('A' for Active; 'I' for Inactive)
REMARK    1  A    between atoms: C2_2  and  C3_3 
REMARK    2  A    between atoms: C3_3  and  C4_4 
REMARK    3  A    between atoms: N1_7  and  C7_8 
REMARK    4  A    between atoms: N2_10  and  C9_12 
REMARK    5  A    between atoms: C9_12  and  C10_13 
REMARK    6  A    between atoms: C10_13  and  N3_14 
REMARK       I    between atoms: N3_14  and  C11_16 
REMARK    7  A    between atoms: N5_18  and  C12_20 
REMARK    8  A    between atoms: C14_22  and  C15_23 
REMARK    9  A    between atoms: C17_27  and  C18_28 
REMARK   10  A    between atoms: C18_28  and  O2_29 
REMARK   11  A    between atoms: C18_28  and  N7_31 
REMARK       I    between atoms: N8_34  and  C21_35 
REMARK       I    between atoms: C21_35  and  N12_43 
REMARK       I    between atoms: N9_36  and  C22_38 
REMARK   12  A    between atoms: N12_43  and  C23_45 
REMARK   13  A    between atoms: C23_45  and  C24_46 
REMARK   14  A    between atoms: C24_46  and  N13_47 
ROOT
HETATM    1  C12 UNL     1      20.045  11.717   6.154  1.00  0.00     0.036 A 
HETATM    2  C13 UNL     1      18.822  11.464   5.583  1.00  0.00     0.046 A 
HETATM    3  C14 UNL     1      18.323  12.304   4.619  1.00  0.00     0.032 A 
HETATM    4  C16 UNL     1      19.072  13.390   4.248  1.00  0.00     0.032 A 
HETATM    5  C17 UNL     1      20.325  13.708   4.787  1.00  0.00     0.018 A 
HETATM    6  C30 UNL     1      20.783  12.851   5.738  1.00  0.00     0.045 A 
ENDROOT
BRANCH   5   7
HETATM    7  C18 UNL     1      20.980  14.877   4.342  1.00  0.00     0.149 C 
BRANCH   7   8
HETATM    8  O2  UNL     1      20.894  15.153   3.070  1.00  0.00    -0.346 OA
ATOM      9  H2  UNL     1      21.130  16.035   2.806  1.00  0.00     0.219 HD
ENDBRANCH   7   8
BRANCH   7  10
HETATM   10  N7  UNL     1      21.726  15.803   5.082  1.00  0.00    -0.343 N 
HETATM   11  C19 UNL     1      21.268  17.202   5.223  1.00  0.00     0.147 C 
HETATM   12  C20 UNL     1      22.110  17.736   6.374  1.00  0.00     0.163 C 
HETATM   13  N8  UNL     1      23.373  17.056   6.128  1.00  0.00    -0.200 N 
HETATM   14  C21 UNL     1      24.702  17.504   6.190  1.00  0.00     0.679 C 
HETATM   15  C29 UNL     1      22.967  15.697   5.770  1.00  0.00     0.269 C 
HETATM   16  N9  UNL     1      25.225  18.129   5.196  1.00  0.00    -0.164 N 
HETATM   17  N12 UNL     1      25.484  17.252   7.368  1.00  0.00    -0.224 N 
HETATM   18  C22 UNL     1      24.485  18.382   4.023  1.00  0.00     0.200 C 
ATOM     19  H9  UNL     1      26.192  18.448   5.256  1.00  0.00     0.187 HD
HETATM   20  N10 UNL     1      24.412  17.465   3.110  1.00  0.00    -0.373 N 
HETATM   21  N11 UNL     1      23.844  19.637   3.871  1.00  0.00    -0.063 NA
ATOM     22 2H10 UNL     1      24.873  16.563   3.219  1.00  0.00     0.158 HD
ATOM     23 1H10 UNL     1      23.877  17.648   2.262  1.00  0.00     0.158 HD
ATOM     24  H12 UNL     1      26.324  16.674   7.330  1.00  0.00     0.177 HD
BRANCH  17  25
HETATM   25  C23 UNL     1      25.043  17.839   8.606  1.00  0.00     0.168 C 
BRANCH  25  26
HETATM   26  C24 UNL     1      26.134  18.661   9.257  1.00  0.00     0.292 C 
BRANCH  26  27
HETATM   27  N13 UNL     1      26.355  19.907   8.575  1.00  0.00     0.090 N 
HETATM   28  C25 UNL     1      25.621  21.023   9.075  1.00  0.00     0.272 C 
HETATM   29  C26 UNL     1      26.224  22.174   8.274  1.00  0.00     0.032 C 
HETATM   30  C27 UNL     1      27.602  21.684   7.835  1.00  0.00     0.032 C 
HETATM   31  C28 UNL     1      27.724  20.368   8.605  1.00  0.00     0.272 C 
ENDBRANCH  26  27
ENDBRANCH  25  26
ENDBRANCH  17  25
ENDBRANCH   7  10
ENDBRANCH   5   7
BRANCH   3  32
HETATM   32  C15 UNL     1      17.020  12.025   4.013  1.00  0.00     0.265 C 
HETATM   33  N6  UNL     1      15.946  11.617   4.839  1.00  0.00    -0.057 NA
HETATM   34  O1  UNL     1      16.862  12.149   2.787  1.00  0.00    -0.271 OA
ENDBRANCH   3  32
BRANCH   1  35
HETATM   35  N5  UNL     1      20.615  10.901   7.154  1.00  0.00    -0.331 N 
HETATM   36  C11 UNL     1      20.655  11.281   8.364  1.00  0.00     0.188 C 
HETATM   37  N3  UNL     1      20.155  12.521   8.852  1.00  0.00    -0.363 N 
HETATM   38  N4  UNL     1      21.261  10.354   9.294  1.00  0.00    -0.064 NA
ATOM     39  H3  UNL     1      20.148  13.364   8.276  1.00  0.00     0.162 HD
ATOM     40  H5  UNL     1      21.000   9.991   6.901  1.00  0.00     0.168 HD
BRANCH  37  41
HETATM   41  C10 UNL     1      19.653  12.519  10.225  1.00  0.00     0.142 C 
BRANCH  41  42
HETATM   42  C9  UNL     1      18.178  12.177  10.288  1.00  0.00     0.140 C 
BRANCH  42  43
HETATM   43  N2  UNL     1      17.375  13.324  10.617  1.00  0.00    -0.379 N 
HETATM   44  C7  UNL     1      16.191  13.180  11.058  1.00  0.00     0.071 C 
HETATM   45  C8  UNL     1      15.401  14.396  11.374  1.00  0.00     0.088 C 
ATOM     46  H2  UNL     1      17.758  14.262  10.496  1.00  0.00     0.160 HD
BRANCH  44  47
HETATM   47  N1  UNL     1      15.623  11.894  11.241  1.00  0.00    -0.366 N 
HETATM   48  C4  UNL     1      14.681  11.062  10.466  1.00  0.00     0.090 C 
HETATM   49  C5  UNL     1      15.180   9.856  11.171  1.00  0.00     0.045 C 
HETATM   50  C6  UNL     1      15.683  10.825  12.209  1.00  0.00     0.126 C 
BRANCH  48  51
HETATM   51  C3  UNL     1      14.866  11.174   8.995  1.00  0.00     0.051 C 
BRANCH  51  52
HETATM   52  C2  UNL     1      13.916  10.338   8.245  1.00  0.00    -0.035 C 
HETATM   53  C1  UNL     1      13.328  10.622   7.119  1.00  0.00     0.007 C 
ENDBRANCH  51  52
ENDBRANCH  48  51
ENDBRANCH  44  47
ENDBRANCH  42  43
ENDBRANCH  41  42
ENDBRANCH  37  41
ENDBRANCH   1  35
TORSDOF 14
ENDMDL
