MODEL 1
REMARK VINA RESULT: -5.810094486      0.000      0.000
REMARK  14 active torsions:
REMARK  status: ('A' for Active; 'I' for Inactive)
REMARK    1  A    between atoms: C2_2  and  N1_3 
REMARK    2  A    between atoms: C4_6  and  C5_7 
REMARK    3  A    between atoms: C5_7  and  C6_8 
REMARK    4  A    between atoms: C9_13  and  O2_14 
REMARK    5  A    between atoms: C13_21  and  O3_22 
REMARK    6  A    between atoms: C18_31  and  C19_32 
REMARK    7  A    between atoms: C19_32  and  C20_33 
REMARK    8  A    between atoms: C20_33  and  C21_34 
REMARK    9  A    between atoms: C21_34  and  N5_35 
REMARK   10  A    between atoms: C23_42  and  O5_43 
REMARK   11  A    between atoms: C24_45  and  C25_46 
REMARK   12  A    between atoms: C25_46  and  C26_47 
REMARK   13  A    between atoms: C26_47  and  C27_48 
REMARK   14  A    between atoms: C27_48  and  N9_49 
ROOT
HETATM    1  N1  UNL     1      17.854  40.790  18.913  1.00  0.00    -0.339 N 
HETATM    2  C3  UNL     1      18.030  42.129  18.521  1.00  0.00     0.243 C 
HETATM    3  O1  UNL     1      16.918  42.770  18.398  1.00  0.00    -0.271 OA
HETATM    4  C4  UNL     1      19.241  42.932  18.234  1.00  0.00     0.176 C 
HETATM    5  N2  UNL     1      20.393  42.438  18.961  1.00  0.00    -0.359 N 
ATOM      6  H2  UNL     1      20.535  41.435  18.842  1.00  0.00     0.162 HD
HETATM    7  C9  UNL     1      21.339  43.017  19.776  1.00  0.00     0.140 C 
HETATM    8  C10 UNL     1      22.311  44.082  19.490  1.00  0.00     0.089 C 
HETATM    9  C11 UNL     1      23.160  44.379  20.748  1.00  0.00     0.047 C 
HETATM   10  C12 UNL     1      21.601  45.437  19.307  1.00  0.00     0.047 C 
HETATM   11  N3  UNL     1      23.258  43.813  18.437  1.00  0.00    -0.356 N 
ATOM     12  H3  UNL     1      23.361  44.598  17.794  1.00  0.00     0.162 HD
HETATM   13  C13 UNL     1      24.057  42.746  18.097  1.00  0.00     0.140 C 
HETATM   14  C14 UNL     1      23.811  41.336  17.738  1.00  0.00     0.090 C 
HETATM   15  C15 UNL     1      23.599  40.414  18.871  1.00  0.00     0.047 C 
HETATM   16  C16 UNL     1      25.123  40.795  17.081  1.00  0.00     0.047 C 
HETATM   17  N4  UNL     1      22.871  41.279  16.652  1.00  0.00    -0.343 N 
ATOM     18  H4  UNL     1      22.708  42.184  16.211  1.00  0.00     0.163 HD
HETATM   19  C17 UNL     1      22.145  40.256  16.085  1.00  0.00     0.241 C 
HETATM   20  O4  UNL     1      22.214  40.121  14.798  1.00  0.00    -0.271 OA
HETATM   21  C18 UNL     1      21.255  39.232  16.690  1.00  0.00     0.175 C 
HETATM   22  N8  UNL     1      19.878  39.466  16.225  1.00  0.00    -0.359 N 
ATOM     23  H8  UNL     1      19.771  39.595  15.219  1.00  0.00     0.162 HD
HETATM   24  C23 UNL     1      18.716  39.536  16.953  1.00  0.00     0.135 C 
HETATM   25  C24 UNL     1      18.489  39.599  18.402  1.00  0.00     0.161 C 
ENDROOT
BRANCH  21  26
HETATM   26  C19 UNL     1      21.605  37.881  16.040  1.00  0.00     0.036 C 
BRANCH  26  27
HETATM   27  C20 UNL     1      22.657  37.133  16.782  1.00  0.00     0.022 C 
BRANCH  27  28
HETATM   28  C21 UNL     1      23.330  36.104  15.892  1.00  0.00     0.122 C 
BRANCH  28  29
HETATM   29  N5  UNL     1      22.359  35.348  15.132  1.00  0.00    -0.367 N 
HETATM   30  C22 UNL     1      22.303  34.056  15.181  1.00  0.00     0.196 C 
HETATM   31  N6  UNL     1      23.219  33.350  16.004  1.00  0.00    -0.067 NA
HETATM   32  N7  UNL     1      21.360  33.303  14.443  1.00  0.00    -0.067 NA
ATOM     33  H5  UNL     1      21.698  35.849  14.538  1.00  0.00     0.161 HD
ENDBRANCH  28  29
ENDBRANCH  27  28
ENDBRANCH  26  27
ENDBRANCH  21  26
BRANCH  24  34
HETATM   34  O5  UNL     1      17.613  39.548  16.263  1.00  0.00    -0.348 OA
ATOM     35  H5  UNL     1      16.990  38.861  16.466  1.00  0.00     0.219 HD
ENDBRANCH  24  34
BRANCH  25  36
HETATM   36  C25 UNL     1      17.599  38.346  18.650  1.00  0.00     0.035 C 
BRANCH  36  37
HETATM   37  C26 UNL     1      18.288  37.139  18.050  1.00  0.00     0.030 C 
BRANCH  37  38
HETATM   38  C27 UNL     1      17.597  35.838  18.279  1.00  0.00     0.236 C 
BRANCH  38  39
HETATM   39  N9  UNL     1      17.064  35.224  17.111  1.00  0.00    -0.079 N 
HETATM   40  C28 UNL     1      17.946  34.356  16.396  1.00  0.00     0.271 C 
HETATM   41  C29 UNL     1      15.927  34.381  17.564  1.00  0.00     0.271 C 
HETATM   42  C30 UNL     1      16.463  36.154  16.162  1.00  0.00     0.271 C 
ENDBRANCH  38  39
ENDBRANCH  37  38
ENDBRANCH  36  37
ENDBRANCH  25  36
BRANCH  13  43
HETATM   43  O3  UNL     1      25.337  42.990  18.071  1.00  0.00    -0.348 OA
ATOM     44  H3  UNL     1      25.834  42.496  17.430  1.00  0.00     0.219 HD
ENDBRANCH  13  43
BRANCH   1  45
HETATM   45  C2  UNL     1      16.868  40.550  20.005  1.00  0.00     0.122 C 
HETATM   46  C1  UNL     1      17.397  40.912  21.351  1.00  0.00     0.026 C 
ENDBRANCH   1  45
BRANCH   4  47
HETATM   47  C5  UNL     1      19.533  43.274  16.826  1.00  0.00     0.038 C 
BRANCH  47  48
HETATM   48  C6  UNL     1      19.473  44.682  16.381  1.00  0.00    -0.020 C 
HETATM   49  C7  UNL     1      18.126  45.163  15.897  1.00  0.00     0.009 C 
HETATM   50  C8  UNL     1      20.605  45.213  15.571  1.00  0.00     0.009 C 
ENDBRANCH  47  48
ENDBRANCH   4  47
BRANCH   7  51
HETATM   51  O2  UNL     1      21.402  42.564  20.993  1.00  0.00    -0.348 OA
ATOM     52  H2  UNL     1      22.052  41.891  21.156  1.00  0.00     0.219 HD
ENDBRANCH   7  51
TORSDOF 14
ENDMDL
MODEL 2
REMARK VINA RESULT: -5.619880086      1.072      1.246
REMARK  14 active torsions:
REMARK  status: ('A' for Active; 'I' for Inactive)
REMARK    1  A    between atoms: C2_2  and  N1_3 
REMARK    2  A    between atoms: C4_6  and  C5_7 
REMARK    3  A    between atoms: C5_7  and  C6_8 
REMARK    4  A    between atoms: C9_13  and  O2_14 
REMARK    5  A    between atoms: C13_21  and  O3_22 
REMARK    6  A    between atoms: C18_31  and  C19_32 
REMARK    7  A    between atoms: C19_32  and  C20_33 
REMARK    8  A    between atoms: C20_33  and  C21_34 
REMARK    9  A    between atoms: C21_34  and  N5_35 
REMARK   10  A    between atoms: C23_42  and  O5_43 
REMARK   11  A    between atoms: C24_45  and  C25_46 
REMARK   12  A    between atoms: C25_46  and  C26_47 
REMARK   13  A    between atoms: C26_47  and  C27_48 
REMARK   14  A    between atoms: C27_48  and  N9_49 
ROOT
HETATM    1  N1  UNL     1      17.936  40.857  18.934  1.00  0.00    -0.339 N 
HETATM    2  C3  UNL     1      18.129  42.215  18.625  1.00  0.00     0.243 C 
HETATM    3  O1  UNL     1      17.029  42.885  18.580  1.00  0.00    -0.271 OA
HETATM    4  C4  UNL     1      19.349  43.009  18.349  1.00  0.00     0.176 C 
HETATM    5  N2  UNL     1      20.512  42.445  19.004  1.00  0.00    -0.359 N 
ATOM      6  H2  UNL     1      20.627  41.449  18.816  1.00  0.00     0.162 HD
HETATM    7  C9  UNL     1      21.497  42.950  19.824  1.00  0.00     0.140 C 
HETATM    8  C10 UNL     1      22.482  44.011  19.575  1.00  0.00     0.089 C 
HETATM    9  C11 UNL     1      23.379  44.207  20.820  1.00  0.00     0.047 C 
HETATM   10  C12 UNL     1      21.798  45.388  19.503  1.00  0.00     0.047 C 
HETATM   11  N3  UNL     1      23.390  43.791  18.476  1.00  0.00    -0.356 N 
ATOM     12  H3  UNL     1      23.490  44.615  17.882  1.00  0.00     0.162 HD
HETATM   13  C13 UNL     1      24.153  42.732  18.040  1.00  0.00     0.140 C 
HETATM   14  C14 UNL     1      23.863  41.354  17.599  1.00  0.00     0.090 C 
HETATM   15  C15 UNL     1      23.666  40.365  18.676  1.00  0.00     0.047 C 
HETATM   16  C16 UNL     1      25.140  40.831  16.865  1.00  0.00     0.047 C 
HETATM   17  N4  UNL     1      22.888  41.389  16.544  1.00  0.00    -0.343 N 
ATOM     18  H4  UNL     1      22.731  42.324  16.168  1.00  0.00     0.163 HD
HETATM   19  C17 UNL     1      22.120  40.420  15.936  1.00  0.00     0.241 C 
HETATM   20  O4  UNL     1      22.145  40.368  14.641  1.00  0.00    -0.271 OA
HETATM   21  C18 UNL     1      21.227  39.378  16.503  1.00  0.00     0.175 C 
HETATM   22  N8  UNL     1      19.841  39.670  16.100  1.00  0.00    -0.359 N 
ATOM     23  H8  UNL     1      19.706  39.867  15.108  1.00  0.00     0.162 HD
HETATM   24  C23 UNL     1      18.705  39.717  16.869  1.00  0.00     0.135 C 
HETATM   25  C24 UNL     1      18.526  39.689  18.326  1.00  0.00     0.161 C 
ENDROOT
BRANCH  21  26
HETATM   26  C19 UNL     1      21.525  38.065  15.755  1.00  0.00     0.036 C 
BRANCH  26  27
HETATM   27  C20 UNL     1      22.820  37.449  16.155  1.00  0.00     0.022 C 
BRANCH  27  28
HETATM   28  C21 UNL     1      22.661  35.963  16.423  1.00  0.00     0.122 C 
BRANCH  28  29
HETATM   29  N5  UNL     1      21.617  35.710  17.391  1.00  0.00    -0.367 N 
HETATM   30  C22 UNL     1      21.875  35.519  18.645  1.00  0.00     0.196 C 
HETATM   31  N6  UNL     1      23.222  35.557  19.093  1.00  0.00    -0.067 NA
HETATM   32  N7  UNL     1      20.865  35.270  19.605  1.00  0.00    -0.067 NA
ATOM     33  H5  UNL     1      20.647  35.681  17.076  1.00  0.00     0.161 HD
ENDBRANCH  28  29
ENDBRANCH  27  28
ENDBRANCH  26  27
ENDBRANCH  21  26
BRANCH  24  34
HETATM   34  O5  UNL     1      17.582  39.797  16.219  1.00  0.00    -0.348 OA
ATOM     35  H5  UNL     1      16.793  39.761  16.747  1.00  0.00     0.219 HD
ENDBRANCH  24  34
BRANCH  25  36
HETATM   36  C25 UNL     1      17.616  38.441  18.522  1.00  0.00     0.035 C 
BRANCH  36  37
HETATM   37  C26 UNL     1      18.311  37.238  17.920  1.00  0.00     0.030 C 
BRANCH  37  38
HETATM   38  C27 UNL     1      17.664  35.926  18.206  1.00  0.00     0.236 C 
BRANCH  38  39
HETATM   39  N9  UNL     1      17.125  35.259  17.070  1.00  0.00    -0.079 N 
HETATM   40  C28 UNL     1      18.020  34.404  16.357  1.00  0.00     0.271 C 
HETATM   41  C29 UNL     1      16.032  34.389  17.578  1.00  0.00     0.271 C 
HETATM   42  C30 UNL     1      16.465  36.138  16.112  1.00  0.00     0.271 C 
ENDBRANCH  38  39
ENDBRANCH  37  38
ENDBRANCH  36  37
ENDBRANCH  25  36
BRANCH  13  43
HETATM   43  O3  UNL     1      25.436  42.951  17.988  1.00  0.00    -0.348 OA
ATOM     44  H3  UNL     1      25.882  42.584  17.234  1.00  0.00     0.219 HD
ENDBRANCH  13  43
BRANCH   1  45
HETATM   45  C2  UNL     1      16.980  40.566  20.040  1.00  0.00     0.122 C 
HETATM   46  C1  UNL     1      17.532  40.900  21.384  1.00  0.00     0.026 C 
ENDBRANCH   1  45
BRANCH   4  47
HETATM   47  C5  UNL     1      19.603  43.437  16.958  1.00  0.00     0.038 C 
BRANCH  47  48
HETATM   48  C6  UNL     1      19.324  44.830  16.552  1.00  0.00    -0.020 C 
HETATM   49  C7  UNL     1      17.980  45.071  15.909  1.00  0.00     0.009 C 
HETATM   50  C8  UNL     1      20.421  45.610  15.913  1.00  0.00     0.009 C 
ENDBRANCH  47  48
ENDBRANCH   4  47
BRANCH   7  51
HETATM   51  O2  UNL     1      21.588  42.416  21.006  1.00  0.00    -0.348 OA
ATOM     52  H2  UNL     1      21.047  42.805  21.682  1.00  0.00     0.219 HD
ENDBRANCH   7  51
TORSDOF 14
ENDMDL
MODEL 3
REMARK VINA RESULT: -5.422403401      2.676      7.818
REMARK  14 active torsions:
REMARK  status: ('A' for Active; 'I' for Inactive)
REMARK    1  A    between atoms: C2_2  and  N1_3 
REMARK    2  A    between atoms: C4_6  and  C5_7 
REMARK    3  A    between atoms: C5_7  and  C6_8 
REMARK    4  A    between atoms: C9_13  and  O2_14 
REMARK    5  A    between atoms: C13_21  and  O3_22 
REMARK    6  A    between atoms: C18_31  and  C19_32 
REMARK    7  A    between atoms: C19_32  and  C20_33 
REMARK    8  A    between atoms: C20_33  and  C21_34 
REMARK    9  A    between atoms: C21_34  and  N5_35 
REMARK   10  A    between atoms: C23_42  and  O5_43 
REMARK   11  A    between atoms: C24_45  and  C25_46 
REMARK   12  A    between atoms: C25_46  and  C26_47 
REMARK   13  A    between atoms: C26_47  and  C27_48 
REMARK   14  A    between atoms: C27_48  and  N9_49 
ROOT
HETATM    1  N1  UNL     1      22.937  40.694  18.528  1.00  0.00    -0.339 N 
HETATM    2  C3  UNL     1      23.279  40.176  17.266  1.00  0.00     0.243 C 
HETATM    3  O1  UNL     1      24.165  40.885  16.652  1.00  0.00    -0.271 OA
HETATM    4  C4  UNL     1      22.821  38.979  16.523  1.00  0.00     0.176 C 
HETATM    5  N2  UNL     1      22.375  37.933  17.420  1.00  0.00    -0.359 N 
ATOM      6  H2  UNL     1      21.700  38.265  18.109  1.00  0.00     0.162 HD
HETATM    7  C9  UNL     1      22.658  36.592  17.554  1.00  0.00     0.140 C 
HETATM    8  C10 UNL     1      22.473  35.487  16.603  1.00  0.00     0.089 C 
HETATM    9  C11 UNL     1      22.947  34.157  17.234  1.00  0.00     0.047 C 
HETATM   10  C12 UNL     1      23.460  35.606  15.427  1.00  0.00     0.047 C 
HETATM   11  N3  UNL     1      21.122  35.247  16.162  1.00  0.00    -0.356 N 
ATOM     12  H3  UNL     1      21.058  35.112  15.152  1.00  0.00     0.162 HD
HETATM   13  C13 UNL     1      19.897  35.155  16.783  1.00  0.00     0.140 C 
HETATM   14  C14 UNL     1      19.078  36.065  17.606  1.00  0.00     0.090 C 
HETATM   15  C15 UNL     1      19.447  36.144  19.033  1.00  0.00     0.047 C 
HETATM   16  C16 UNL     1      17.632  35.473  17.644  1.00  0.00     0.047 C 
HETATM   17  N4  UNL     1      18.890  37.304  16.901  1.00  0.00    -0.343 N 
ATOM     18  H4  UNL     1      19.169  37.258  15.921  1.00  0.00     0.163 HD
HETATM   19  C17 UNL     1      18.411  38.540  17.275  1.00  0.00     0.241 C 
HETATM   20  O4  UNL     1      17.480  39.063  16.542  1.00  0.00    -0.271 OA
HETATM   21  C18 UNL     1      18.775  39.431  18.406  1.00  0.00     0.175 C 
HETATM   22  N8  UNL     1      19.383  40.659  17.867  1.00  0.00    -0.359 N 
ATOM     23  H8  UNL     1      18.867  41.106  17.109  1.00  0.00     0.162 HD
HETATM   24  C23 UNL     1      20.545  41.287  18.237  1.00  0.00     0.135 C 
HETATM   25  C24 UNL     1      21.633  40.856  19.124  1.00  0.00     0.161 C 
ENDROOT
BRANCH  21  26
HETATM   26  C19 UNL     1      17.462  39.947  19.021  1.00  0.00     0.036 C 
BRANCH  26  27
HETATM   27  C20 UNL     1      17.658  40.617  20.336  1.00  0.00     0.022 C 
BRANCH  27  28
HETATM   28  C21 UNL     1      16.988  41.978  20.365  1.00  0.00     0.122 C 
BRANCH  28  29
HETATM   29  N5  UNL     1      17.961  43.043  20.470  1.00  0.00    -0.367 N 
HETATM   30  C22 UNL     1      18.313  43.755  19.448  1.00  0.00     0.196 C 
HETATM   31  N6  UNL     1      17.733  43.489  18.180  1.00  0.00    -0.067 NA
HETATM   32  N7  UNL     1      19.264  44.799  19.535  1.00  0.00    -0.067 NA
ATOM     33  H5  UNL     1      18.382  43.239  21.378  1.00  0.00     0.161 HD
ENDBRANCH  28  29
ENDBRANCH  27  28
ENDBRANCH  26  27
ENDBRANCH  21  26
BRANCH  24  34
HETATM   34  O5  UNL     1      20.738  42.470  17.732  1.00  0.00    -0.348 OA
ATOM     35  H5  UNL     1      20.712  42.526  16.784  1.00  0.00     0.219 HD
ENDBRANCH  24  34
BRANCH  25  36
HETATM   36  C25 UNL     1      21.650  41.985  20.197  1.00  0.00     0.035 C 
BRANCH  36  37
HETATM   37  C26 UNL     1      21.079  41.433  21.486  1.00  0.00     0.030 C 
BRANCH  37  38
HETATM   38  C27 UNL     1      22.073  41.222  22.577  1.00  0.00     0.236 C 
BRANCH  38  39
HETATM   39  N9  UNL     1      21.540  40.685  23.783  1.00  0.00    -0.079 N 
HETATM   40  C28 UNL     1      22.393  39.800  24.511  1.00  0.00     0.271 C 
HETATM   41  C29 UNL     1      21.282  41.845  24.677  1.00  0.00     0.271 C 
HETATM   42  C30 UNL     1      20.235  40.051  23.636  1.00  0.00     0.271 C 
ENDBRANCH  38  39
ENDBRANCH  37  38
ENDBRANCH  36  37
ENDBRANCH  25  36
BRANCH  13  43
HETATM   43  O3  UNL     1      19.279  34.017  16.636  1.00  0.00    -0.348 OA
ATOM     44  H3  UNL     1      18.838  33.690  17.411  1.00  0.00     0.219 HD
ENDBRANCH  13  43
BRANCH   1  45
HETATM   45  C2  UNL     1      24.072  41.153  19.379  1.00  0.00     0.122 C 
HETATM   46  C1  UNL     1      25.118  40.107  19.559  1.00  0.00     0.026 C 
ENDBRANCH   1  45
BRANCH   4  47
HETATM   47  C5  UNL     1      21.933  39.179  15.359  1.00  0.00     0.038 C 
BRANCH  47  48
HETATM   48  C6  UNL     1      22.333  40.100  14.275  1.00  0.00    -0.020 C 
HETATM   49  C7  UNL     1      22.013  41.558  14.498  1.00  0.00     0.009 C 
HETATM   50  C8  UNL     1      22.112  39.666  12.867  1.00  0.00     0.009 C 
ENDBRANCH  47  48
ENDBRANCH   4  47
BRANCH   7  51
HETATM   51  O2  UNL     1      23.165  36.224  18.693  1.00  0.00    -0.348 OA
ATOM     52  H2  UNL     1      22.902  35.369  19.011  1.00  0.00     0.219 HD
ENDBRANCH   7  51
TORSDOF 14
ENDMDL
MODEL 4
REMARK VINA RESULT: -5.290730588      2.904      7.850
REMARK  14 active torsions:
REMARK  status: ('A' for Active; 'I' for Inactive)
REMARK    1  A    between atoms: C2_2  and  N1_3 
REMARK    2  A    between atoms: C4_6  and  C5_7 
REMARK    3  A    between atoms: C5_7  and  C6_8 
REMARK    4  A    between atoms: C9_13  and  O2_14 
REMARK    5  A    between atoms: C13_21  and  O3_22 
REMARK    6  A    between atoms: C18_31  and  C19_32 
REMARK    7  A    between atoms: C19_32  and  C20_33 
REMARK    8  A    between atoms: C20_33  and  C21_34 
REMARK    9  A    between atoms: C21_34  and  N5_35 
REMARK   10  A    between atoms: C23_42  and  O5_43 
REMARK   11  A    between atoms: C24_45  and  C25_46 
REMARK   12  A    between atoms: C25_46  and  C26_47 
REMARK   13  A    between atoms: C26_47  and  C27_48 
REMARK   14  A    between atoms: C27_48  and  N9_49 
ROOT
HETATM    1  N1  UNL     1      23.059  40.772  18.515  1.00  0.00    -0.339 N 
HETATM    2  C3  UNL     1      23.379  40.251  17.248  1.00  0.00     0.243 C 
HETATM    3  O1  UNL     1      24.272  40.944  16.628  1.00  0.00    -0.271 OA
HETATM    4  C4  UNL     1      22.890  39.065  16.507  1.00  0.00     0.176 C 
HETATM    5  N2  UNL     1      22.432  38.026  17.406  1.00  0.00    -0.359 N 
ATOM      6  H2  UNL     1      21.770  38.369  18.102  1.00  0.00     0.162 HD
HETATM    7  C9  UNL     1      22.690  36.679  17.533  1.00  0.00     0.140 C 
HETATM    8  C10 UNL     1      22.474  35.581  16.581  1.00  0.00     0.089 C 
HETATM    9  C11 UNL     1      22.928  34.240  17.205  1.00  0.00     0.047 C 
HETATM   10  C12 UNL     1      23.452  35.683  15.396  1.00  0.00     0.047 C 
HETATM   11  N3  UNL     1      21.114  35.368  16.153  1.00  0.00    -0.356 N 
ATOM     12  H3  UNL     1      21.038  35.237  15.144  1.00  0.00     0.162 HD
HETATM   13  C13 UNL     1      19.894  35.299  16.786  1.00  0.00     0.140 C 
HETATM   14  C14 UNL     1      19.101  36.222  17.620  1.00  0.00     0.090 C 
HETATM   15  C15 UNL     1      19.485  36.290  19.043  1.00  0.00     0.047 C 
HETATM   16  C16 UNL     1      17.644  35.658  17.670  1.00  0.00     0.047 C 
HETATM   17  N4  UNL     1      18.931  37.466  16.919  1.00  0.00    -0.343 N 
ATOM     18  H4  UNL     1      19.199  37.417  15.936  1.00  0.00     0.163 HD
HETATM   19  C17 UNL     1      18.480  38.710  17.301  1.00  0.00     0.241 C 
HETATM   20  O4  UNL     1      17.551  39.253  16.578  1.00  0.00    -0.271 OA
HETATM   21  C18 UNL     1      18.872  39.591  18.431  1.00  0.00     0.175 C 
HETATM   22  N8  UNL     1      19.498  40.808  17.888  1.00  0.00    -0.359 N 
ATOM     23  H8  UNL     1      18.984  41.267  17.137  1.00  0.00     0.162 HD
HETATM   24  C23 UNL     1      20.677  41.413  18.249  1.00  0.00     0.135 C 
HETATM   25  C24 UNL     1      21.764  40.958  19.124  1.00  0.00     0.161 C 
ENDROOT
BRANCH  21  26
HETATM   26  C19 UNL     1      17.575  40.131  19.060  1.00  0.00     0.036 C 
BRANCH  26  27
HETATM   27  C20 UNL     1      17.803  40.836  20.351  1.00  0.00     0.022 C 
BRANCH  27  28
HETATM   28  C21 UNL     1      16.657  40.599  21.317  1.00  0.00     0.122 C 
BRANCH  28  29
HETATM   29  N5  UNL     1      17.085  39.833  22.467  1.00  0.00    -0.367 N 
HETATM   30  C22 UNL     1      16.247  39.400  23.353  1.00  0.00     0.196 C 
HETATM   31  N6  UNL     1      14.864  39.680  23.201  1.00  0.00    -0.067 NA
HETATM   32  N7  UNL     1      16.651  38.650  24.484  1.00  0.00    -0.067 NA
ATOM     33  H5  UNL     1      18.077  39.629  22.582  1.00  0.00     0.161 HD
ENDBRANCH  28  29
ENDBRANCH  27  28
ENDBRANCH  26  27
ENDBRANCH  21  26
BRANCH  24  34
HETATM   34  O5  UNL     1      20.888  42.593  17.745  1.00  0.00    -0.348 OA
ATOM     35  H5  UNL     1      21.369  43.199  18.294  1.00  0.00     0.219 HD
ENDBRANCH  24  34
BRANCH  25  36
HETATM   36  C25 UNL     1      21.814  42.084  20.199  1.00  0.00     0.035 C 
BRANCH  36  37
HETATM   37  C26 UNL     1      21.230  41.545  21.488  1.00  0.00     0.030 C 
BRANCH  37  38
HETATM   38  C27 UNL     1      22.228  41.226  22.549  1.00  0.00     0.236 C 
BRANCH  38  39
HETATM   39  N9  UNL     1      21.675  40.778  23.782  1.00  0.00    -0.079 N 
HETATM   40  C28 UNL     1      20.479  40.002  23.691  1.00  0.00     0.271 C 
HETATM   41  C29 UNL     1      22.699  39.896  24.401  1.00  0.00     0.271 C 
HETATM   42  C30 UNL     1      21.467  41.831  24.768  1.00  0.00     0.271 C 
ENDBRANCH  38  39
ENDBRANCH  37  38
ENDBRANCH  36  37
ENDBRANCH  25  36
BRANCH  13  43
HETATM   43  O3  UNL     1      19.252  34.173  16.642  1.00  0.00    -0.348 OA
ATOM     44  H3  UNL     1      18.930  33.782  17.446  1.00  0.00     0.219 HD
ENDBRANCH  13  43
BRANCH   1  45
HETATM   45  C2  UNL     1      24.211  41.206  19.355  1.00  0.00     0.122 C 
HETATM   46  C1  UNL     1      25.152  40.093  19.665  1.00  0.00     0.026 C 
ENDBRANCH   1  45
BRANCH   4  47
HETATM   47  C5  UNL     1      21.995  39.285  15.352  1.00  0.00     0.038 C 
BRANCH  47  48
HETATM   48  C6  UNL     1      22.462  40.079  14.196  1.00  0.00    -0.020 C 
HETATM   49  C7  UNL     1      22.321  41.576  14.326  1.00  0.00     0.009 C 
HETATM   50  C8  UNL     1      22.145  39.582  12.828  1.00  0.00     0.009 C 
ENDBRANCH  47  48
ENDBRANCH   4  47
BRANCH   7  51
HETATM   51  O2  UNL     1      23.201  36.298  18.666  1.00  0.00    -0.348 OA
ATOM     52  H2  UNL     1      22.792  35.546  19.078  1.00  0.00     0.219 HD
ENDBRANCH   7  51
TORSDOF 14
ENDMDL
MODEL 5
REMARK VINA RESULT: -5.176031943      2.666      7.711
REMARK  14 active torsions:
REMARK  status: ('A' for Active; 'I' for Inactive)
REMARK    1  A    between atoms: C2_2  and  N1_3 
REMARK    2  A    between atoms: C4_6  and  C5_7 
REMARK    3  A    between atoms: C5_7  and  C6_8 
REMARK    4  A    between atoms: C9_13  and  O2_14 
REMARK    5  A    between atoms: C13_21  and  O3_22 
REMARK    6  A    between atoms: C18_31  and  C19_32 
REMARK    7  A    between atoms: C19_32  and  C20_33 
REMARK    8  A    between atoms: C20_33  and  C21_34 
REMARK    9  A    between atoms: C21_34  and  N5_35 
REMARK   10  A    between atoms: C23_42  and  O5_43 
REMARK   11  A    between atoms: C24_45  and  C25_46 
REMARK   12  A    between atoms: C25_46  and  C26_47 
REMARK   13  A    between atoms: C26_47  and  C27_48 
REMARK   14  A    between atoms: C27_48  and  N9_49 
ROOT
HETATM    1  N1  UNL     1      22.098  41.005  18.735  1.00  0.00    -0.339 N 
HETATM    2  C3  UNL     1      22.458  40.631  17.428  1.00  0.00     0.243 C 
HETATM    3  O1  UNL     1      23.236  41.485  16.854  1.00  0.00    -0.271 OA
HETATM    4  C4  UNL     1      22.119  39.450  16.601  1.00  0.00     0.176 C 
HETATM    5  N2  UNL     1      21.826  38.292  17.421  1.00  0.00    -0.359 N 
ATOM      6  H2  UNL     1      21.139  38.487  18.149  1.00  0.00     0.162 HD
HETATM    7  C9  UNL     1      22.267  36.987  17.438  1.00  0.00     0.140 C 
HETATM    8  C10 UNL     1      22.182  35.946  16.405  1.00  0.00     0.089 C 
HETATM    9  C11 UNL     1      22.827  34.636  16.915  1.00  0.00     0.047 C 
HETATM   10  C12 UNL     1      23.110  36.272  15.220  1.00  0.00     0.047 C 
HETATM   11  N3  UNL     1      20.854  35.582  15.977  1.00  0.00    -0.356 N 
ATOM     12  H3  UNL     1      20.774  35.520  14.962  1.00  0.00     0.162 HD
HETATM   13  C13 UNL     1      19.669  35.298  16.616  1.00  0.00     0.140 C 
HETATM   14  C14 UNL     1      18.777  36.037  17.529  1.00  0.00     0.090 C 
HETATM   15  C15 UNL     1      19.179  36.048  18.949  1.00  0.00     0.047 C 
HETATM   16  C16 UNL     1      17.411  35.277  17.551  1.00  0.00     0.047 C 
HETATM   17  N4  UNL     1      18.424  37.296  16.931  1.00  0.00    -0.343 N 
ATOM     18  H4  UNL     1      18.674  37.360  15.944  1.00  0.00     0.163 HD
HETATM   19  C17 UNL     1      17.816  38.434  17.415  1.00  0.00     0.241 C 
HETATM   20  O4  UNL     1      16.807  38.898  16.748  1.00  0.00    -0.271 OA
HETATM   21  C18 UNL     1      18.110  39.271  18.606  1.00  0.00     0.175 C 
HETATM   22  N8  UNL     1      18.553  40.600  18.154  1.00  0.00    -0.359 N 
ATOM     23  H8  UNL     1      17.965  41.041  17.447  1.00  0.00     0.162 HD
HETATM   24  C23 UNL     1      19.646  41.331  18.548  1.00  0.00     0.135 C 
HETATM   25  C24 UNL     1      20.804  40.964  19.372  1.00  0.00     0.161 C 
ENDROOT
BRANCH  21  26
HETATM   26  C19 UNL     1      16.766  39.578  19.291  1.00  0.00     0.036 C 
BRANCH  26  27
HETATM   27  C20 UNL     1      16.925  40.150  20.656  1.00  0.00     0.022 C 
BRANCH  27  28
HETATM   28  C21 UNL     1      16.536  41.617  20.686  1.00  0.00     0.122 C 
BRANCH  28  29
HETATM   29  N5  UNL     1      15.449  41.894  19.773  1.00  0.00    -0.367 N 
HETATM   30  C22 UNL     1      15.564  42.747  18.806  1.00  0.00     0.196 C 
HETATM   31  N6  UNL     1      16.792  43.437  18.629  1.00  0.00    -0.067 NA
HETATM   32  N7  UNL     1      14.510  43.029  17.906  1.00  0.00    -0.067 NA
ATOM     33  H5  UNL     1      14.564  41.402  19.895  1.00  0.00     0.161 HD
ENDBRANCH  28  29
ENDBRANCH  27  28
ENDBRANCH  26  27
ENDBRANCH  21  26
BRANCH  24  34
HETATM   34  O5  UNL     1      19.684  42.564  18.136  1.00  0.00    -0.348 OA
ATOM     35  H5  UNL     1      20.547  42.956  18.076  1.00  0.00     0.219 HD
ENDBRANCH  24  34
BRANCH  25  36
HETATM   36  C25 UNL     1      20.724  42.000  20.533  1.00  0.00     0.035 C 
BRANCH  36  37
HETATM   37  C26 UNL     1      20.252  41.288  21.782  1.00  0.00     0.030 C 
BRANCH  37  38
HETATM   38  C27 UNL     1      21.309  41.035  22.803  1.00  0.00     0.236 C 
BRANCH  38  39
HETATM   39  N9  UNL     1      20.836  40.541  24.051  1.00  0.00    -0.079 N 
HETATM   40  C28 UNL     1      21.694  39.624  24.733  1.00  0.00     0.271 C 
HETATM   41  C29 UNL     1      20.697  41.723  24.941  1.00  0.00     0.271 C 
HETATM   42  C30 UNL     1      19.495  39.970  24.005  1.00  0.00     0.271 C 
ENDBRANCH  38  39
ENDBRANCH  37  38
ENDBRANCH  36  37
ENDBRANCH  25  36
BRANCH  13  43
HETATM   43  O3  UNL     1      19.183  34.110  16.391  1.00  0.00    -0.348 OA
ATOM     44  H3  UNL     1      18.297  34.090  16.049  1.00  0.00     0.219 HD
ENDBRANCH  13  43
BRANCH   1  45
HETATM   45  C2  UNL     1      23.199  41.527  19.595  1.00  0.00     0.122 C 
HETATM   46  C1  UNL     1      24.384  40.625  19.627  1.00  0.00     0.026 C 
ENDBRANCH   1  45
BRANCH   4  47
HETATM   47  C5  UNL     1      21.177  39.633  15.478  1.00  0.00     0.038 C 
BRANCH  47  48
HETATM   48  C6  UNL     1      21.671  40.114  14.170  1.00  0.00    -0.020 C 
HETATM   49  C7  UNL     1      22.254  39.060  13.259  1.00  0.00     0.009 C 
HETATM   50  C8  UNL     1      22.427  41.397  14.133  1.00  0.00     0.009 C 
ENDBRANCH  47  48
ENDBRANCH   4  47
BRANCH   7  51
HETATM   51  O2  UNL     1      22.850  36.594  18.532  1.00  0.00    -0.348 OA
ATOM     52  H2  UNL     1      22.542  36.993  19.336  1.00  0.00     0.219 HD
ENDBRANCH   7  51
TORSDOF 14
ENDMDL
