MODEL 1
REMARK VINA RESULT: -8.106171961      0.000      0.000
REMARK  14 active torsions:
REMARK  status: ('A' for Active; 'I' for Inactive)
REMARK    1  A    between atoms: C3_3  and  N1_4 
REMARK    2  A    between atoms: N2_7  and  C6_8 
REMARK    3  A    between atoms: C6_8  and  C7_9 
REMARK    4  A    between atoms: C7_9  and  C8_10 
REMARK    5  A    between atoms: C8_10  and  C9_11 
REMARK    6  A    between atoms: C14_22  and  C15_23 
REMARK    7  A    between atoms: C15_23  and  C16_24 
REMARK    8  A    between atoms: C16_24  and  C17_25 
REMARK    9  A    between atoms: C17_25  and  C18_26 
REMARK   10  A    between atoms: C18_26  and  N5_27 
REMARK   11  A    between atoms: C26_43  and  C27_44 
REMARK   12  A    between atoms: C27_44  and  C28_45 
REMARK   13  A    between atoms: C28_45  and  C29_46 
REMARK   14  A    between atoms: C33_50  and  O5_51 
ROOT
HETATM    1  C1  UNL     1      19.968  14.831   2.940  1.00  0.00     0.013 C 
HETATM    2  C2  UNL     1      20.521  14.685   4.000  1.00  0.00    -0.089 C 
HETATM    3  C3  UNL     1      21.204  14.491   5.267  1.00  0.00     0.335 C 
ENDROOT
BRANCH   3   4
HETATM    4  N1  UNL     1      21.987  15.587   5.674  1.00  0.00    -0.002 N 
HETATM    5  C4  UNL     1      21.319  16.870   5.660  1.00  0.00     0.272 C 
HETATM    6  C5  UNL     1      22.479  17.872   5.541  1.00  0.00     0.271 C 
HETATM    7  N2  UNL     1      23.630  17.026   5.517  1.00  0.00    -0.011 N 
HETATM    8  C31 UNL     1      23.861  16.421   6.805  1.00  0.00     0.271 C 
HETATM    9  C33 UNL     1      23.115  15.866   4.765  1.00  0.00     0.532 C 
HETATM   10  C32 UNL     1      22.671  15.456   6.923  1.00  0.00     0.272 C 
BRANCH   7  11
HETATM   11  C6  UNL     1      24.781  17.545   4.887  1.00  0.00     0.243 C 
BRANCH  11  12
HETATM   12  C7  UNL     1      25.397  18.647   5.759  1.00  0.00     0.030 C 
BRANCH  12  13
HETATM   13  C8  UNL     1      25.856  19.720   4.758  1.00  0.00     0.029 C 
BRANCH  13  14
HETATM   14  C9  UNL     1      25.540  21.116   5.313  1.00  0.00     0.107 C 
HETATM   15  N3  UNL     1      26.749  21.805   5.642  1.00  0.00    -0.354 N 
HETATM   16  C10 UNL     1      26.947  22.728   6.698  1.00  0.00     0.218 C 
ATOM     17  H3  UNL     1      27.557  21.611   5.051  1.00  0.00     0.162 HD
HETATM   18  O1  UNL     1      27.946  22.603   7.465  1.00  0.00    -0.274 OA
HETATM   19  C11 UNL     1      26.061  23.880   7.008  1.00  0.00     0.112 C 
HETATM   20  C12 UNL     1      26.625  25.056   6.241  1.00  0.00     0.112 C 
HETATM   21  C13 UNL     1      25.926  26.323   6.477  1.00  0.00     0.218 C 
HETATM   22  O2  UNL     1      25.868  26.758   7.657  1.00  0.00    -0.274 OA
HETATM   23  N4  UNL     1      25.309  27.097   5.456  1.00  0.00    -0.348 N 
HETATM   24  C14 UNL     1      24.544  26.496   4.354  1.00  0.00     0.176 C 
ATOM     25  H4  UNL     1      25.402  28.112   5.490  1.00  0.00     0.163 HD
HETATM   26  C19 UNL     1      25.412  26.272   3.176  1.00  0.00     0.243 C 
HETATM   27  O3  UNL     1      26.529  26.872   3.162  1.00  0.00    -0.271 OA
HETATM   28  N6  UNL     1      25.107  25.448   2.069  1.00  0.00    -0.337 N 
HETATM   29  C20 UNL     1      25.521  25.792   0.709  1.00  0.00     0.127 C 
HETATM   30  C24 UNL     1      24.366  24.208   2.196  1.00  0.00     0.179 C 
HETATM   31  C21 UNL     1      24.260  26.003  -0.103  1.00  0.00     0.020 C 
HETATM   32  C22 UNL     1      23.551  24.668  -0.152  1.00  0.00     0.004 C 
HETATM   33  C23 UNL     1      23.203  24.264   1.239  1.00  0.00     0.035 C 
HETATM   34  C25 UNL     1      25.187  23.005   2.046  1.00  0.00     0.241 C 
HETATM   35  O4  UNL     1      25.590  22.699   0.889  1.00  0.00    -0.271 OA
HETATM   36  N7  UNL     1      25.585  22.126   3.090  1.00  0.00    -0.353 N 
HETATM   37  C26 UNL     1      24.746  21.809   4.229  1.00  0.00     0.107 C 
ATOM     38  H7  UNL     1      26.508  21.696   3.035  1.00  0.00     0.163 HD
BRANCH  24  39
HETATM   39  C15 UNL     1      23.497  27.531   3.916  1.00  0.00     0.035 C 
BRANCH  39  40
HETATM   40  C16 UNL     1      22.277  26.788   3.432  1.00  0.00     0.004 C 
BRANCH  40  41
HETATM   41  C17 UNL     1      21.776  25.791   4.435  1.00  0.00     0.027 C 
BRANCH  41  42
HETATM   42  C18 UNL     1      20.252  25.687   4.325  1.00  0.00     0.229 C 
BRANCH  42  43
HETATM   43  N5  UNL     1      19.645  25.265   5.558  1.00  0.00    -0.079 N 
ATOM     44  H53 UNL     1      18.629  25.234   5.478  1.00  0.00     0.274 HD
ATOM     45  H52 UNL     1      19.824  24.277   5.739  1.00  0.00     0.274 HD
ATOM     46  H51 UNL     1      19.935  25.843   6.348  1.00  0.00     0.274 HD
ENDBRANCH  42  43
ENDBRANCH  41  42
ENDBRANCH  40  41
ENDBRANCH  39  40
ENDBRANCH  24  39
BRANCH  37  47
HETATM   47  C27 UNL     1      23.598  20.986   3.725  1.00  0.00     0.027 C 
BRANCH  47  48
HETATM   48  C28 UNL     1      22.294  21.759   3.696  1.00  0.00     0.002 C 
BRANCH  48  49
HETATM   49  C29 UNL     1      21.435  21.195   2.559  1.00  0.00    -0.004 C 
HETATM   50  C30 UNL     1      22.263  20.406   1.589  1.00  0.00     0.005 C 
ENDBRANCH  48  49
ENDBRANCH  47  48
ENDBRANCH  37  47
ENDBRANCH  13  14
ENDBRANCH  12  13
ENDBRANCH  11  12
ENDBRANCH   7  11
BRANCH   9  51
HETATM   51  O5  UNL     1      24.024  14.819   4.796  1.00  0.00    -0.348 OA
ATOM     52  H5  UNL     1      24.898  15.139   4.606  1.00  0.00     0.214 HD
ENDBRANCH   9  51
ENDBRANCH   3   4
TORSDOF 14
ENDMDL
MODEL 2
REMARK VINA RESULT: -7.853070874      1.143      1.311
REMARK  14 active torsions:
REMARK  status: ('A' for Active; 'I' for Inactive)
REMARK    1  A    between atoms: C3_3  and  N1_4 
REMARK    2  A    between atoms: N2_7  and  C6_8 
REMARK    3  A    between atoms: C6_8  and  C7_9 
REMARK    4  A    between atoms: C7_9  and  C8_10 
REMARK    5  A    between atoms: C8_10  and  C9_11 
REMARK    6  A    between atoms: C14_22  and  C15_23 
REMARK    7  A    between atoms: C15_23  and  C16_24 
REMARK    8  A    between atoms: C16_24  and  C17_25 
REMARK    9  A    between atoms: C17_25  and  C18_26 
REMARK   10  A    between atoms: C18_26  and  N5_27 
REMARK   11  A    between atoms: C26_43  and  C27_44 
REMARK   12  A    between atoms: C27_44  and  C28_45 
REMARK   13  A    between atoms: C28_45  and  C29_46 
REMARK   14  A    between atoms: C33_50  and  O5_51 
ROOT
HETATM    1  C1  UNL     1      20.340  14.815   3.489  1.00  0.00     0.013 C 
HETATM    2  C2  UNL     1      21.009  14.898   4.488  1.00  0.00    -0.089 C 
HETATM    3  C3  UNL     1      21.832  14.981   5.681  1.00  0.00     0.335 C 
ENDROOT
BRANCH   3   4
HETATM    4  N1  UNL     1      22.485  16.216   5.848  1.00  0.00    -0.002 N 
HETATM    5  C4  UNL     1      21.631  17.383   5.805  1.00  0.00     0.272 C 
HETATM    6  C5  UNL     1      22.594  18.512   5.407  1.00  0.00     0.271 C 
HETATM    7  N2  UNL     1      23.848  17.837   5.292  1.00  0.00    -0.011 N 
HETATM    8  C31 UNL     1      24.345  17.434   6.584  1.00  0.00     0.271 C 
HETATM    9  C33 UNL     1      23.420  16.533   4.752  1.00  0.00     0.532 C 
HETATM   10  C32 UNL     1      23.346  16.336   6.983  1.00  0.00     0.272 C 
BRANCH   7  11
HETATM   11  C6  UNL     1      24.806  18.428   4.441  1.00  0.00     0.243 C 
BRANCH  11  12
HETATM   12  C7  UNL     1      24.200  18.646   3.048  1.00  0.00     0.030 C 
BRANCH  12  13
HETATM   13  C8  UNL     1      24.976  19.840   2.472  1.00  0.00     0.029 C 
BRANCH  13  14
HETATM   14  C9  UNL     1      24.937  21.012   3.464  1.00  0.00     0.107 C 
HETATM   15  N3  UNL     1      26.256  21.325   3.916  1.00  0.00    -0.354 N 
HETATM   16  C10 UNL     1      26.632  21.800   5.195  1.00  0.00     0.218 C 
ATOM     17  H3  UNL     1      27.010  21.191   3.242  1.00  0.00     0.162 HD
HETATM   18  O1  UNL     1      27.591  21.253   5.814  1.00  0.00    -0.274 OA
HETATM   19  C11 UNL     1      25.986  22.928   5.916  1.00  0.00     0.112 C 
HETATM   20  C12 UNL     1      26.762  24.167   5.529  1.00  0.00     0.112 C 
HETATM   21  C13 UNL     1      26.322  25.392   6.204  1.00  0.00     0.218 C 
HETATM   22  O2  UNL     1      26.352  25.421   7.462  1.00  0.00    -0.274 OA
HETATM   23  N4  UNL     1      25.862  26.555   5.527  1.00  0.00    -0.348 N 
HETATM   24  C14 UNL     1      24.991  26.496   4.344  1.00  0.00     0.176 C 
ATOM     25  H4  UNL     1      26.148  27.469   5.878  1.00  0.00     0.163 HD
HETATM   26  C19 UNL     1      25.797  26.515   3.102  1.00  0.00     0.243 C 
HETATM   27  O3  UNL     1      27.008  26.875   3.206  1.00  0.00    -0.271 OA
HETATM   28  N6  UNL     1      25.335  26.168   1.811  1.00  0.00    -0.337 N 
HETATM   29  C20 UNL     1      25.803  26.857   0.610  1.00  0.00     0.127 C 
HETATM   30  C24 UNL     1      24.369  25.111   1.584  1.00  0.00     0.179 C 
HETATM   31  C21 UNL     1      24.603  27.546  -0.007  1.00  0.00     0.020 C 
HETATM   32  C22 UNL     1      23.650  26.451  -0.434  1.00  0.00     0.004 C 
HETATM   33  C23 UNL     1      23.235  25.685   0.774  1.00  0.00     0.035 C 
HETATM   34  C25 UNL     1      24.943  23.895   1.003  1.00  0.00     0.241 C 
HETATM   35  O4  UNL     1      25.276  23.916  -0.214  1.00  0.00    -0.271 OA
HETATM   36  N7  UNL     1      25.167  22.666   1.683  1.00  0.00    -0.353 N 
HETATM   37  C26 UNL     1      24.288  22.152   2.713  1.00  0.00     0.107 C 
ATOM     38  H7  UNL     1      25.991  22.119   1.432  1.00  0.00     0.163 HD
BRANCH  24  39
HETATM   39  C15 UNL     1      24.162  27.789   4.331  1.00  0.00     0.035 C 
BRANCH  39  40
HETATM   40  C16 UNL     1      22.760  27.441   3.895  1.00  0.00     0.004 C 
BRANCH  40  41
HETATM   41  C17 UNL     1      22.329  26.086   4.374  1.00  0.00     0.027 C 
BRANCH  41  42
HETATM   42  C18 UNL     1      20.864  25.858   3.989  1.00  0.00     0.229 C 
BRANCH  42  43
HETATM   43  N5  UNL     1      20.085  25.352   5.088  1.00  0.00    -0.079 N 
ATOM     44  H53 UNL     1      19.583  24.504   4.824  1.00  0.00     0.274 HD
ATOM     45  H52 UNL     1      20.684  24.967   5.818  1.00  0.00     0.274 HD
ATOM     46  H51 UNL     1      19.450  26.056   5.465  1.00  0.00     0.274 HD
ENDBRANCH  42  43
ENDBRANCH  41  42
ENDBRANCH  40  41
ENDBRANCH  39  40
ENDBRANCH  24  39
BRANCH  37  47
HETATM   47  C27 UNL     1      23.000  21.761   2.049  1.00  0.00     0.027 C 
BRANCH  47  48
HETATM   48  C28 UNL     1      21.868  21.566   3.038  1.00  0.00     0.002 C 
BRANCH  48  49
HETATM   49  C29 UNL     1      20.955  20.458   2.500  1.00  0.00    -0.004 C 
HETATM   50  C30 UNL     1      21.122  20.286   1.020  1.00  0.00     0.005 C 
ENDBRANCH  48  49
ENDBRANCH  47  48
ENDBRANCH  37  47
ENDBRANCH  13  14
ENDBRANCH  12  13
ENDBRANCH  11  12
ENDBRANCH   7  11
BRANCH   9  51
HETATM   51  O5  UNL     1      24.475  15.633   4.749  1.00  0.00    -0.348 OA
ATOM     52  H5  UNL     1      24.786  15.496   3.861  1.00  0.00     0.214 HD
ENDBRANCH   9  51
ENDBRANCH   3   4
TORSDOF 14
ENDMDL
MODEL 3
REMARK VINA RESULT: -7.565529494      1.287      1.464
REMARK  14 active torsions:
REMARK  status: ('A' for Active; 'I' for Inactive)
REMARK    1  A    between atoms: C3_3  and  N1_4 
REMARK    2  A    between atoms: N2_7  and  C6_8 
REMARK    3  A    between atoms: C6_8  and  C7_9 
REMARK    4  A    between atoms: C7_9  and  C8_10 
REMARK    5  A    between atoms: C8_10  and  C9_11 
REMARK    6  A    between atoms: C14_22  and  C15_23 
REMARK    7  A    between atoms: C15_23  and  C16_24 
REMARK    8  A    between atoms: C16_24  and  C17_25 
REMARK    9  A    between atoms: C17_25  and  C18_26 
REMARK   10  A    between atoms: C18_26  and  N5_27 
REMARK   11  A    between atoms: C26_43  and  C27_44 
REMARK   12  A    between atoms: C27_44  and  C28_45 
REMARK   13  A    between atoms: C28_45  and  C29_46 
REMARK   14  A    between atoms: C33_50  and  O5_51 
ROOT
HETATM    1  C1  UNL     1      19.557  13.808   3.695  1.00  0.00     0.013 C 
HETATM    2  C2  UNL     1      20.114  13.861   4.763  1.00  0.00    -0.089 C 
HETATM    3  C3  UNL     1      20.799  13.907   6.041  1.00  0.00     0.335 C 
ENDROOT
BRANCH   3   4
HETATM    4  N1  UNL     1      21.587  15.057   6.234  1.00  0.00    -0.002 N 
HETATM    5  C4  UNL     1      20.940  16.314   5.925  1.00  0.00     0.272 C 
HETATM    6  C5  UNL     1      22.119  17.257   5.636  1.00  0.00     0.271 C 
HETATM    7  N2  UNL     1      23.257  16.415   5.831  1.00  0.00    -0.011 N 
HETATM    8  C31 UNL     1      23.438  16.095   7.226  1.00  0.00     0.271 C 
HETATM    9  C33 UNL     1      22.747  15.127   5.325  1.00  0.00     0.532 C 
HETATM   10  C32 UNL     1      22.229  15.188   7.505  1.00  0.00     0.272 C 
BRANCH   7  11
HETATM   11  C6  UNL     1      24.435  16.778   5.145  1.00  0.00     0.243 C 
BRANCH  11  12
HETATM   12  C7  UNL     1      25.191  17.849   5.943  1.00  0.00     0.030 C 
BRANCH  12  13
HETATM   13  C8  UNL     1      25.510  18.945   4.914  1.00  0.00     0.029 C 
BRANCH  13  14
HETATM   14  C9  UNL     1      25.406  20.326   5.576  1.00  0.00     0.107 C 
HETATM   15  N3  UNL     1      26.709  20.872   5.794  1.00  0.00    -0.354 N 
HETATM   16  C10 UNL     1      27.122  21.701   6.866  1.00  0.00     0.218 C 
ATOM     17  H3  UNL     1      27.420  20.639   5.100  1.00  0.00     0.162 HD
HETATM   18  O1  UNL     1      28.184  21.430   7.499  1.00  0.00    -0.274 OA
HETATM   19  C11 UNL     1      26.401  22.910   7.342  1.00  0.00     0.112 C 
HETATM   20  C12 UNL     1      26.991  24.074   6.575  1.00  0.00     0.112 C 
HETATM   21  C13 UNL     1      26.460  25.384   6.961  1.00  0.00     0.218 C 
HETATM   22  O2  UNL     1      26.582  25.745   8.161  1.00  0.00    -0.274 OA
HETATM   23  N4  UNL     1      25.813  26.279   6.065  1.00  0.00    -0.348 N 
HETATM   24  C14 UNL     1      24.869  25.828   5.033  1.00  0.00     0.176 C 
ATOM     25  H4  UNL     1      26.014  27.276   6.141  1.00  0.00     0.163 HD
HETATM   26  C19 UNL     1      25.569  25.598   3.749  1.00  0.00     0.243 C 
HETATM   27  O3  UNL     1      26.733  26.087   3.632  1.00  0.00    -0.271 OA
HETATM   28  N6  UNL     1      25.055  24.881   2.643  1.00  0.00    -0.337 N 
HETATM   29  C20 UNL     1      25.345  25.272   1.265  1.00  0.00     0.127 C 
HETATM   30  C24 UNL     1      24.209  23.714   2.793  1.00  0.00     0.179 C 
HETATM   31  C21 UNL     1      24.027  25.656   0.623  1.00  0.00     0.020 C 
HETATM   32  C22 UNL     1      23.182  24.402   0.588  1.00  0.00     0.004 C 
HETATM   33  C23 UNL     1      22.956  23.944   1.987  1.00  0.00     0.035 C 
HETATM   34  C25 UNL     1      24.878  22.449   2.481  1.00  0.00     0.241 C 
HETATM   35  O4  UNL     1      25.113  22.181   1.270  1.00  0.00    -0.271 OA
HETATM   36  N7  UNL     1      25.300  21.469   3.421  1.00  0.00    -0.353 N 
HETATM   37  C26 UNL     1      24.569  21.161   4.634  1.00  0.00     0.107 C 
ATOM     38  H7  UNL     1      26.162  20.957   3.232  1.00  0.00     0.163 HD
BRANCH  24  39
HETATM   39  C15 UNL     1      23.891  26.985   4.780  1.00  0.00     0.035 C 
BRANCH  39  40
HETATM   40  C16 UNL     1      22.540  26.397   4.462  1.00  0.00     0.004 C 
BRANCH  40  41
HETATM   41  C17 UNL     1      21.795  27.193   3.431  1.00  0.00     0.027 C 
BRANCH  41  42
HETATM   42  C18 UNL     1      22.721  28.272   2.861  1.00  0.00     0.229 C 
BRANCH  42  43
HETATM   43  N5  UNL     1      22.078  29.556   2.784  1.00  0.00    -0.079 N 
ATOM     44  H53 UNL     1      22.216  30.090   3.642  1.00  0.00     0.274 HD
ATOM     45  H52 UNL     1      22.561  30.172   2.130  1.00  0.00     0.274 HD
ATOM     46  H51 UNL     1      21.087  29.477   2.554  1.00  0.00     0.274 HD
ENDBRANCH  42  43
ENDBRANCH  41  42
ENDBRANCH  40  41
ENDBRANCH  39  40
ENDBRANCH  24  39
BRANCH  37  47
HETATM   47  C27 UNL     1      23.292  20.488   4.229  1.00  0.00     0.027 C 
BRANCH  47  48
HETATM   48  C28 UNL     1      23.433  19.686   2.951  1.00  0.00     0.002 C 
BRANCH  48  49
HETATM   49  C29 UNL     1      22.232  20.008   2.055  1.00  0.00    -0.004 C 
HETATM   50  C30 UNL     1      21.376  21.083   2.655  1.00  0.00     0.005 C 
ENDBRANCH  48  49
ENDBRANCH  47  48
ENDBRANCH  37  47
ENDBRANCH  13  14
ENDBRANCH  12  13
ENDBRANCH  11  12
ENDBRANCH   7  11
BRANCH   9  51
HETATM   51  O5  UNL     1      23.638  14.102   5.608  1.00  0.00    -0.348 OA
ATOM     52  H5  UNL     1      24.352  14.428   6.144  1.00  0.00     0.214 HD
ENDBRANCH   9  51
ENDBRANCH   3   4
TORSDOF 14
ENDMDL
MODEL 4
REMARK VINA RESULT: -7.475865883      1.344      1.787
REMARK  14 active torsions:
REMARK  status: ('A' for Active; 'I' for Inactive)
REMARK    1  A    between atoms: C3_3  and  N1_4 
REMARK    2  A    between atoms: N2_7  and  C6_8 
REMARK    3  A    between atoms: C6_8  and  C7_9 
REMARK    4  A    between atoms: C7_9  and  C8_10 
REMARK    5  A    between atoms: C8_10  and  C9_11 
REMARK    6  A    between atoms: C14_22  and  C15_23 
REMARK    7  A    between atoms: C15_23  and  C16_24 
REMARK    8  A    between atoms: C16_24  and  C17_25 
REMARK    9  A    between atoms: C17_25  and  C18_26 
REMARK   10  A    between atoms: C18_26  and  N5_27 
REMARK   11  A    between atoms: C26_43  and  C27_44 
REMARK   12  A    between atoms: C27_44  and  C28_45 
REMARK   13  A    between atoms: C28_45  and  C29_46 
REMARK   14  A    between atoms: C33_50  and  O5_51 
ROOT
HETATM    1  C1  UNL     1      19.588  14.445   3.020  1.00  0.00     0.013 C 
HETATM    2  C2  UNL     1      20.191  14.280   4.051  1.00  0.00    -0.089 C 
HETATM    3  C3  UNL     1      20.933  14.065   5.279  1.00  0.00     0.335 C 
ENDROOT
BRANCH   3   4
HETATM    4  N1  UNL     1      21.736  15.153   5.668  1.00  0.00    -0.002 N 
HETATM    5  C4  UNL     1      21.092  16.449   5.625  1.00  0.00     0.272 C 
HETATM    6  C5  UNL     1      22.271  17.425   5.491  1.00  0.00     0.271 C 
HETATM    7  N2  UNL     1      23.406  16.558   5.489  1.00  0.00    -0.011 N 
HETATM    8  C31 UNL     1      23.621  15.974   6.791  1.00  0.00     0.271 C 
HETATM    9  C33 UNL     1      22.873  15.393   4.759  1.00  0.00     0.532 C 
HETATM   10  C32 UNL     1      22.412  15.034   6.922  1.00  0.00     0.272 C 
BRANCH   7  11
HETATM   11  C6  UNL     1      24.569  17.043   4.854  1.00  0.00     0.243 C 
BRANCH  11  12
HETATM   12  C7  UNL     1      25.232  18.113   5.732  1.00  0.00     0.030 C 
BRANCH  12  13
HETATM   13  C8  UNL     1      25.639  19.221   4.747  1.00  0.00     0.029 C 
BRANCH  13  14
HETATM   14  C9  UNL     1      25.493  20.593   5.421  1.00  0.00     0.107 C 
HETATM   15  N3  UNL     1      26.779  21.159   5.681  1.00  0.00    -0.354 N 
HETATM   16  C10 UNL     1      27.148  21.983   6.772  1.00  0.00     0.218 C 
ATOM     17  H3  UNL     1      27.513  20.946   5.005  1.00  0.00     0.162 HD
HETATM   18  O1  UNL     1      28.196  21.723   7.432  1.00  0.00    -0.274 OA
HETATM   19  C11 UNL     1      26.393  23.174   7.241  1.00  0.00     0.112 C 
HETATM   20  C12 UNL     1      26.984  24.356   6.503  1.00  0.00     0.112 C 
HETATM   21  C13 UNL     1      26.420  25.653   6.888  1.00  0.00     0.218 C 
HETATM   22  O2  UNL     1      26.502  26.002   8.095  1.00  0.00    -0.274 OA
HETATM   23  N4  UNL     1      25.783  26.546   5.984  1.00  0.00    -0.348 N 
HETATM   24  C14 UNL     1      24.875  26.091   4.921  1.00  0.00     0.176 C 
ATOM     25  H4  UNL     1      25.964  27.546   6.076  1.00  0.00     0.163 HD
HETATM   26  C19 UNL     1      25.615  25.887   3.654  1.00  0.00     0.243 C 
HETATM   27  O3  UNL     1      26.773  26.397   3.575  1.00  0.00    -0.271 OA
HETATM   28  N6  UNL     1      25.145  25.174   2.528  1.00  0.00    -0.337 N 
HETATM   29  C20 UNL     1      25.466  25.584   1.161  1.00  0.00     0.127 C 
HETATM   30  C24 UNL     1      24.315  23.990   2.641  1.00  0.00     0.179 C 
HETATM   31  C21 UNL     1      24.161  25.953   0.487  1.00  0.00     0.020 C 
HETATM   32  C22 UNL     1      23.339  24.685   0.416  1.00  0.00     0.004 C 
HETATM   33  C23 UNL     1      23.081  24.208   1.803  1.00  0.00     0.035 C 
HETATM   34  C25 UNL     1      25.015  22.740   2.335  1.00  0.00     0.241 C 
HETATM   35  O4  UNL     1      25.287  22.490   1.128  1.00  0.00    -0.271 OA
HETATM   36  N7  UNL     1      25.427  21.758   3.276  1.00  0.00    -0.353 N 
HETATM   37  C26 UNL     1      24.668  21.424   4.465  1.00  0.00     0.107 C 
ATOM     38  H7  UNL     1      26.302  21.263   3.106  1.00  0.00     0.163 HD
BRANCH  24  39
HETATM   39  C15 UNL     1      23.886  27.234   4.653  1.00  0.00     0.035 C 
BRANCH  39  40
HETATM   40  C16 UNL     1      24.600  28.540   4.901  1.00  0.00     0.004 C 
BRANCH  40  41
HETATM   41  C17 UNL     1      24.180  29.615   3.943  1.00  0.00     0.027 C 
BRANCH  41  42
HETATM   42  C18 UNL     1      24.429  29.137   2.508  1.00  0.00     0.229 C 
BRANCH  42  43
HETATM   43  N5  UNL     1      25.829  29.114   2.178  1.00  0.00    -0.079 N 
ATOM     44  H53 UNL     1      26.004  28.534   1.358  1.00  0.00     0.274 HD
ATOM     45  H52 UNL     1      26.136  30.014   1.809  1.00  0.00     0.274 HD
ATOM     46  H51 UNL     1      26.406  28.823   2.967  1.00  0.00     0.274 HD
ENDBRANCH  42  43
ENDBRANCH  41  42
ENDBRANCH  40  41
ENDBRANCH  39  40
ENDBRANCH  24  39
BRANCH  37  47
HETATM   47  C27 UNL     1      23.414  20.734   4.017  1.00  0.00     0.027 C 
BRANCH  47  48
HETATM   48  C28 UNL     1      22.270  21.698   3.776  1.00  0.00     0.002 C 
BRANCH  48  49
HETATM   49  C29 UNL     1      21.446  21.172   2.596  1.00  0.00    -0.004 C 
HETATM   50  C30 UNL     1      22.271  20.289   1.707  1.00  0.00     0.005 C 
ENDBRANCH  48  49
ENDBRANCH  47  48
ENDBRANCH  37  47
ENDBRANCH  13  14
ENDBRANCH  12  13
ENDBRANCH  11  12
ENDBRANCH   7  11
BRANCH   9  51
HETATM   51  O5  UNL     1      23.761  14.330   4.815  1.00  0.00    -0.348 OA
ATOM     52  H5  UNL     1      24.508  14.556   5.357  1.00  0.00     0.214 HD
ENDBRANCH   9  51
ENDBRANCH   3   4
TORSDOF 14
ENDMDL
MODEL 5
REMARK VINA RESULT: -7.337518438      1.778      2.546
REMARK  14 active torsions:
REMARK  status: ('A' for Active; 'I' for Inactive)
REMARK    1  A    between atoms: C3_3  and  N1_4 
REMARK    2  A    between atoms: N2_7  and  C6_8 
REMARK    3  A    between atoms: C6_8  and  C7_9 
REMARK    4  A    between atoms: C7_9  and  C8_10 
REMARK    5  A    between atoms: C8_10  and  C9_11 
REMARK    6  A    between atoms: C14_22  and  C15_23 
REMARK    7  A    between atoms: C15_23  and  C16_24 
REMARK    8  A    between atoms: C16_24  and  C17_25 
REMARK    9  A    between atoms: C17_25  and  C18_26 
REMARK   10  A    between atoms: C18_26  and  N5_27 
REMARK   11  A    between atoms: C26_43  and  C27_44 
REMARK   12  A    between atoms: C27_44  and  C28_45 
REMARK   13  A    between atoms: C28_45  and  C29_46 
REMARK   14  A    between atoms: C33_50  and  O5_51 
ROOT
HETATM    1  C1  UNL     1      20.454  14.700   3.624  1.00  0.00     0.013 C 
HETATM    2  C2  UNL     1      21.226  14.802   4.544  1.00  0.00    -0.089 C 
HETATM    3  C3  UNL     1      22.174  14.910   5.638  1.00  0.00     0.335 C 
ENDROOT
BRANCH   3   4
HETATM    4  N1  UNL     1      22.707  16.200   5.815  1.00  0.00    -0.002 N 
HETATM    5  C4  UNL     1      21.745  17.281   5.792  1.00  0.00     0.272 C 
HETATM    6  C5  UNL     1      22.592  18.502   5.400  1.00  0.00     0.271 C 
HETATM    7  N2  UNL     1      23.904  17.951   5.268  1.00  0.00    -0.011 N 
HETATM    8  C31 UNL     1      24.448  17.583   6.552  1.00  0.00     0.271 C 
HETATM    9  C33 UNL     1      23.598  16.618   4.716  1.00  0.00     0.532 C 
HETATM   10  C32 UNL     1      23.562  16.390   6.945  1.00  0.00     0.272 C 
BRANCH   7  11
HETATM   11  C6  UNL     1      24.794  18.640   4.418  1.00  0.00     0.243 C 
BRANCH  11  12
HETATM   12  C7  UNL     1      24.160  18.812   3.031  1.00  0.00     0.030 C 
BRANCH  12  13
HETATM   13  C8  UNL     1      24.834  20.065   2.451  1.00  0.00     0.029 C 
BRANCH  13  14
HETATM   14  C9  UNL     1      24.871  21.173   3.513  1.00  0.00     0.107 C 
HETATM   15  N3  UNL     1      26.214  21.396   3.951  1.00  0.00    -0.354 N 
HETATM   16  C10 UNL     1      26.639  21.773   5.249  1.00  0.00     0.218 C 
ATOM     17  H3  UNL     1      26.946  21.270   3.253  1.00  0.00     0.162 HD
HETATM   18  O1  UNL     1      27.583  21.144   5.810  1.00  0.00    -0.274 OA
HETATM   19  C11 UNL     1      26.062  22.882   6.052  1.00  0.00     0.112 C 
HETATM   20  C12 UNL     1      26.888  24.106   5.723  1.00  0.00     0.112 C 
HETATM   21  C13 UNL     1      26.521  25.305   6.482  1.00  0.00     0.218 C 
HETATM   22  O2  UNL     1      26.579  25.254   7.738  1.00  0.00    -0.274 OA
HETATM   23  N4  UNL     1      26.103  26.528   5.889  1.00  0.00    -0.348 N 
HETATM   24  C14 UNL     1      25.206  26.583   4.726  1.00  0.00     0.176 C 
ATOM     25  H4  UNL     1      26.440  27.404   6.287  1.00  0.00     0.163 HD
HETATM   26  C19 UNL     1      25.985  26.643   3.468  1.00  0.00     0.243 C 
HETATM   27  O3  UNL     1      27.214  26.939   3.565  1.00  0.00    -0.271 OA
HETATM   28  N6  UNL     1      25.479  26.398   2.170  1.00  0.00    -0.337 N 
HETATM   29  C20 UNL     1      25.955  27.138   1.002  1.00  0.00     0.127 C 
HETATM   30  C24 UNL     1      24.460  25.403   1.902  1.00  0.00     0.179 C 
HETATM   31  C21 UNL     1      24.776  27.918   0.457  1.00  0.00     0.020 C 
HETATM   32  C22 UNL     1      23.763  26.898  -0.013  1.00  0.00     0.004 C 
HETATM   33  C23 UNL     1      23.338  26.079   1.156  1.00  0.00     0.035 C 
HETATM   34  C25 UNL     1      24.962  24.200   1.234  1.00  0.00     0.241 C 
HETATM   35  O4  UNL     1      25.270  24.281   0.012  1.00  0.00    -0.271 OA
HETATM   36  N7  UNL     1      25.143  22.923   1.832  1.00  0.00    -0.353 N 
HETATM   37  C26 UNL     1      24.261  22.387   2.850  1.00  0.00     0.107 C 
ATOM     38  H7  UNL     1      25.934  22.354   1.528  1.00  0.00     0.163 HD
BRANCH  24  39
HETATM   39  C15 UNL     1      24.439  27.911   4.811  1.00  0.00     0.035 C 
BRANCH  39  40
HETATM   40  C16 UNL     1      25.295  28.899   5.563  1.00  0.00     0.004 C 
BRANCH  40  41
HETATM   41  C17 UNL     1      25.457  30.196   4.826  1.00  0.00     0.027 C 
BRANCH  41  42
HETATM   42  C18 UNL     1      26.935  30.395   4.474  1.00  0.00     0.229 C 
BRANCH  42  43
HETATM   43  N5  UNL     1      27.789  29.472   5.172  1.00  0.00    -0.079 N 
ATOM     44  H53 UNL     1      27.270  28.649   5.477  1.00  0.00     0.274 HD
ATOM     45  H52 UNL     1      28.446  29.023   4.534  1.00  0.00     0.274 HD
ATOM     46  H51 UNL     1      28.275  29.912   5.953  1.00  0.00     0.274 HD
ENDBRANCH  42  43
ENDBRANCH  41  42
ENDBRANCH  40  41
ENDBRANCH  39  40
ENDBRANCH  24  39
BRANCH  37  47
HETATM   47  C27 UNL     1      22.943  22.098   2.194  1.00  0.00     0.027 C 
BRANCH  47  48
HETATM   48  C28 UNL     1      21.868  21.709   3.190  1.00  0.00     0.002 C 
BRANCH  48  49
HETATM   49  C29 UNL     1      21.101  20.513   2.615  1.00  0.00    -0.004 C 
HETATM   50  C30 UNL     1      21.203  20.467   1.119  1.00  0.00     0.005 C 
ENDBRANCH  48  49
ENDBRANCH  47  48
ENDBRANCH  37  47
ENDBRANCH  13  14
ENDBRANCH  12  13
ENDBRANCH  11  12
ENDBRANCH   7  11
BRANCH   9  51
HETATM   51  O5  UNL     1      24.735  15.823   4.695  1.00  0.00    -0.348 OA
ATOM     52  H5  UNL     1      24.682  15.196   3.983  1.00  0.00     0.214 HD
ENDBRANCH   9  51
ENDBRANCH   3   4
TORSDOF 14
ENDMDL
