MODEL 1
REMARK VINA RESULT: -7.835692243      0.000      0.000
REMARK  14 active torsions:
REMARK  status: ('A' for Active; 'I' for Inactive)
REMARK    1  A    between atoms: C5_7  and  C6_8 
REMARK    2  A    between atoms: C6_8  and  C7_9 
REMARK    3  A    between atoms: C7_9  and  N2_10 
REMARK    4  A    between atoms: C8_11  and  C9_12 
REMARK    5  A    between atoms: C9_12  and  C10_13 
REMARK    6  A    between atoms: C13_16  and  O1_17 
REMARK    7  A    between atoms: C14_21  and  C15_22 
REMARK    8  A    between atoms: C15_22  and  C16_23 
REMARK    9  A    between atoms: C16_23  and  C17_24 
REMARK   10  A    between atoms: C17_24  and  N4_25 
REMARK   11  A    between atoms: C19_30  and  O2_31 
REMARK   12  A    between atoms: C20_35  and  C21_36 
REMARK   13  A    between atoms: C21_36  and  C22_37 
REMARK   14  A    between atoms: C26_44  and  C27_45 
ROOT
HETATM    1  C1  UNL     1      21.465  14.699   8.575  1.00  0.00     0.018 C 
HETATM    2  C2  UNL     1      22.155  14.969   7.614  1.00  0.00    -0.076 C 
HETATM    3  C3  UNL     1      22.977  15.319   6.472  1.00  0.00     0.034 A 
HETATM    4  C4  UNL     1      23.455  14.464   5.506  1.00  0.00     0.108 A 
HETATM    5  N1  UNL     1      24.199  15.156   4.583  1.00  0.00    -0.368 N 
ATOM      6  H1  UNL     1      24.665  14.761   3.768  1.00  0.00     0.165 HD
HETATM    7  C5  UNL     1      24.202  16.431   4.945  1.00  0.00     0.011 A 
HETATM    8  C32 UNL     1      23.445  16.565   6.127  1.00  0.00     0.047 A 
ENDROOT
BRANCH   7   9
HETATM    9  C6  UNL     1      24.858  17.592   4.285  1.00  0.00     0.073 C 
BRANCH   9  10
HETATM   10  C7  UNL     1      25.288  18.568   5.299  1.00  0.00     0.121 C 
BRANCH  10  11
HETATM   11  N2  UNL     1      25.133  19.948   5.155  1.00  0.00    -0.214 NA
HETATM   12  C8  UNL     1      25.374  20.789   6.342  1.00  0.00     0.154 C 
HETATM   13  C13 UNL     1      26.585  21.583   6.196  1.00  0.00     0.136 C 
HETATM   14  N3  UNL     1      26.874  22.867   5.737  1.00  0.00    -0.339 N 
HETATM   15  C14 UNL     1      26.818  24.194   6.142  1.00  0.00     0.062 C 
ATOM     16  H3  UNL     1      27.251  22.815   4.790  1.00  0.00     0.167 HD
HETATM   17  C19 UNL     1      25.609  24.955   5.780  1.00  0.00     0.159 C 
HETATM   18  N7  UNL     1      24.808  24.982   4.655  1.00  0.00    -0.356 N 
HETATM   19  C20 UNL     1      24.154  23.951   3.902  1.00  0.00     0.176 C 
ATOM     20  H7  UNL     1      24.650  25.921   4.288  1.00  0.00     0.162 HD
HETATM   21  C25 UNL     1      24.985  23.531   2.717  1.00  0.00     0.241 C 
HETATM   22  O3  UNL     1      25.213  24.497   1.932  1.00  0.00    -0.271 OA
HETATM   23  N8  UNL     1      25.497  22.269   2.412  1.00  0.00    -0.346 N 
HETATM   24  C26 UNL     1      24.873  21.002   2.249  1.00  0.00     0.181 C 
ATOM     25  H8  UNL     1      26.508  22.253   2.281  1.00  0.00     0.163 HD
HETATM   26  C30 UNL     1      23.796  20.639   3.172  1.00  0.00     0.257 C 
HETATM   27  O4  UNL     1      22.626  20.725   2.690  1.00  0.00    -0.270 OA
HETATM   28  N9  UNL     1      23.922  20.210   4.512  1.00  0.00    -0.282 N 
HETATM   29  C31 UNL     1      22.690  20.023   5.260  1.00  0.00     0.175 C 
BRANCH  12  30
HETATM   30  C9  UNL     1      25.104  20.051   7.577  1.00  0.00     0.034 C 
BRANCH  30  31
HETATM   31  C10 UNL     1      25.394  20.533   8.932  1.00  0.00    -0.021 C 
HETATM   32  C11 UNL     1      25.787  19.557   9.996  1.00  0.00     0.009 C 
HETATM   33  C12 UNL     1      24.149  21.266   9.524  1.00  0.00     0.009 C 
ENDBRANCH  30  31
ENDBRANCH  12  30
BRANCH  13  34
HETATM   34  O1  UNL     1      27.639  20.920   6.585  1.00  0.00    -0.348 OA
ATOM     35  H1  UNL     1      28.433  21.277   6.206  1.00  0.00     0.219 HD
ENDBRANCH  13  34
BRANCH  15  36
HETATM   36  C15 UNL     1      27.275  24.579   7.521  1.00  0.00     0.063 C 
BRANCH  36  37
HETATM   37  C16 UNL     1      28.459  25.508   7.542  1.00  0.00     0.026 C 
BRANCH  37  38
HETATM   38  C17 UNL     1      28.191  26.505   8.685  1.00  0.00     0.122 C 
BRANCH  38  39
HETATM   39  N4  UNL     1      27.024  27.284   8.319  1.00  0.00    -0.367 N 
HETATM   40  C18 UNL     1      27.213  28.519   7.971  1.00  0.00     0.196 C 
HETATM   41  N5  UNL     1      28.499  29.118   7.939  1.00  0.00    -0.067 NA
HETATM   42  N6  UNL     1      26.093  29.329   7.602  1.00  0.00    -0.067 NA
ATOM     43  H4  UNL     1      26.089  26.875   8.335  1.00  0.00     0.161 HD
ENDBRANCH  38  39
ENDBRANCH  37  38
ENDBRANCH  36  37
ENDBRANCH  15  36
BRANCH  17  44
HETATM   44  O2  UNL     1      25.253  25.768   6.746  1.00  0.00    -0.345 OA
ATOM     45  H2  UNL     1      24.346  25.631   6.994  1.00  0.00     0.219 HD
ENDBRANCH  17  44
BRANCH  19  46
HETATM   46  C21 UNL     1      22.800  24.406   3.430  1.00  0.00     0.038 C 
BRANCH  46  47
HETATM   47  C22 UNL     1      22.265  25.695   3.905  1.00  0.00    -0.020 C 
HETATM   48  C23 UNL     1      20.868  25.357   4.505  1.00  0.00     0.009 C 
HETATM   49  C24 UNL     1      22.117  26.814   2.946  1.00  0.00     0.009 C 
ENDBRANCH  46  47
ENDBRANCH  19  46
BRANCH  24  50
HETATM   50  C27 UNL     1      24.505  20.726   0.778  1.00  0.00     0.009 C 
HETATM   51  C28 UNL     1      25.572  21.223  -0.149  1.00  0.00     0.012 C 
HETATM   52  C29 UNL     1      24.161  19.316   0.497  1.00  0.00     0.012 C 
ENDBRANCH  24  50
ENDBRANCH  10  11
ENDBRANCH   9  10
ENDBRANCH   7   9
TORSDOF 14
ENDMDL
MODEL 2
REMARK VINA RESULT: -7.610781675      1.485      1.799
REMARK  14 active torsions:
REMARK  status: ('A' for Active; 'I' for Inactive)
REMARK    1  A    between atoms: C5_7  and  C6_8 
REMARK    2  A    between atoms: C6_8  and  C7_9 
REMARK    3  A    between atoms: C7_9  and  N2_10 
REMARK    4  A    between atoms: C8_11  and  C9_12 
REMARK    5  A    between atoms: C9_12  and  C10_13 
REMARK    6  A    between atoms: C13_16  and  O1_17 
REMARK    7  A    between atoms: C14_21  and  C15_22 
REMARK    8  A    between atoms: C15_22  and  C16_23 
REMARK    9  A    between atoms: C16_23  and  C17_24 
REMARK   10  A    between atoms: C17_24  and  N4_25 
REMARK   11  A    between atoms: C19_30  and  O2_31 
REMARK   12  A    between atoms: C20_35  and  C21_36 
REMARK   13  A    between atoms: C21_36  and  C22_37 
REMARK   14  A    between atoms: C26_44  and  C27_45 
ROOT
HETATM    1  C1  UNL     1      19.764  14.412   5.439  1.00  0.00     0.018 C 
HETATM    2  C2  UNL     1      20.893  14.805   5.230  1.00  0.00    -0.076 C 
HETATM    3  C3  UNL     1      22.231  15.298   4.969  1.00  0.00     0.034 A 
HETATM    4  C4  UNL     1      23.414  14.633   5.193  1.00  0.00     0.108 A 
HETATM    5  N1  UNL     1      24.479  15.417   4.824  1.00  0.00    -0.368 N 
ATOM      6  H1  UNL     1      25.464  15.163   4.888  1.00  0.00     0.165 HD
HETATM    7  C5  UNL     1      23.995  16.564   4.371  1.00  0.00     0.011 A 
HETATM    8  C32 UNL     1      22.587  16.520   4.450  1.00  0.00     0.047 A 
ENDROOT
BRANCH   7   9
HETATM    9  C6  UNL     1      24.725  17.750   3.848  1.00  0.00     0.073 C 
BRANCH   9  10
HETATM   10  C7  UNL     1      25.114  18.631   4.960  1.00  0.00     0.121 C 
BRANCH  10  11
HETATM   11  N2  UNL     1      25.014  20.023   4.912  1.00  0.00    -0.214 NA
HETATM   12  C8  UNL     1      25.237  20.767   6.166  1.00  0.00     0.154 C 
HETATM   13  C13 UNL     1      26.481  21.522   6.124  1.00  0.00     0.136 C 
HETATM   14  N3  UNL     1      26.832  22.824   5.771  1.00  0.00    -0.339 N 
HETATM   15  C14 UNL     1      26.807  24.119   6.270  1.00  0.00     0.062 C 
ATOM     16  H3  UNL     1      27.245  22.825   4.838  1.00  0.00     0.167 HD
HETATM   17  C19 UNL     1      25.642  24.950   5.921  1.00  0.00     0.159 C 
HETATM   18  N7  UNL     1      24.888  25.089   4.772  1.00  0.00    -0.356 N 
HETATM   19  C20 UNL     1      24.228  24.140   3.921  1.00  0.00     0.176 C 
ATOM     20  H7  UNL     1      24.778  26.057   4.469  1.00  0.00     0.162 HD
HETATM   21  C25 UNL     1      25.090  23.775   2.741  1.00  0.00     0.241 C 
HETATM   22  O3  UNL     1      25.384  24.786   2.038  1.00  0.00    -0.271 OA
HETATM   23  N8  UNL     1      25.569  22.520   2.362  1.00  0.00    -0.346 N 
HETATM   24  C26 UNL     1      24.908  21.292   2.084  1.00  0.00     0.181 C 
ATOM     25  H8  UNL     1      26.583  22.475   2.269  1.00  0.00     0.163 HD
HETATM   26  C30 UNL     1      23.783  20.906   2.937  1.00  0.00     0.257 C 
HETATM   27  O4  UNL     1      22.636  21.071   2.420  1.00  0.00    -0.270 OA
HETATM   28  N9  UNL     1      23.839  20.377   4.246  1.00  0.00    -0.282 N 
HETATM   29  C31 UNL     1      22.573  20.184   4.932  1.00  0.00     0.175 C 
BRANCH  12  30
HETATM   30  C9  UNL     1      24.892  19.952   7.332  1.00  0.00     0.034 C 
BRANCH  30  31
HETATM   31  C10 UNL     1      25.259  20.261   8.719  1.00  0.00    -0.021 C 
HETATM   32  C11 UNL     1      25.443  19.148   9.702  1.00  0.00     0.009 C 
HETATM   33  C12 UNL     1      24.177  21.176   9.374  1.00  0.00     0.009 C 
ENDBRANCH  30  31
ENDBRANCH  12  30
BRANCH  13  34
HETATM   34  O1  UNL     1      27.493  20.793   6.502  1.00  0.00    -0.348 OA
ATOM     35  H1  UNL     1      27.516  19.964   6.039  1.00  0.00     0.219 HD
ENDBRANCH  13  34
BRANCH  15  36
HETATM   36  C15 UNL     1      27.223  24.386   7.690  1.00  0.00     0.063 C 
BRANCH  36  37
HETATM   37  C16 UNL     1      28.172  25.543   7.848  1.00  0.00     0.026 C 
BRANCH  37  38
HETATM   38  C17 UNL     1      29.271  25.332   6.790  1.00  0.00     0.122 C 
BRANCH  38  39
HETATM   39  N4  UNL     1      30.547  25.332   7.480  1.00  0.00    -0.367 N 
HETATM   40  C18 UNL     1      31.428  26.207   7.107  1.00  0.00     0.196 C 
HETATM   41  N5  UNL     1      31.188  27.144   6.068  1.00  0.00    -0.067 NA
HETATM   42  N6  UNL     1      32.703  26.248   7.756  1.00  0.00    -0.067 NA
ATOM     43  H4  UNL     1      30.743  24.669   8.229  1.00  0.00     0.161 HD
ENDBRANCH  38  39
ENDBRANCH  37  38
ENDBRANCH  36  37
ENDBRANCH  15  36
BRANCH  17  44
HETATM   44  O2  UNL     1      25.277  25.704   6.930  1.00  0.00    -0.345 OA
ATOM     45  H2  UNL     1      25.324  25.228   7.750  1.00  0.00     0.219 HD
ENDBRANCH  17  44
BRANCH  19  46
HETATM   46  C21 UNL     1      22.911  24.679   3.434  1.00  0.00     0.038 C 
BRANCH  46  47
HETATM   47  C22 UNL     1      22.318  25.851   4.104  1.00  0.00    -0.020 C 
HETATM   48  C23 UNL     1      20.899  25.387   4.549  1.00  0.00     0.009 C 
HETATM   49  C24 UNL     1      22.194  27.125   3.358  1.00  0.00     0.009 C 
ENDBRANCH  46  47
ENDBRANCH  19  46
BRANCH  24  50
HETATM   50  C27 UNL     1      24.588  21.138   0.584  1.00  0.00     0.009 C 
HETATM   51  C28 UNL     1      25.713  21.648  -0.263  1.00  0.00     0.012 C 
HETATM   52  C29 UNL     1      24.196  19.768   0.189  1.00  0.00     0.012 C 
ENDBRANCH  24  50
ENDBRANCH  10  11
ENDBRANCH   9  10
ENDBRANCH   7   9
TORSDOF 14
ENDMDL
MODEL 3
REMARK VINA RESULT: -7.511387060      1.473      1.649
REMARK  14 active torsions:
REMARK  status: ('A' for Active; 'I' for Inactive)
REMARK    1  A    between atoms: C5_7  and  C6_8 
REMARK    2  A    between atoms: C6_8  and  C7_9 
REMARK    3  A    between atoms: C7_9  and  N2_10 
REMARK    4  A    between atoms: C8_11  and  C9_12 
REMARK    5  A    between atoms: C9_12  and  C10_13 
REMARK    6  A    between atoms: C13_16  and  O1_17 
REMARK    7  A    between atoms: C14_21  and  C15_22 
REMARK    8  A    between atoms: C15_22  and  C16_23 
REMARK    9  A    between atoms: C16_23  and  C17_24 
REMARK   10  A    between atoms: C17_24  and  N4_25 
REMARK   11  A    between atoms: C19_30  and  O2_31 
REMARK   12  A    between atoms: C20_35  and  C21_36 
REMARK   13  A    between atoms: C21_36  and  C22_37 
REMARK   14  A    between atoms: C26_44  and  C27_45 
ROOT
HETATM    1  C1  UNL     1      19.670  14.198   5.240  1.00  0.00     0.018 C 
HETATM    2  C2  UNL     1      20.761  14.725   5.320  1.00  0.00    -0.076 C 
HETATM    3  C3  UNL     1      22.058  15.367   5.391  1.00  0.00     0.034 A 
HETATM    4  C4  UNL     1      23.014  15.193   6.365  1.00  0.00     0.108 A 
HETATM    5  N1  UNL     1      24.114  15.969   6.098  1.00  0.00    -0.368 N 
ATOM      6  H1  UNL     1      24.961  16.027   6.662  1.00  0.00     0.165 HD
HETATM    7  C5  UNL     1      23.876  16.630   4.975  1.00  0.00     0.011 A 
HETATM    8  C32 UNL     1      22.593  16.274   4.507  1.00  0.00     0.047 A 
ENDROOT
BRANCH   7   9
HETATM    9  C6  UNL     1      24.745  17.598   4.252  1.00  0.00     0.073 C 
BRANCH   9  10
HETATM   10  C7  UNL     1      25.313  18.567   5.202  1.00  0.00     0.121 C 
BRANCH  10  11
HETATM   11  N2  UNL     1      25.143  19.949   5.085  1.00  0.00    -0.214 NA
HETATM   12  C8  UNL     1      25.402  20.771   6.282  1.00  0.00     0.154 C 
HETATM   13  C13 UNL     1      26.604  21.578   6.125  1.00  0.00     0.136 C 
HETATM   14  N3  UNL     1      26.872  22.872   5.684  1.00  0.00    -0.339 N 
HETATM   15  C14 UNL     1      26.814  24.191   6.113  1.00  0.00     0.062 C 
ATOM     16  H3  UNL     1      27.230  22.840   4.729  1.00  0.00     0.167 HD
HETATM   17  C19 UNL     1      25.592  24.948   5.791  1.00  0.00     0.159 C 
HETATM   18  N7  UNL     1      24.767  24.988   4.684  1.00  0.00    -0.356 N 
HETATM   19  C20 UNL     1      24.106  23.965   3.925  1.00  0.00     0.176 C 
ATOM     20  H7  UNL     1      24.594  25.932   4.336  1.00  0.00     0.162 HD
HETATM   21  C25 UNL     1      24.915  23.573   2.717  1.00  0.00     0.241 C 
HETATM   22  O3  UNL     1      25.119  24.555   1.944  1.00  0.00    -0.271 OA
HETATM   23  N8  UNL     1      25.431  22.322   2.378  1.00  0.00    -0.346 N 
HETATM   24  C26 UNL     1      24.815  21.052   2.205  1.00  0.00     0.181 C 
ATOM     25  H8  UNL     1      26.440  22.317   2.226  1.00  0.00     0.163 HD
HETATM   26  C30 UNL     1      23.760  20.664   3.143  1.00  0.00     0.257 C 
HETATM   27  O4  UNL     1      22.579  20.748   2.688  1.00  0.00    -0.270 OA
HETATM   28  N9  UNL     1      23.917  20.212   4.473  1.00  0.00    -0.282 N 
HETATM   29  C31 UNL     1      22.703  20.001   5.242  1.00  0.00     0.175 C 
BRANCH  12  30
HETATM   30  C9  UNL     1      25.164  20.008   7.509  1.00  0.00     0.034 C 
BRANCH  30  31
HETATM   31  C10 UNL     1      25.440  20.484   8.869  1.00  0.00    -0.021 C 
HETATM   32  C11 UNL     1      25.799  19.502   9.939  1.00  0.00     0.009 C 
HETATM   33  C12 UNL     1      24.199  21.239   9.441  1.00  0.00     0.009 C 
ENDBRANCH  30  31
ENDBRANCH  12  30
BRANCH  13  34
HETATM   34  O1  UNL     1      27.670  20.917   6.481  1.00  0.00    -0.348 OA
ATOM     35  H1  UNL     1      28.188  20.661   5.726  1.00  0.00     0.219 HD
ENDBRANCH  13  34
BRANCH  15  36
HETATM   36  C15 UNL     1      27.296  24.555   7.490  1.00  0.00     0.063 C 
BRANCH  36  37
HETATM   37  C16 UNL     1      28.710  25.071   7.532  1.00  0.00     0.026 C 
BRANCH  37  38
HETATM   38  C17 UNL     1      28.679  26.437   6.821  1.00  0.00     0.122 C 
BRANCH  38  39
HETATM   39  N4  UNL     1      29.525  26.337   5.647  1.00  0.00    -0.367 N 
HETATM   40  C18 UNL     1      29.091  26.872   4.548  1.00  0.00     0.196 C 
HETATM   41  N5  UNL     1      27.841  27.538   4.462  1.00  0.00    -0.067 NA
HETATM   42  N6  UNL     1      29.888  26.800   3.363  1.00  0.00    -0.067 NA
ATOM     43  H4  UNL     1      30.427  25.863   5.684  1.00  0.00     0.161 HD
ENDBRANCH  38  39
ENDBRANCH  37  38
ENDBRANCH  36  37
ENDBRANCH  15  36
BRANCH  17  44
HETATM   44  O2  UNL     1      25.249  25.740   6.778  1.00  0.00    -0.345 OA
ATOM     45  H2  UNL     1      24.904  25.246   7.512  1.00  0.00     0.219 HD
ENDBRANCH  17  44
BRANCH  19  46
HETATM   46  C21 UNL     1      22.739  24.416   3.490  1.00  0.00     0.038 C 
BRANCH  46  47
HETATM   47  C22 UNL     1      22.318  25.804   3.756  1.00  0.00    -0.020 C 
HETATM   48  C23 UNL     1      20.931  25.680   4.453  1.00  0.00     0.009 C 
HETATM   49  C24 UNL     1      22.202  26.754   2.624  1.00  0.00     0.009 C 
ENDBRANCH  46  47
ENDBRANCH  19  46
BRANCH  24  50
HETATM   50  C27 UNL     1      24.418  20.799   0.737  1.00  0.00     0.009 C 
HETATM   51  C28 UNL     1      25.429  21.380  -0.203  1.00  0.00     0.012 C 
HETATM   52  C29 UNL     1      24.142  19.381   0.423  1.00  0.00     0.012 C 
ENDBRANCH  24  50
ENDBRANCH  10  11
ENDBRANCH   9  10
ENDBRANCH   7   9
TORSDOF 14
ENDMDL
MODEL 4
REMARK VINA RESULT: -7.229726468      2.143      3.391
REMARK  14 active torsions:
REMARK  status: ('A' for Active; 'I' for Inactive)
REMARK    1  A    between atoms: C5_7  and  C6_8 
REMARK    2  A    between atoms: C6_8  and  C7_9 
REMARK    3  A    between atoms: C7_9  and  N2_10 
REMARK    4  A    between atoms: C8_11  and  C9_12 
REMARK    5  A    between atoms: C9_12  and  C10_13 
REMARK    6  A    between atoms: C13_16  and  O1_17 
REMARK    7  A    between atoms: C14_21  and  C15_22 
REMARK    8  A    between atoms: C15_22  and  C16_23 
REMARK    9  A    between atoms: C16_23  and  C17_24 
REMARK   10  A    between atoms: C17_24  and  N4_25 
REMARK   11  A    between atoms: C19_30  and  O2_31 
REMARK   12  A    between atoms: C20_35  and  C21_36 
REMARK   13  A    between atoms: C21_36  and  C22_37 
REMARK   14  A    between atoms: C26_44  and  C27_45 
ROOT
HETATM    1  C1  UNL     1      19.852  14.311   5.473  1.00  0.00     0.018 C 
HETATM    2  C2  UNL     1      20.842  14.903   5.095  1.00  0.00    -0.076 C 
HETATM    3  C3  UNL     1      22.007  15.627   4.627  1.00  0.00     0.034 A 
HETATM    4  C4  UNL     1      23.318  15.393   4.973  1.00  0.00     0.108 A 
HETATM    5  N1  UNL     1      24.145  16.281   4.331  1.00  0.00    -0.368 N 
ATOM      6  H1  UNL     1      25.161  16.324   4.413  1.00  0.00     0.165 HD
HETATM    7  C5  UNL     1      23.386  17.071   3.585  1.00  0.00     0.011 A 
HETATM    8  C32 UNL     1      22.039  16.686   3.751  1.00  0.00     0.047 A 
ENDROOT
BRANCH   7   9
HETATM    9  C6  UNL     1      23.789  18.192   2.695  1.00  0.00     0.073 C 
BRANCH   9  10
HETATM   10  C7  UNL     1      24.913  18.929   3.294  1.00  0.00     0.121 C 
BRANCH  10  11
HETATM   11  N2  UNL     1      24.875  20.298   3.572  1.00  0.00    -0.214 NA
HETATM   12  C8  UNL     1      25.095  20.716   4.969  1.00  0.00     0.154 C 
HETATM   13  C13 UNL     1      26.371  21.398   5.128  1.00  0.00     0.136 C 
HETATM   14  N3  UNL     1      26.789  22.727   5.098  1.00  0.00    -0.339 N 
HETATM   15  C14 UNL     1      26.807  23.869   5.886  1.00  0.00     0.062 C 
ATOM     16  H3  UNL     1      27.229  22.926   4.198  1.00  0.00     0.167 HD
HETATM   17  C19 UNL     1      25.690  24.815   5.721  1.00  0.00     0.159 C 
HETATM   18  N7  UNL     1      24.976  25.256   4.624  1.00  0.00    -0.356 N 
HETATM   19  C20 UNL     1      24.300  24.566   3.563  1.00  0.00     0.176 C 
ATOM     20  H7  UNL     1      24.918  26.272   4.555  1.00  0.00     0.162 HD
HETATM   21  C25 UNL     1      25.179  24.445   2.345  1.00  0.00     0.241 C 
HETATM   22  O3  UNL     1      25.537  25.577   1.905  1.00  0.00    -0.271 OA
HETATM   23  N8  UNL     1      25.613  23.291   1.691  1.00  0.00    -0.346 N 
HETATM   24  C26 UNL     1      24.907  22.197   1.120  1.00  0.00     0.181 C 
ATOM     25  H8  UNL     1      26.626  23.219   1.607  1.00  0.00     0.163 HD
HETATM   26  C30 UNL     1      23.742  21.677   1.838  1.00  0.00     0.257 C 
HETATM   27  O4  UNL     1      22.618  22.016   1.354  1.00  0.00    -0.270 OA
HETATM   28  N9  UNL     1      23.737  20.855   2.987  1.00  0.00    -0.282 N 
HETATM   29  C31 UNL     1      22.445  20.570   3.585  1.00  0.00     0.175 C 
BRANCH  12  30
HETATM   30  C9  UNL     1      24.681  19.668   5.905  1.00  0.00     0.034 C 
BRANCH  30  31
HETATM   31  C10 UNL     1      23.582  19.782   6.872  1.00  0.00    -0.021 C 
HETATM   32  C11 UNL     1      23.885  20.099   8.302  1.00  0.00     0.009 C 
HETATM   33  C12 UNL     1      22.777  18.446   6.936  1.00  0.00     0.009 C 
ENDBRANCH  30  31
ENDBRANCH  12  30
BRANCH  13  34
HETATM   34  O1  UNL     1      27.339  20.551   5.342  1.00  0.00    -0.348 OA
ATOM     35  H1  UNL     1      27.154  19.994   6.089  1.00  0.00     0.219 HD
ENDBRANCH  13  34
BRANCH  15  36
HETATM   36  C15 UNL     1      27.192  23.776   7.337  1.00  0.00     0.063 C 
BRANCH  36  37
HETATM   37  C16 UNL     1      26.540  22.639   8.077  1.00  0.00     0.026 C 
BRANCH  37  38
HETATM   38  C17 UNL     1      27.691  21.731   8.550  1.00  0.00     0.122 C 
BRANCH  38  39
HETATM   39  N4  UNL     1      27.251  20.357   8.402  1.00  0.00    -0.367 N 
HETATM   40  C18 UNL     1      27.234  19.616   9.467  1.00  0.00     0.196 C 
HETATM   41  N5  UNL     1      27.623  20.099  10.743  1.00  0.00    -0.067 NA
HETATM   42  N6  UNL     1      26.809  18.254   9.374  1.00  0.00    -0.067 NA
ATOM     43  H4  UNL     1      26.967  19.987   7.495  1.00  0.00     0.161 HD
ENDBRANCH  38  39
ENDBRANCH  37  38
ENDBRANCH  36  37
ENDBRANCH  15  36
BRANCH  17  44
HETATM   44  O2  UNL     1      25.329  25.329   6.872  1.00  0.00    -0.345 OA
ATOM     45  H2  UNL     1      25.294  24.665   7.551  1.00  0.00     0.219 HD
ENDBRANCH  17  44
BRANCH  19  46
HETATM   46  C21 UNL     1      23.022  25.268   3.193  1.00  0.00     0.038 C 
BRANCH  46  47
HETATM   47  C22 UNL     1      22.455  26.269   4.115  1.00  0.00    -0.020 C 
HETATM   48  C23 UNL     1      21.053  25.714   4.502  1.00  0.00     0.009 C 
HETATM   49  C24 UNL     1      22.306  27.671   3.658  1.00  0.00     0.009 C 
ENDBRANCH  46  47
ENDBRANCH  19  46
BRANCH  24  50
HETATM   50  C27 UNL     1      24.624  22.413  -0.380  1.00  0.00     0.009 C 
HETATM   51  C28 UNL     1      24.444  23.867  -0.691  1.00  0.00     0.012 C 
HETATM   52  C29 UNL     1      25.620  21.789  -1.277  1.00  0.00     0.012 C 
ENDBRANCH  24  50
ENDBRANCH  10  11
ENDBRANCH   9  10
ENDBRANCH   7   9
TORSDOF 14
ENDMDL
MODEL 5
REMARK VINA RESULT: -7.009720020      2.269      3.924
REMARK  14 active torsions:
REMARK  status: ('A' for Active; 'I' for Inactive)
REMARK    1  A    between atoms: C5_7  and  C6_8 
REMARK    2  A    between atoms: C6_8  and  C7_9 
REMARK    3  A    between atoms: C7_9  and  N2_10 
REMARK    4  A    between atoms: C8_11  and  C9_12 
REMARK    5  A    between atoms: C9_12  and  C10_13 
REMARK    6  A    between atoms: C13_16  and  O1_17 
REMARK    7  A    between atoms: C14_21  and  C15_22 
REMARK    8  A    between atoms: C15_22  and  C16_23 
REMARK    9  A    between atoms: C16_23  and  C17_24 
REMARK   10  A    between atoms: C17_24  and  N4_25 
REMARK   11  A    between atoms: C19_30  and  O2_31 
REMARK   12  A    between atoms: C20_35  and  C21_36 
REMARK   13  A    between atoms: C21_36  and  C22_37 
REMARK   14  A    between atoms: C26_44  and  C27_45 
ROOT
HETATM    1  C1  UNL     1      21.040  16.122   6.106  1.00  0.00     0.018 C 
HETATM    2  C2  UNL     1      21.780  16.619   5.282  1.00  0.00    -0.076 C 
HETATM    3  C3  UNL     1      22.645  17.232   4.293  1.00  0.00     0.034 A 
HETATM    4  C4  UNL     1      23.881  16.785   3.886  1.00  0.00     0.108 A 
HETATM    5  N1  UNL     1      24.401  17.625   2.934  1.00  0.00    -0.368 N 
ATOM      6  H1  UNL     1      25.303  17.522   2.469  1.00  0.00     0.165 HD
HETATM    7  C5  UNL     1      23.521  18.593   2.728  1.00  0.00     0.011 A 
HETATM    8  C32 UNL     1      22.408  18.375   3.566  1.00  0.00     0.047 A 
ENDROOT
BRANCH   7   9
HETATM    9  C6  UNL     1      23.599  19.750   1.796  1.00  0.00     0.073 C 
BRANCH   9  10
HETATM   10  C7  UNL     1      24.835  20.509   2.042  1.00  0.00     0.121 C 
BRANCH  10  11
HETATM   11  N2  UNL     1      24.882  21.678   2.806  1.00  0.00    -0.214 NA
HETATM   12  C8  UNL     1      25.302  21.555   4.214  1.00  0.00     0.154 C 
HETATM   13  C13 UNL     1      26.610  22.154   4.434  1.00  0.00     0.136 C 
HETATM   14  N3  UNL     1      27.066  23.407   4.837  1.00  0.00    -0.339 N 
HETATM   15  C14 UNL     1      27.229  24.179   5.980  1.00  0.00     0.062 C 
ATOM     16  H3  UNL     1      27.387  23.932   4.023  1.00  0.00     0.167 HD
HETATM   17  C19 UNL     1      26.132  25.098   6.330  1.00  0.00     0.159 C 
HETATM   18  N7  UNL     1      25.293  25.900   5.581  1.00  0.00    -0.356 N 
HETATM   19  C20 UNL     1      24.457  25.638   4.445  1.00  0.00     0.176 C 
ATOM     20  H7  UNL     1      25.260  26.869   5.899  1.00  0.00     0.162 HD
HETATM   21  C25 UNL     1      25.159  25.990   3.159  1.00  0.00     0.241 C 
HETATM   22  O3  UNL     1      25.492  27.211   3.121  1.00  0.00    -0.271 OA
HETATM   23  N8  UNL     1      25.461  25.167   2.074  1.00  0.00    -0.346 N 
HETATM   24  C26 UNL     1      24.648  24.347   1.244  1.00  0.00     0.181 C 
ATOM     25  H8  UNL     1      26.451  25.149   1.830  1.00  0.00     0.163 HD
HETATM   26  C30 UNL     1      23.573  23.579   1.874  1.00  0.00     0.257 C 
HETATM   27  O4  UNL     1      22.407  24.051   1.708  1.00  0.00    -0.270 OA
HETATM   28  N9  UNL     1      23.695  22.391   2.629  1.00  0.00    -0.282 N 
HETATM   29  C31 UNL     1      22.486  21.882   3.253  1.00  0.00     0.175 C 
BRANCH  12  30
HETATM   30  C9  UNL     1      24.983  20.229   4.747  1.00  0.00     0.034 C 
BRANCH  30  31
HETATM   31  C10 UNL     1      25.059  19.844   6.161  1.00  0.00    -0.021 C 
HETATM   32  C11 UNL     1      25.722  18.559   6.543  1.00  0.00     0.009 C 
HETATM   33  C12 UNL     1      23.626  19.733   6.770  1.00  0.00     0.009 C 
ENDBRANCH  30  31
ENDBRANCH  12  30
BRANCH  13  34
HETATM   34  O1  UNL     1      27.570  21.305   4.187  1.00  0.00    -0.348 OA
ATOM     35  H1  UNL     1      27.573  21.042   3.275  1.00  0.00     0.219 HD
ENDBRANCH  13  34
BRANCH  15  36
HETATM   36  C15 UNL     1      27.803  23.564   7.227  1.00  0.00     0.063 C 
BRANCH  36  37
HETATM   37  C16 UNL     1      27.411  22.127   7.443  1.00  0.00     0.026 C 
BRANCH  37  38
HETATM   38  C17 UNL     1      27.135  21.991   8.952  1.00  0.00     0.122 C 
BRANCH  38  39
HETATM   39  N4  UNL     1      26.071  21.018   9.115  1.00  0.00    -0.367 N 
HETATM   40  C18 UNL     1      26.324  19.969   9.835  1.00  0.00     0.196 C 
HETATM   41  N5  UNL     1      27.581  19.750  10.455  1.00  0.00    -0.067 NA
HETATM   42  N6  UNL     1      25.308  18.980  10.025  1.00  0.00    -0.067 NA
ATOM     43  H4  UNL     1      25.159  21.154   8.679  1.00  0.00     0.161 HD
ENDBRANCH  38  39
ENDBRANCH  37  38
ENDBRANCH  36  37
ENDBRANCH  15  36
BRANCH  17  44
HETATM   44  O2  UNL     1      25.948  25.146   7.628  1.00  0.00    -0.345 OA
ATOM     45  H2  UNL     1      25.664  26.010   7.904  1.00  0.00     0.219 HD
ENDBRANCH  17  44
BRANCH  19  46
HETATM   46  C21 UNL     1      23.166  26.404   4.539  1.00  0.00     0.038 C 
BRANCH  46  47
HETATM   47  C22 UNL     1      21.985  25.922   3.798  1.00  0.00    -0.020 C 
HETATM   48  C23 UNL     1      21.547  27.124   2.909  1.00  0.00     0.009 C 
HETATM   49  C24 UNL     1      20.809  25.431   4.553  1.00  0.00     0.009 C 
ENDBRANCH  46  47
ENDBRANCH  19  46
BRANCH  24  50
HETATM   50  C27 UNL     1      24.173  25.096  -0.017  1.00  0.00     0.009 C 
HETATM   51  C28 UNL     1      24.706  26.496  -0.046  1.00  0.00     0.012 C 
HETATM   52  C29 UNL     1      24.456  24.386  -1.283  1.00  0.00     0.012 C 
ENDBRANCH  24  50
ENDBRANCH  10  11
ENDBRANCH   9  10
ENDBRANCH   7   9
TORSDOF 14
ENDMDL
