MODEL 1
REMARK VINA RESULT: -8.173965249      0.000      0.000
REMARK  12 active torsions:
REMARK  status: ('A' for Active; 'I' for Inactive)
REMARK    1  A    between atoms: C2_2  and  C4_4 
REMARK    2  A    between atoms: C4_4  and  C5_5 
REMARK    3  A    between atoms: C12_19  and  C13_20 
REMARK    4  A    between atoms: C13_20  and  C14_21 
REMARK    5  A    between atoms: C14_21  and  C15_22 
REMARK    6  A    between atoms: C15_22  and  C16_23 
REMARK    7  A    between atoms: C16_23  and  C17_24 
REMARK    8  A    between atoms: C17_24  and  N4_25 
REMARK    9  A    between atoms: C19_34  and  C20_35 
REMARK   10  A    between atoms: C20_35  and  C21_36 
REMARK   11  A    between atoms: C25_43  and  C26_44 
REMARK   12  A    between atoms: C26_44  and  C27_45 
ROOT
HETATM    1  C5  UNL     1      26.260  22.315   7.555  1.00  0.00     0.177 C 
HETATM    2  N1  UNL     1      25.588  21.382   6.698  1.00  0.00    -0.348 N 
ATOM      3  H1  UNL     1      24.576  21.356   6.821  1.00  0.00     0.163 HD
HETATM    4  C6  UNL     1      26.063  20.507   5.731  1.00  0.00     0.220 C 
HETATM    5  O1  UNL     1      25.922  19.243   5.975  1.00  0.00    -0.274 OA
HETATM    6  C7  UNL     1      26.716  20.795   4.439  1.00  0.00     0.124 C 
HETATM    7  C8  UNL     1      26.025  21.846   3.604  1.00  0.00     0.161 C 
HETATM    8  N2  UNL     1      24.692  21.443   3.222  1.00  0.00    -0.254 N 
HETATM    9  C9  UNL     1      23.566  20.633   3.548  1.00  0.00     0.258 C 
HETATM   10  O2  UNL     1      23.002  20.258   4.566  1.00  0.00    -0.270 OA
HETATM   11  C10 UNL     1      23.412  20.466   2.092  1.00  0.00     0.257 C 
HETATM   12  N3  UNL     1      23.948  21.850   2.134  1.00  0.00    -0.246 N 
HETATM   13  C11 UNL     1      23.856  23.101   1.509  1.00  0.00     0.261 C 
HETATM   14  O3  UNL     1      22.712  23.706   1.456  1.00  0.00    -0.269 OA
HETATM   15  C12 UNL     1      24.923  23.895   0.858  1.00  0.00     0.178 C 
HETATM   16  N6  UNL     1      24.692  25.328   0.985  1.00  0.00    -0.346 N 
ATOM     17  H6  UNL     1      24.123  25.760   0.256  1.00  0.00     0.163 HD
HETATM   18  C18 UNL     1      25.164  26.183   1.997  1.00  0.00     0.241 C 
HETATM   19  O4  UNL     1      25.778  27.251   1.633  1.00  0.00    -0.271 OA
HETATM   20  C19 UNL     1      25.019  25.965   3.457  1.00  0.00     0.177 C 
HETATM   21  N7  UNL     1      26.182  26.572   4.116  1.00  0.00    -0.346 N 
ATOM     22  H7  UNL     1      26.344  27.563   3.935  1.00  0.00     0.163 HD
HETATM   23  C24 UNL     1      27.090  25.936   4.963  1.00  0.00     0.241 C 
HETATM   24  O5  UNL     1      28.354  26.016   4.752  1.00  0.00    -0.271 OA
HETATM   25  C25 UNL     1      26.673  25.123   6.169  1.00  0.00     0.177 C 
HETATM   26  N8  UNL     1      27.655  24.159   6.467  1.00  0.00    -0.346 N 
ATOM     27  H8  UNL     1      28.613  24.439   6.256  1.00  0.00     0.163 HD
HETATM   28  C30 UNL     1      27.520  22.868   7.012  1.00  0.00     0.241 C 
HETATM   29  O6  UNL     1      28.531  22.081   7.065  1.00  0.00    -0.271 OA
ENDROOT
BRANCH  15  30
HETATM   30  C13 UNL     1      24.821  23.600  -0.647  1.00  0.00     0.035 C 
BRANCH  30  31
HETATM   31  C14 UNL     1      24.629  24.797  -1.497  1.00  0.00     0.002 C 
BRANCH  31  32
HETATM   32  C15 UNL     1      24.698  24.551  -2.976  1.00  0.00     0.002 C 
BRANCH  32  33
HETATM   33  C16 UNL     1      25.602  23.414  -3.342  1.00  0.00     0.021 C 
BRANCH  33  34
HETATM   34  C17 UNL     1      25.418  23.006  -4.772  1.00  0.00     0.139 C 
BRANCH  34  35
HETATM   35  N4  UNL     1      24.461  21.907  -4.870  1.00  0.00    -0.343 N 
HETATM   36  N5  UNL     1      24.836  20.750  -4.683  1.00  0.00    -0.349 N 
ATOM     37  H52 UNL     1      25.816  20.576  -4.461  1.00  0.00     0.176 HD
ATOM     38  H51 UNL     1      24.168  19.982  -4.752  1.00  0.00     0.176 HD
ATOM     39  H4  UNL     1      23.484  22.099  -5.093  1.00  0.00     0.179 HD
ENDBRANCH  34  35
ENDBRANCH  33  34
ENDBRANCH  32  33
ENDBRANCH  31  32
ENDBRANCH  30  31
ENDBRANCH  15  30
BRANCH  20  40
HETATM   40  C20 UNL     1      23.753  26.380   4.088  1.00  0.00     0.038 C 
BRANCH  40  41
HETATM   41  C21 UNL     1      22.506  26.425   3.309  1.00  0.00    -0.020 C 
HETATM   42  C22 UNL     1      22.139  27.938   3.202  1.00  0.00     0.009 C 
HETATM   43  C23 UNL     1      21.340  25.812   4.009  1.00  0.00     0.009 C 
ENDBRANCH  40  41
ENDBRANCH  20  40
BRANCH  25  44
HETATM   44  C26 UNL     1      26.207  26.047   7.226  1.00  0.00     0.038 C 
BRANCH  44  45
HETATM   45  C27 UNL     1      27.077  27.243   7.483  1.00  0.00    -0.020 C 
HETATM   46  C28 UNL     1      27.852  27.070   8.755  1.00  0.00     0.009 C 
HETATM   47  C29 UNL     1      26.126  28.436   7.692  1.00  0.00     0.009 C 
ENDBRANCH  44  45
ENDBRANCH  25  44
BRANCH   1  48
HETATM   48  C4  UNL     1      26.452  21.851   8.976  1.00  0.00     0.038 C 
BRANCH  48  49
HETATM   49  C2  UNL     1      26.485  20.400   9.231  1.00  0.00    -0.020 C 
HETATM   50  C1  UNL     1      27.464  19.905  10.255  1.00  0.00     0.009 C 
HETATM   51  C3  UNL     1      25.094  19.981   9.754  1.00  0.00     0.009 C 
ENDBRANCH  48  49
ENDBRANCH   1  48
TORSDOF 12
ENDMDL
MODEL 2
REMARK VINA RESULT: -8.132463277      0.963      1.113
REMARK  12 active torsions:
REMARK  status: ('A' for Active; 'I' for Inactive)
REMARK    1  A    between atoms: C2_2  and  C4_4 
REMARK    2  A    between atoms: C4_4  and  C5_5 
REMARK    3  A    between atoms: C12_19  and  C13_20 
REMARK    4  A    between atoms: C13_20  and  C14_21 
REMARK    5  A    between atoms: C14_21  and  C15_22 
REMARK    6  A    between atoms: C15_22  and  C16_23 
REMARK    7  A    between atoms: C16_23  and  C17_24 
REMARK    8  A    between atoms: C17_24  and  N4_25 
REMARK    9  A    between atoms: C19_34  and  C20_35 
REMARK   10  A    between atoms: C20_35  and  C21_36 
REMARK   11  A    between atoms: C25_43  and  C26_44 
REMARK   12  A    between atoms: C26_44  and  C27_45 
ROOT
HETATM    1  C5  UNL     1      26.276  22.254   7.564  1.00  0.00     0.177 C 
HETATM    2  N1  UNL     1      25.582  21.358   6.684  1.00  0.00    -0.348 N 
ATOM      3  H1  UNL     1      24.570  21.345   6.815  1.00  0.00     0.163 HD
HETATM    4  C6  UNL     1      26.034  20.507   5.687  1.00  0.00     0.220 C 
HETATM    5  O1  UNL     1      25.875  19.238   5.892  1.00  0.00    -0.274 OA
HETATM    6  C7  UNL     1      26.682  20.824   4.399  1.00  0.00     0.124 C 
HETATM    7  C8  UNL     1      26.001  21.912   3.603  1.00  0.00     0.161 C 
HETATM    8  N2  UNL     1      24.659  21.542   3.220  1.00  0.00    -0.254 N 
HETATM    9  C9  UNL     1      23.523  20.740   3.530  1.00  0.00     0.258 C 
HETATM   10  O2  UNL     1      22.961  20.344   4.540  1.00  0.00    -0.270 OA
HETATM   11  C10 UNL     1      23.354  20.622   2.071  1.00  0.00     0.257 C 
HETATM   12  N3  UNL     1      23.913  21.995   2.151  1.00  0.00    -0.246 N 
HETATM   13  C11 UNL     1      23.836  23.267   1.566  1.00  0.00     0.261 C 
HETATM   14  O3  UNL     1      22.702  23.891   1.541  1.00  0.00    -0.269 OA
HETATM   15  C12 UNL     1      24.911  24.063   0.931  1.00  0.00     0.178 C 
HETATM   16  N6  UNL     1      24.705  25.494   1.104  1.00  0.00    -0.346 N 
ATOM     17  H6  UNL     1      24.137  25.958   0.394  1.00  0.00     0.163 HD
HETATM   18  C18 UNL     1      25.199  26.310   2.138  1.00  0.00     0.241 C 
HETATM   19  O4  UNL     1      25.828  27.379   1.802  1.00  0.00    -0.271 OA
HETATM   20  C19 UNL     1      25.062  26.048   3.592  1.00  0.00     0.177 C 
HETATM   21  N7  UNL     1      26.240  26.616   4.259  1.00  0.00    -0.346 N 
ATOM     22  H7  UNL     1      26.417  27.609   4.108  1.00  0.00     0.163 HD
HETATM   23  C24 UNL     1      27.144  25.940   5.078  1.00  0.00     0.241 C 
HETATM   24  O5  UNL     1      28.408  26.006   4.859  1.00  0.00    -0.271 OA
HETATM   25  C25 UNL     1      26.724  25.097   6.262  1.00  0.00     0.177 C 
HETATM   26  N8  UNL     1      27.693  24.108   6.522  1.00  0.00    -0.346 N 
ATOM     27  H8  UNL     1      28.653  24.379   6.311  1.00  0.00     0.163 HD
HETATM   28  C30 UNL     1      27.541  22.802   7.028  1.00  0.00     0.241 C 
HETATM   29  O6  UNL     1      28.539  21.998   7.048  1.00  0.00    -0.271 OA
ENDROOT
BRANCH  15  30
HETATM   30  C13 UNL     1      24.792  23.816  -0.582  1.00  0.00     0.035 C 
BRANCH  30  31
HETATM   31  C14 UNL     1      24.551  25.035  -1.387  1.00  0.00     0.002 C 
BRANCH  31  32
HETATM   32  C15 UNL     1      25.135  25.018  -2.769  1.00  0.00     0.002 C 
BRANCH  32  33
HETATM   33  C16 UNL     1      24.588  23.918  -3.626  1.00  0.00     0.021 C 
BRANCH  33  34
HETATM   34  C17 UNL     1      23.674  24.452  -4.685  1.00  0.00     0.139 C 
BRANCH  34  35
HETATM   35  N4  UNL     1      22.319  24.605  -4.160  1.00  0.00    -0.343 N 
HETATM   36  N5  UNL     1      21.795  25.719  -4.131  1.00  0.00    -0.349 N 
ATOM     37  H52 UNL     1      22.319  26.522  -4.477  1.00  0.00     0.176 HD
ATOM     38  H51 UNL     1      20.850  25.825  -3.764  1.00  0.00     0.176 HD
ATOM     39  H4  UNL     1      21.809  23.790  -3.819  1.00  0.00     0.179 HD
ENDBRANCH  34  35
ENDBRANCH  33  34
ENDBRANCH  32  33
ENDBRANCH  31  32
ENDBRANCH  30  31
ENDBRANCH  15  30
BRANCH  20  40
HETATM   40  C20 UNL     1      23.809  26.465   4.246  1.00  0.00     0.038 C 
BRANCH  40  41
HETATM   41  C21 UNL     1      22.523  26.362   3.539  1.00  0.00    -0.020 C 
HETATM   42  C22 UNL     1      22.080  27.833   3.270  1.00  0.00     0.009 C 
HETATM   43  C23 UNL     1      21.424  25.793   4.372  1.00  0.00     0.009 C 
ENDBRANCH  40  41
ENDBRANCH  20  40
BRANCH  25  44
HETATM   44  C26 UNL     1      26.282  25.995   7.352  1.00  0.00     0.038 C 
BRANCH  44  45
HETATM   45  C27 UNL     1      27.098  27.239   7.548  1.00  0.00    -0.020 C 
HETATM   46  C28 UNL     1      27.929  27.136   8.791  1.00  0.00     0.009 C 
HETATM   47  C29 UNL     1      26.093  28.386   7.769  1.00  0.00     0.009 C 
ENDBRANCH  44  45
ENDBRANCH  25  44
BRANCH   1  48
HETATM   48  C4  UNL     1      26.471  21.742   8.968  1.00  0.00     0.038 C 
BRANCH  48  49
HETATM   49  C2  UNL     1      26.424  20.286   9.187  1.00  0.00    -0.020 C 
HETATM   50  C1  UNL     1      27.418  19.703  10.148  1.00  0.00     0.009 C 
HETATM   51  C3  UNL     1      25.037  19.940   9.768  1.00  0.00     0.009 C 
ENDBRANCH  48  49
ENDBRANCH   1  48
TORSDOF 12
ENDMDL
MODEL 3
REMARK VINA RESULT: -7.866085195      1.603      1.902
REMARK  12 active torsions:
REMARK  status: ('A' for Active; 'I' for Inactive)
REMARK    1  A    between atoms: C2_2  and  C4_4 
REMARK    2  A    between atoms: C4_4  and  C5_5 
REMARK    3  A    between atoms: C12_19  and  C13_20 
REMARK    4  A    between atoms: C13_20  and  C14_21 
REMARK    5  A    between atoms: C14_21  and  C15_22 
REMARK    6  A    between atoms: C15_22  and  C16_23 
REMARK    7  A    between atoms: C16_23  and  C17_24 
REMARK    8  A    between atoms: C17_24  and  N4_25 
REMARK    9  A    between atoms: C19_34  and  C20_35 
REMARK   10  A    between atoms: C20_35  and  C21_36 
REMARK   11  A    between atoms: C25_43  and  C26_44 
REMARK   12  A    between atoms: C26_44  and  C27_45 
ROOT
HETATM    1  C5  UNL     1      26.257  22.300   7.519  1.00  0.00     0.177 C 
HETATM    2  N1  UNL     1      25.555  21.416   6.633  1.00  0.00    -0.348 N 
ATOM      3  H1  UNL     1      24.544  21.410   6.764  1.00  0.00     0.163 HD
HETATM    4  C6  UNL     1      26.002  20.566   5.632  1.00  0.00     0.220 C 
HETATM    5  O1  UNL     1      25.832  19.297   5.831  1.00  0.00    -0.274 OA
HETATM    6  C7  UNL     1      26.653  20.884   4.346  1.00  0.00     0.124 C 
HETATM    7  C8  UNL     1      25.981  21.982   3.555  1.00  0.00     0.161 C 
HETATM    8  N2  UNL     1      24.636  21.625   3.170  1.00  0.00    -0.254 N 
HETATM    9  C9  UNL     1      23.493  20.831   3.475  1.00  0.00     0.258 C 
HETATM   10  O2  UNL     1      22.928  20.434   4.483  1.00  0.00    -0.270 OA
HETATM   11  C10 UNL     1      23.324  20.722   2.015  1.00  0.00     0.257 C 
HETATM   12  N3  UNL     1      23.895  22.089   2.103  1.00  0.00    -0.246 N 
HETATM   13  C11 UNL     1      23.829  23.365   1.525  1.00  0.00     0.261 C 
HETATM   14  O3  UNL     1      22.700  23.999   1.503  1.00  0.00    -0.269 OA
HETATM   15  C12 UNL     1      24.910  24.155   0.894  1.00  0.00     0.178 C 
HETATM   16  N6  UNL     1      24.716  25.588   1.075  1.00  0.00    -0.346 N 
ATOM     17  H6  UNL     1      24.152  26.059   0.367  1.00  0.00     0.163 HD
HETATM   18  C18 UNL     1      25.215  26.394   2.113  1.00  0.00     0.241 C 
HETATM   19  O4  UNL     1      25.853  27.459   1.783  1.00  0.00    -0.271 OA
HETATM   20  C19 UNL     1      25.076  26.126   3.565  1.00  0.00     0.177 C 
HETATM   21  N7  UNL     1      26.259  26.680   4.236  1.00  0.00    -0.346 N 
ATOM     22  H7  UNL     1      26.443  27.673   4.091  1.00  0.00     0.163 HD
HETATM   23  C24 UNL     1      27.156  25.992   5.053  1.00  0.00     0.241 C 
HETATM   24  O5  UNL     1      28.421  26.049   4.834  1.00  0.00    -0.271 OA
HETATM   25  C25 UNL     1      26.729  25.147   6.231  1.00  0.00     0.177 C 
HETATM   26  N8  UNL     1      27.689  24.148   6.487  1.00  0.00    -0.346 N 
ATOM     27  H8  UNL     1      28.652  24.413   6.278  1.00  0.00     0.163 HD
HETATM   28  C30 UNL     1      27.526  22.842   6.986  1.00  0.00     0.241 C 
HETATM   29  O6  UNL     1      28.518  22.029   7.002  1.00  0.00    -0.271 OA
ENDROOT
BRANCH  15  30
HETATM   30  C13 UNL     1      24.790  23.918  -0.620  1.00  0.00     0.035 C 
BRANCH  30  31
HETATM   31  C14 UNL     1      24.888  25.143  -1.445  1.00  0.00     0.002 C 
BRANCH  31  32
HETATM   32  C15 UNL     1      24.166  25.091  -2.760  1.00  0.00     0.002 C 
BRANCH  32  33
HETATM   33  C16 UNL     1      23.316  26.297  -3.013  1.00  0.00     0.021 C 
BRANCH  33  34
HETATM   34  C17 UNL     1      23.224  27.167  -1.797  1.00  0.00     0.139 C 
BRANCH  34  35
HETATM   35  N4  UNL     1      21.883  27.101  -1.223  1.00  0.00    -0.343 N 
HETATM   36  N5  UNL     1      21.723  26.640  -0.092  1.00  0.00    -0.349 N 
ATOM     37  H52 UNL     1      22.535  26.309   0.428  1.00  0.00     0.176 HD
ATOM     38  H51 UNL     1      20.786  26.594   0.309  1.00  0.00     0.176 HD
ATOM     39  H4  UNL     1      21.081  27.437  -1.756  1.00  0.00     0.179 HD
ENDBRANCH  34  35
ENDBRANCH  33  34
ENDBRANCH  32  33
ENDBRANCH  31  32
ENDBRANCH  30  31
ENDBRANCH  15  30
BRANCH  20  40
HETATM   40  C20 UNL     1      23.826  26.549   4.222  1.00  0.00     0.038 C 
BRANCH  40  41
HETATM   41  C21 UNL     1      22.537  26.440   3.521  1.00  0.00    -0.020 C 
HETATM   42  C22 UNL     1      22.062  27.909   3.296  1.00  0.00     0.009 C 
HETATM   43  C23 UNL     1      21.456  25.826   4.346  1.00  0.00     0.009 C 
ENDBRANCH  40  41
ENDBRANCH  20  40
BRANCH  25  44
HETATM   44  C26 UNL     1      26.293  26.042   7.326  1.00  0.00     0.038 C 
BRANCH  44  45
HETATM   45  C27 UNL     1      27.125  27.275   7.534  1.00  0.00    -0.020 C 
HETATM   46  C28 UNL     1      27.942  27.155   8.785  1.00  0.00     0.009 C 
HETATM   47  C29 UNL     1      26.134  28.435   7.751  1.00  0.00     0.009 C 
ENDBRANCH  44  45
ENDBRANCH  25  44
BRANCH   1  48
HETATM   48  C4  UNL     1      26.447  21.780   8.920  1.00  0.00     0.038 C 
BRANCH  48  49
HETATM   49  C2  UNL     1      26.406  20.322   9.129  1.00  0.00    -0.020 C 
HETATM   50  C1  UNL     1      27.391  19.739  10.098  1.00  0.00     0.009 C 
HETATM   51  C3  UNL     1      25.013  19.965   9.691  1.00  0.00     0.009 C 
ENDBRANCH  48  49
ENDBRANCH   1  48
TORSDOF 12
ENDMDL
MODEL 4
REMARK VINA RESULT: -7.708501662      1.562      1.984
REMARK  12 active torsions:
REMARK  status: ('A' for Active; 'I' for Inactive)
REMARK    1  A    between atoms: C2_2  and  C4_4 
REMARK    2  A    between atoms: C4_4  and  C5_5 
REMARK    3  A    between atoms: C12_19  and  C13_20 
REMARK    4  A    between atoms: C13_20  and  C14_21 
REMARK    5  A    between atoms: C14_21  and  C15_22 
REMARK    6  A    between atoms: C15_22  and  C16_23 
REMARK    7  A    between atoms: C16_23  and  C17_24 
REMARK    8  A    between atoms: C17_24  and  N4_25 
REMARK    9  A    between atoms: C19_34  and  C20_35 
REMARK   10  A    between atoms: C20_35  and  C21_36 
REMARK   11  A    between atoms: C25_43  and  C26_44 
REMARK   12  A    between atoms: C26_44  and  C27_45 
ROOT
HETATM    1  C5  UNL     1      26.270  22.302   7.549  1.00  0.00     0.177 C 
HETATM    2  N1  UNL     1      25.589  21.385   6.680  1.00  0.00    -0.348 N 
ATOM      3  H1  UNL     1      24.578  21.363   6.806  1.00  0.00     0.163 HD
HETATM    4  C6  UNL     1      26.057  20.522   5.699  1.00  0.00     0.220 C 
HETATM    5  O1  UNL     1      25.910  19.255   5.926  1.00  0.00    -0.274 OA
HETATM    6  C7  UNL     1      26.707  20.824   4.410  1.00  0.00     0.124 C 
HETATM    7  C8  UNL     1      26.019  21.891   3.592  1.00  0.00     0.161 C 
HETATM    8  N2  UNL     1      24.683  21.501   3.209  1.00  0.00    -0.254 N 
HETATM    9  C9  UNL     1      23.553  20.692   3.527  1.00  0.00     0.258 C 
HETATM   10  O2  UNL     1      22.991  20.306   4.541  1.00  0.00    -0.270 OA
HETATM   11  C10 UNL     1      23.393  20.547   2.069  1.00  0.00     0.257 C 
HETATM   12  N3  UNL     1      23.938  21.927   2.129  1.00  0.00    -0.246 N 
HETATM   13  C11 UNL     1      23.850  23.188   1.523  1.00  0.00     0.261 C 
HETATM   14  O3  UNL     1      22.709  23.800   1.481  1.00  0.00    -0.269 OA
HETATM   15  C12 UNL     1      24.920  23.985   0.879  1.00  0.00     0.178 C 
HETATM   16  N6  UNL     1      24.697  25.417   1.027  1.00  0.00    -0.346 N 
ATOM     17  H6  UNL     1      24.128  25.863   0.307  1.00  0.00     0.163 HD
HETATM   18  C18 UNL     1      25.176  26.255   2.050  1.00  0.00     0.241 C 
HETATM   19  O4  UNL     1      25.795  27.325   1.699  1.00  0.00    -0.271 OA
HETATM   20  C19 UNL     1      25.035  26.017   3.507  1.00  0.00     0.177 C 
HETATM   21  N7  UNL     1      26.204  26.608   4.171  1.00  0.00    -0.346 N 
ATOM     22  H7  UNL     1      26.370  27.601   4.004  1.00  0.00     0.163 HD
HETATM   23  C24 UNL     1      27.111  25.956   5.006  1.00  0.00     0.241 C 
HETATM   24  O5  UNL     1      28.375  26.032   4.792  1.00  0.00    -0.271 OA
HETATM   25  C25 UNL     1      26.693  25.128   6.201  1.00  0.00     0.177 C 
HETATM   26  N8  UNL     1      27.672  24.154   6.482  1.00  0.00    -0.346 N 
ATOM     27  H8  UNL     1      28.630  24.432   6.272  1.00  0.00     0.163 HD
HETATM   28  C30 UNL     1      27.531  22.856   7.009  1.00  0.00     0.241 C 
HETATM   29  O6  UNL     1      28.537  22.063   7.048  1.00  0.00    -0.271 OA
ENDROOT
BRANCH  15  30
HETATM   30  C13 UNL     1      24.811  23.712  -0.630  1.00  0.00     0.035 C 
BRANCH  30  31
HETATM   31  C14 UNL     1      24.516  24.908  -1.452  1.00  0.00     0.002 C 
BRANCH  31  32
HETATM   32  C15 UNL     1      25.235  24.976  -2.767  1.00  0.00     0.002 C 
BRANCH  32  33
HETATM   33  C16 UNL     1      26.150  26.157  -2.878  1.00  0.00     0.021 C 
BRANCH  33  34
HETATM   34  C17 UNL     1      25.745  27.253  -1.941  1.00  0.00     0.139 C 
BRANCH  34  35
HETATM   35  N4  UNL     1      26.869  27.642  -1.094  1.00  0.00    -0.343 N 
HETATM   36  N5  UNL     1      26.914  28.777  -0.619  1.00  0.00    -0.349 N 
ATOM     37  H52 UNL     1      26.161  29.432  -0.828  1.00  0.00     0.176 HD
ATOM     38  H51 UNL     1      27.700  29.049  -0.028  1.00  0.00     0.176 HD
ATOM     39  H4  UNL     1      27.614  26.974  -0.895  1.00  0.00     0.179 HD
ENDBRANCH  34  35
ENDBRANCH  33  34
ENDBRANCH  32  33
ENDBRANCH  31  32
ENDBRANCH  30  31
ENDBRANCH  15  30
BRANCH  20  40
HETATM   40  C20 UNL     1      23.774  26.430   4.149  1.00  0.00     0.038 C 
BRANCH  40  41
HETATM   41  C21 UNL     1      22.498  26.341   3.421  1.00  0.00    -0.020 C 
HETATM   42  C22 UNL     1      22.047  27.817   3.195  1.00  0.00     0.009 C 
HETATM   43  C23 UNL     1      21.393  25.737   4.221  1.00  0.00     0.009 C 
ENDBRANCH  40  41
ENDBRANCH  20  40
BRANCH  25  44
HETATM   44  C26 UNL     1      26.236  26.039   7.273  1.00  0.00     0.038 C 
BRANCH  44  45
HETATM   45  C27 UNL     1      27.067  27.271   7.486  1.00  0.00    -0.020 C 
HETATM   46  C28 UNL     1      27.866  27.157   8.750  1.00  0.00     0.009 C 
HETATM   47  C29 UNL     1      26.077  28.434   7.681  1.00  0.00     0.009 C 
ENDBRANCH  44  45
ENDBRANCH  25  44
BRANCH   1  48
HETATM   48  C4  UNL     1      26.463  21.816   8.962  1.00  0.00     0.038 C 
BRANCH  48  49
HETATM   49  C2  UNL     1      26.453  20.363   9.202  1.00  0.00    -0.020 C 
HETATM   50  C1  UNL     1      27.434  19.824  10.201  1.00  0.00     0.009 C 
HETATM   51  C3  UNL     1      25.060  19.984   9.746  1.00  0.00     0.009 C 
ENDBRANCH  48  49
ENDBRANCH   1  48
TORSDOF 12
ENDMDL
MODEL 5
REMARK VINA RESULT: -7.195188736      2.758      5.519
REMARK  12 active torsions:
REMARK  status: ('A' for Active; 'I' for Inactive)
REMARK    1  A    between atoms: C2_2  and  C4_4 
REMARK    2  A    between atoms: C4_4  and  C5_5 
REMARK    3  A    between atoms: C12_19  and  C13_20 
REMARK    4  A    between atoms: C13_20  and  C14_21 
REMARK    5  A    between atoms: C14_21  and  C15_22 
REMARK    6  A    between atoms: C15_22  and  C16_23 
REMARK    7  A    between atoms: C16_23  and  C17_24 
REMARK    8  A    between atoms: C17_24  and  N4_25 
REMARK    9  A    between atoms: C19_34  and  C20_35 
REMARK   10  A    between atoms: C20_35  and  C21_36 
REMARK   11  A    between atoms: C25_43  and  C26_44 
REMARK   12  A    between atoms: C26_44  and  C27_45 
ROOT
HETATM    1  C5  UNL     1      26.670  25.255   7.239  1.00  0.00     0.177 C 
HETATM    2  N1  UNL     1      26.522  23.868   7.576  1.00  0.00    -0.348 N 
ATOM      3  H1  UNL     1      25.710  23.665   8.158  1.00  0.00     0.163 HD
HETATM    4  C6  UNL     1      27.282  22.753   7.256  1.00  0.00     0.220 C 
HETATM    5  O1  UNL     1      27.883  22.160   8.238  1.00  0.00    -0.274 OA
HETATM    6  C7  UNL     1      27.520  22.119   5.944  1.00  0.00     0.124 C 
HETATM    7  C8  UNL     1      26.276  21.906   5.114  1.00  0.00     0.161 C 
HETATM    8  N2  UNL     1      25.346  21.008   5.755  1.00  0.00    -0.254 N 
HETATM    9  C9  UNL     1      24.890  20.468   6.993  1.00  0.00     0.258 C 
HETATM   10  O2  UNL     1      24.743  20.867   8.139  1.00  0.00    -0.270 OA
HETATM   11  C10 UNL     1      24.685  19.218   6.238  1.00  0.00     0.257 C 
HETATM   12  N3  UNL     1      24.381  20.210   5.175  1.00  0.00    -0.246 N 
HETATM   13  C11 UNL     1      23.550  20.440   4.070  1.00  0.00     0.261 C 
HETATM   14  O3  UNL     1      22.265  20.434   4.225  1.00  0.00    -0.269 OA
HETATM   15  C12 UNL     1      23.929  20.706   2.663  1.00  0.00     0.178 C 
HETATM   16  N6  UNL     1      22.971  21.577   1.995  1.00  0.00    -0.346 N 
ATOM     17  H6  UNL     1      22.179  21.116   1.546  1.00  0.00     0.163 HD
HETATM   18  C18 UNL     1      23.012  22.979   1.900  1.00  0.00     0.241 C 
HETATM   19  O4  UNL     1      22.898  23.498   0.730  1.00  0.00    -0.271 OA
HETATM   20  C19 UNL     1      23.179  23.923   3.032  1.00  0.00     0.177 C 
HETATM   21  N7  UNL     1      23.889  25.104   2.527  1.00  0.00    -0.346 N 
ATOM     22  H7  UNL     1      23.463  25.592   1.738  1.00  0.00     0.163 HD
HETATM   23  C24 UNL     1      25.087  25.631   3.011  1.00  0.00     0.241 C 
HETATM   24  O5  UNL     1      26.069  25.869   2.218  1.00  0.00    -0.271 OA
HETATM   25  C25 UNL     1      25.323  25.957   4.469  1.00  0.00     0.177 C 
HETATM   26  N8  UNL     1      26.698  25.894   4.764  1.00  0.00    -0.346 N 
ATOM     27  H8  UNL     1      27.317  26.164   3.999  1.00  0.00     0.163 HD
HETATM   28  C30 UNL     1      27.353  25.516   5.952  1.00  0.00     0.241 C 
HETATM   29  O6  UNL     1      28.627  25.378   5.971  1.00  0.00    -0.271 OA
ENDROOT
BRANCH  15  30
HETATM   30  C13 UNL     1      23.832  19.359   1.930  1.00  0.00     0.035 C 
BRANCH  30  31
HETATM   31  C14 UNL     1      24.018  18.172   2.795  1.00  0.00     0.002 C 
BRANCH  31  32
HETATM   32  C15 UNL     1      22.818  17.279   2.925  1.00  0.00     0.002 C 
BRANCH  32  33
HETATM   33  C16 UNL     1      22.618  16.761   4.316  1.00  0.00     0.021 C 
BRANCH  33  34
HETATM   34  C17 UNL     1      21.967  15.412   4.310  1.00  0.00     0.139 C 
BRANCH  34  35
HETATM   35  N4  UNL     1      22.957  14.367   4.557  1.00  0.00    -0.343 N 
HETATM   36  N5  UNL     1      24.127  14.673   4.788  1.00  0.00    -0.349 N 
ATOM     37  H52 UNL     1      24.387  15.659   4.803  1.00  0.00     0.176 HD
ATOM     38  H51 UNL     1      24.818  13.944   4.961  1.00  0.00     0.176 HD
ATOM     39  H4  UNL     1      22.680  13.385   4.540  1.00  0.00     0.179 HD
ENDBRANCH  34  35
ENDBRANCH  33  34
ENDBRANCH  32  33
ENDBRANCH  31  32
ENDBRANCH  30  31
ENDBRANCH  15  30
BRANCH  20  40
HETATM   40  C20 UNL     1      21.974  24.294   3.796  1.00  0.00     0.038 C 
BRANCH  40  41
HETATM   41  C21 UNL     1      21.620  25.708   3.996  1.00  0.00    -0.020 C 
HETATM   42  C22 UNL     1      20.324  25.690   4.865  1.00  0.00     0.009 C 
HETATM   43  C23 UNL     1      21.213  26.407   2.743  1.00  0.00     0.009 C 
ENDBRANCH  40  41
ENDBRANCH  20  40
BRANCH  25  44
HETATM   44  C26 UNL     1      24.554  27.173   4.813  1.00  0.00     0.038 C 
BRANCH  44  45
HETATM   45  C27 UNL     1      24.761  28.357   3.914  1.00  0.00    -0.020 C 
HETATM   46  C28 UNL     1      25.775  29.293   4.499  1.00  0.00     0.009 C 
HETATM   47  C29 UNL     1      23.419  29.112   3.874  1.00  0.00     0.009 C 
ENDBRANCH  44  45
ENDBRANCH  25  44
BRANCH   1  48
HETATM   48  C4  UNL     1      27.246  26.118   8.331  1.00  0.00     0.038 C 
BRANCH  48  49
HETATM   49  C2  UNL     1      27.376  27.563   8.075  1.00  0.00    -0.020 C 
HETATM   50  C1  UNL     1      26.110  28.366   8.004  1.00  0.00     0.009 C 
HETATM   51  C3  UNL     1      28.189  28.177   9.235  1.00  0.00     0.009 C 
ENDBRANCH  48  49
ENDBRANCH   1  48
TORSDOF 12
ENDMDL
