MODEL 1
REMARK VINA RESULT: -6.733344405      0.000      0.000
REMARK  12 active torsions:
REMARK  status: ('A' for Active; 'I' for Inactive)
REMARK    1  A    between atoms: C4_6  and  C5_7 
REMARK    2  A    between atoms: C5_7  and  C6_8 
REMARK    3  A    between atoms: C8_13  and  C9_14 
REMARK    4  A    between atoms: C9_14  and  C10_15 
REMARK    5  A    between atoms: C18_25  and  O3_26 
REMARK    6  A    between atoms: C19_30  and  C20_31 
REMARK    7  A    between atoms: C20_31  and  C21_32 
REMARK    8  A    between atoms: C21_32  and  C22_33 
REMARK    9  A    between atoms: C22_33  and  C23_34 
REMARK   10  A    between atoms: C23_34  and  N5_35 
REMARK   11  A    between atoms: C25_43  and  C26_44 
REMARK   12  A    between atoms: C26_44  and  N7_45 
ROOT
HETATM    1  C6  UNL     1      26.315  22.110   5.741  1.00  0.00     0.153 C 
HETATM    2  C7  UNL     1      26.586  21.900   4.319  1.00  0.00     0.230 C 
HETATM    3  O1  UNL     1      27.819  21.712   4.006  1.00  0.00    -0.273 OA
HETATM    4  N2  UNL     1      25.699  21.871   3.235  1.00  0.00    -0.347 N 
ATOM      5  H2  UNL     1      25.929  21.211   2.493  1.00  0.00     0.163 HD
HETATM    6  C8  UNL     1      24.506  22.648   3.028  1.00  0.00     0.177 C 
HETATM    7  C13 UNL     1      24.579  23.587   1.888  1.00  0.00     0.243 C 
HETATM    8  O2  UNL     1      25.340  23.209   0.917  1.00  0.00    -0.271 OA
HETATM    9  N3  UNL     1      23.954  24.814   1.699  1.00  0.00    -0.338 N 
HETATM   10  C14 UNL     1      23.030  25.380   0.700  1.00  0.00     0.127 C 
HETATM   11  C15 UNL     1      21.940  25.882   1.660  1.00  0.00     0.022 C 
HETATM   12  C16 UNL     1      22.686  26.204   2.968  1.00  0.00     0.035 C 
HETATM   13  C17 UNL     1      24.087  26.017   2.566  1.00  0.00     0.161 C 
HETATM   14  C18 UNL     1      25.113  25.813   3.586  1.00  0.00     0.135 C 
HETATM   15  N4  UNL     1      25.147  25.916   4.958  1.00  0.00    -0.359 N 
ATOM     16  H4  UNL     1      24.975  25.003   5.380  1.00  0.00     0.162 HD
HETATM   17  C19 UNL     1      25.343  26.886   5.970  1.00  0.00     0.175 C 
HETATM   18  C24 UNL     1      25.811  26.195   7.247  1.00  0.00     0.241 C 
HETATM   19  O4  UNL     1      25.667  26.885   8.282  1.00  0.00    -0.271 OA
HETATM   20  N6  UNL     1      26.357  24.903   7.303  1.00  0.00    -0.346 N 
ATOM     21  H6  UNL     1      25.954  24.256   7.982  1.00  0.00     0.163 HD
HETATM   22  C25 UNL     1      27.471  24.394   6.460  1.00  0.00     0.181 C 
HETATM   23  C30 UNL     1      27.407  22.928   6.374  1.00  0.00     0.164 C 
HETATM   24  O5  UNL     1      28.301  22.251   6.848  1.00  0.00    -0.295 OA
ENDROOT
BRANCH   1  25
HETATM   25  C5  UNL     1      26.209  20.871   6.570  1.00  0.00     0.062 C 
BRANCH  25  26
HETATM   26  C4  UNL     1      25.121  19.956   6.268  1.00  0.00    -0.034 A 
HETATM   27  C3  UNL     1      24.932  19.249   5.060  1.00  0.00     0.095 A 
HETATM   28  N1  UNL     1      23.842  18.473   5.158  1.00  0.00    -0.368 N 
HETATM   29  C2  UNL     1      23.303  18.634   6.374  1.00  0.00     0.011 A 
ATOM     30  H1  UNL     1      23.482  17.859   4.427  1.00  0.00     0.165 HD
HETATM   31  C1  UNL     1      22.085  17.952   6.875  1.00  0.00     0.068 C 
HETATM   32  C31 UNL     1      24.088  19.546   7.056  1.00  0.00    -0.032 A 
HETATM   33  C32 UNL     1      23.763  19.998   8.423  1.00  0.00     0.050 C 
ENDBRANCH  25  26
ENDBRANCH   1  25
BRANCH  22  34
HETATM   34  C26 UNL     1      28.705  24.831   7.182  1.00  0.00     0.268 C 
BRANCH  34  35
HETATM   35  N7  UNL     1      29.500  25.885   6.714  1.00  0.00    -0.076 N 
HETATM   36  C27 UNL     1      29.228  26.451   5.441  1.00  0.00     0.271 C 
HETATM   37  C28 UNL     1      30.945  25.604   6.789  1.00  0.00     0.271 C 
HETATM   38  C29 UNL     1      29.366  27.040   7.670  1.00  0.00     0.271 C 
ENDBRANCH  34  35
ENDBRANCH  22  34
BRANCH   6  39
HETATM   39  C9  UNL     1      23.256  21.831   3.033  1.00  0.00     0.038 C 
BRANCH  39  40
HETATM   40  C10 UNL     1      22.814  21.169   1.801  1.00  0.00    -0.020 C 
HETATM   41  C11 UNL     1      23.542  19.796   1.760  1.00  0.00     0.009 C 
HETATM   42  C12 UNL     1      21.336  20.815   1.779  1.00  0.00     0.009 C 
ENDBRANCH  39  40
ENDBRANCH   6  39
BRANCH  17  43
HETATM   43  C20 UNL     1      26.175  28.067   5.675  1.00  0.00     0.035 C 
BRANCH  43  44
HETATM   44  C21 UNL     1      25.528  29.388   5.630  1.00  0.00     0.004 C 
BRANCH  44  45
HETATM   45  C22 UNL     1      25.584  30.200   6.868  1.00  0.00     0.027 C 
BRANCH  45  46
HETATM   46  C23 UNL     1      26.950  30.082   7.544  1.00  0.00     0.229 C 
BRANCH  46  47
HETATM   47  N5  UNL     1      26.858  29.630   8.895  1.00  0.00    -0.079 N 
ATOM     48  H53 UNL     1      26.039  29.037   9.028  1.00  0.00     0.274 HD
ATOM     49  H52 UNL     1      27.590  28.951   9.104  1.00  0.00     0.274 HD
ATOM     50  H51 UNL     1      26.868  30.397   9.568  1.00  0.00     0.274 HD
ENDBRANCH  46  47
ENDBRANCH  45  46
ENDBRANCH  44  45
ENDBRANCH  43  44
ENDBRANCH  17  43
BRANCH  14  51
HETATM   51  O3  UNL     1      26.207  25.449   2.945  1.00  0.00    -0.348 OA
ATOM     52  H3  UNL     1      26.323  24.523   3.121  1.00  0.00     0.219 HD
ENDBRANCH  14  51
TORSDOF 12
ENDMDL
MODEL 2
REMARK VINA RESULT: -6.598840393      2.166      4.505
REMARK  12 active torsions:
REMARK  status: ('A' for Active; 'I' for Inactive)
REMARK    1  A    between atoms: C4_6  and  C5_7 
REMARK    2  A    between atoms: C5_7  and  C6_8 
REMARK    3  A    between atoms: C8_13  and  C9_14 
REMARK    4  A    between atoms: C9_14  and  C10_15 
REMARK    5  A    between atoms: C18_25  and  O3_26 
REMARK    6  A    between atoms: C19_30  and  C20_31 
REMARK    7  A    between atoms: C20_31  and  C21_32 
REMARK    8  A    between atoms: C21_32  and  C22_33 
REMARK    9  A    between atoms: C22_33  and  C23_34 
REMARK   10  A    between atoms: C23_34  and  N5_35 
REMARK   11  A    between atoms: C25_43  and  C26_44 
REMARK   12  A    between atoms: C26_44  and  N7_45 
ROOT
HETATM    1  C6  UNL     1      26.122  23.069   6.600  1.00  0.00     0.153 C 
HETATM    2  C7  UNL     1      26.730  22.045   5.750  1.00  0.00     0.230 C 
HETATM    3  O1  UNL     1      27.972  22.220   5.466  1.00  0.00    -0.273 OA
HETATM    4  N2  UNL     1      26.161  20.891   5.196  1.00  0.00    -0.347 N 
ATOM      5  H2  UNL     1      26.777  20.081   5.135  1.00  0.00     0.163 HD
HETATM    6  C8  UNL     1      24.825  20.696   4.701  1.00  0.00     0.177 C 
HETATM    7  C13 UNL     1      24.743  20.443   3.246  1.00  0.00     0.243 C 
HETATM    8  O2  UNL     1      25.768  19.847   2.737  1.00  0.00    -0.271 OA
HETATM    9  N3  UNL     1      23.733  20.749   2.341  1.00  0.00    -0.338 N 
HETATM   10  C14 UNL     1      22.879  19.978   1.420  1.00  0.00     0.127 C 
HETATM   11  C15 UNL     1      21.513  20.502   1.889  1.00  0.00     0.022 C 
HETATM   12  C16 UNL     1      21.794  21.924   2.407  1.00  0.00     0.035 C 
HETATM   13  C17 UNL     1      23.203  22.105   2.032  1.00  0.00     0.161 C 
HETATM   14  C18 UNL     1      24.001  23.139   2.688  1.00  0.00     0.135 C 
HETATM   15  N4  UNL     1      23.718  24.191   3.529  1.00  0.00    -0.359 N 
ATOM     16  H4  UNL     1      23.844  23.904   4.500  1.00  0.00     0.162 HD
HETATM   17  C19 UNL     1      23.309  25.544   3.475  1.00  0.00     0.175 C 
HETATM   18  C24 UNL     1      23.748  26.256   4.750  1.00  0.00     0.241 C 
HETATM   19  O4  UNL     1      23.141  27.329   4.972  1.00  0.00    -0.271 OA
HETATM   20  N6  UNL     1      24.740  25.787   5.626  1.00  0.00    -0.346 N 
ATOM     21  H6  UNL     1      24.501  25.740   6.618  1.00  0.00     0.163 HD
HETATM   22  C25 UNL     1      26.108  25.352   5.237  1.00  0.00     0.181 C 
HETATM   23  C30 UNL     1      26.650  24.432   6.247  1.00  0.00     0.164 C 
HETATM   24  O5  UNL     1      27.626  24.753   6.901  1.00  0.00    -0.295 OA
ENDROOT
BRANCH   1  25
HETATM   25  C5  UNL     1      26.354  22.915   8.068  1.00  0.00     0.062 C 
BRANCH  25  26
HETATM   26  C4  UNL     1      26.559  21.568   8.574  1.00  0.00    -0.034 A 
HETATM   27  C3  UNL     1      27.793  20.887   8.667  1.00  0.00     0.095 A 
HETATM   28  N1  UNL     1      27.600  19.678   9.217  1.00  0.00    -0.368 N 
HETATM   29  C2  UNL     1      26.297  19.529   9.491  1.00  0.00     0.011 A 
ATOM     30  H1  UNL     1      28.326  18.985   9.397  1.00  0.00     0.165 HD
HETATM   31  C1  UNL     1      25.676  18.331  10.104  1.00  0.00     0.068 C 
HETATM   32  C31 UNL     1      25.657  20.690   9.096  1.00  0.00    -0.032 A 
HETATM   33  C32 UNL     1      24.196  20.863   9.211  1.00  0.00     0.050 C 
ENDBRANCH  25  26
ENDBRANCH   1  25
BRANCH  22  34
HETATM   34  C26 UNL     1      26.897  26.621   5.195  1.00  0.00     0.268 C 
BRANCH  34  35
HETATM   35  N7  UNL     1      27.217  27.252   3.986  1.00  0.00    -0.076 N 
HETATM   36  C27 UNL     1      26.796  26.668   2.762  1.00  0.00     0.271 C 
HETATM   37  C28 UNL     1      28.647  27.587   3.863  1.00  0.00     0.271 C 
HETATM   38  C29 UNL     1      26.584  28.617   3.982  1.00  0.00     0.271 C 
ENDBRANCH  34  35
ENDBRANCH  22  34
BRANCH   6  39
HETATM   39  C9  UNL     1      24.028  19.724   5.507  1.00  0.00     0.038 C 
BRANCH  39  40
HETATM   40  C10 UNL     1      24.695  18.576   6.132  1.00  0.00    -0.020 C 
HETATM   41  C11 UNL     1      23.686  17.996   7.164  1.00  0.00     0.009 C 
HETATM   42  C12 UNL     1      24.972  17.422   5.183  1.00  0.00     0.009 C 
ENDBRANCH  39  40
ENDBRANCH   6  39
BRANCH  17  43
HETATM   43  C20 UNL     1      23.643  26.344   2.282  1.00  0.00     0.035 C 
BRANCH  43  44
HETATM   44  C21 UNL     1      22.741  26.285   1.121  1.00  0.00     0.004 C 
BRANCH  44  45
HETATM   45  C22 UNL     1      23.378  26.221  -0.215  1.00  0.00     0.027 C 
BRANCH  45  46
HETATM   46  C23 UNL     1      24.737  25.526  -0.147  1.00  0.00     0.229 C 
BRANCH  46  47
HETATM   47  N5  UNL     1      24.690  24.178  -0.611  1.00  0.00    -0.079 N 
ATOM     48  H53 UNL     1      23.787  23.968  -1.037  1.00  0.00     0.274 HD
ATOM     49  H52 UNL     1      25.290  24.051  -1.427  1.00  0.00     0.274 HD
ATOM     50  H51 UNL     1      24.916  23.502   0.119  1.00  0.00     0.274 HD
ENDBRANCH  46  47
ENDBRANCH  45  46
ENDBRANCH  44  45
ENDBRANCH  43  44
ENDBRANCH  17  43
BRANCH  14  51
HETATM   51  O3  UNL     1      25.253  22.922   2.334  1.00  0.00    -0.348 OA
ATOM     52  H3  UNL     1      25.731  22.748   3.136  1.00  0.00     0.219 HD
ENDBRANCH  14  51
TORSDOF 12
ENDMDL
MODEL 3
REMARK VINA RESULT: -6.519666075      2.183      4.271
REMARK  12 active torsions:
REMARK  status: ('A' for Active; 'I' for Inactive)
REMARK    1  A    between atoms: C4_6  and  C5_7 
REMARK    2  A    between atoms: C5_7  and  C6_8 
REMARK    3  A    between atoms: C8_13  and  C9_14 
REMARK    4  A    between atoms: C9_14  and  C10_15 
REMARK    5  A    between atoms: C18_25  and  O3_26 
REMARK    6  A    between atoms: C19_30  and  C20_31 
REMARK    7  A    between atoms: C20_31  and  C21_32 
REMARK    8  A    between atoms: C21_32  and  C22_33 
REMARK    9  A    between atoms: C22_33  and  C23_34 
REMARK   10  A    between atoms: C23_34  and  N5_35 
REMARK   11  A    between atoms: C25_43  and  C26_44 
REMARK   12  A    between atoms: C26_44  and  N7_45 
ROOT
HETATM    1  C6  UNL     1      26.126  23.028   6.565  1.00  0.00     0.153 C 
HETATM    2  C7  UNL     1      26.739  21.994   5.731  1.00  0.00     0.230 C 
HETATM    3  O1  UNL     1      27.984  22.159   5.459  1.00  0.00    -0.273 OA
HETATM    4  N2  UNL     1      26.169  20.838   5.179  1.00  0.00    -0.347 N 
ATOM      5  H2  UNL     1      26.781  20.024   5.132  1.00  0.00     0.163 HD
HETATM    6  C8  UNL     1      24.838  20.647   4.671  1.00  0.00     0.177 C 
HETATM    7  C13 UNL     1      24.771  20.383   3.217  1.00  0.00     0.243 C 
HETATM    8  O2  UNL     1      25.798  19.776   2.725  1.00  0.00    -0.271 OA
HETATM    9  N3  UNL     1      23.774  20.686   2.298  1.00  0.00    -0.338 N 
HETATM   10  C14 UNL     1      22.925  19.913   1.374  1.00  0.00     0.127 C 
HETATM   11  C15 UNL     1      21.557  20.448   1.823  1.00  0.00     0.022 C 
HETATM   12  C16 UNL     1      21.841  21.873   2.332  1.00  0.00     0.035 C 
HETATM   13  C17 UNL     1      23.255  22.043   1.972  1.00  0.00     0.161 C 
HETATM   14  C18 UNL     1      24.052  23.077   2.628  1.00  0.00     0.135 C 
HETATM   15  N4  UNL     1      23.765  24.138   3.458  1.00  0.00    -0.359 N 
ATOM     16  H4  UNL     1      23.878  23.859   4.432  1.00  0.00     0.162 HD
HETATM   17  C19 UNL     1      23.364  25.493   3.387  1.00  0.00     0.175 C 
HETATM   18  C24 UNL     1      23.793  26.213   4.661  1.00  0.00     0.241 C 
HETATM   19  O4  UNL     1      23.189  27.291   4.867  1.00  0.00    -0.271 OA
HETATM   20  N6  UNL     1      24.772  25.745   5.553  1.00  0.00    -0.346 N 
ATOM     21  H6  UNL     1      24.521  25.708   6.542  1.00  0.00     0.163 HD
HETATM   22  C25 UNL     1      26.141  25.300   5.183  1.00  0.00     0.181 C 
HETATM   23  C30 UNL     1      26.667  24.386   6.207  1.00  0.00     0.164 C 
HETATM   24  O5  UNL     1      27.637  24.706   6.869  1.00  0.00    -0.295 OA
ENDROOT
BRANCH   1  25
HETATM   25  C5  UNL     1      26.341  22.885   8.037  1.00  0.00     0.062 C 
BRANCH  25  26
HETATM   26  C4  UNL     1      26.529  21.541   8.557  1.00  0.00    -0.034 A 
HETATM   27  C3  UNL     1      27.762  20.868   8.711  1.00  0.00     0.095 A 
HETATM   28  N1  UNL     1      27.548  19.659   9.255  1.00  0.00    -0.368 N 
HETATM   29  C2  UNL     1      26.235  19.504   9.467  1.00  0.00     0.011 A 
ATOM     30  H1  UNL     1      28.269  18.972   9.473  1.00  0.00     0.165 HD
HETATM   31  C1  UNL     1      25.592  18.304  10.053  1.00  0.00     0.068 C 
HETATM   32  C31 UNL     1      25.608  20.659   9.037  1.00  0.00    -0.032 A 
HETATM   33  C32 UNL     1      24.142  20.823   9.081  1.00  0.00     0.050 C 
ENDBRANCH  25  26
ENDBRANCH   1  25
BRANCH  22  34
HETATM   34  C26 UNL     1      26.938  26.563   5.140  1.00  0.00     0.268 C 
BRANCH  34  35
HETATM   35  N7  UNL     1      27.238  27.207   3.932  1.00  0.00    -0.076 N 
HETATM   36  C27 UNL     1      26.833  26.614   2.707  1.00  0.00     0.271 C 
HETATM   37  C28 UNL     1      28.658  27.583   3.807  1.00  0.00     0.271 C 
HETATM   38  C29 UNL     1      26.568  28.553   3.932  1.00  0.00     0.271 C 
ENDBRANCH  34  35
ENDBRANCH  22  34
BRANCH   6  39
HETATM   39  C9  UNL     1      24.026  19.686   5.476  1.00  0.00     0.038 C 
BRANCH  39  40
HETATM   40  C10 UNL     1      24.658  18.483   6.029  1.00  0.00    -0.020 C 
HETATM   41  C11 UNL     1      23.660  17.910   7.075  1.00  0.00     0.009 C 
HETATM   42  C12 UNL     1      24.842  17.357   5.024  1.00  0.00     0.009 C 
ENDBRANCH  39  40
ENDBRANCH   6  39
BRANCH  17  43
HETATM   43  C20 UNL     1      23.717  26.282   2.192  1.00  0.00     0.035 C 
BRANCH  43  44
HETATM   44  C21 UNL     1      22.742  26.366   1.093  1.00  0.00     0.004 C 
BRANCH  44  45
HETATM   45  C22 UNL     1      21.400  26.896   1.432  1.00  0.00     0.027 C 
BRANCH  45  46
HETATM   46  C23 UNL     1      21.486  28.339   1.928  1.00  0.00     0.229 C 
BRANCH  46  47
HETATM   47  N5  UNL     1      20.972  28.499   3.250  1.00  0.00    -0.079 N 
ATOM     48  H53 UNL     1      19.963  28.354   3.271  1.00  0.00     0.274 HD
ATOM     49  H52 UNL     1      21.262  27.726   3.850  1.00  0.00     0.274 HD
ATOM     50  H51 UNL     1      21.222  29.397   3.663  1.00  0.00     0.274 HD
ENDBRANCH  46  47
ENDBRANCH  45  46
ENDBRANCH  44  45
ENDBRANCH  43  44
ENDBRANCH  17  43
BRANCH  14  51
HETATM   51  O3  UNL     1      25.306  22.850   2.290  1.00  0.00    -0.348 OA
ATOM     52  H3  UNL     1      25.739  23.695   2.289  1.00  0.00     0.219 HD
ENDBRANCH  14  51
TORSDOF 12
ENDMDL
MODEL 4
REMARK VINA RESULT: -6.491201378      0.932      1.364
REMARK  12 active torsions:
REMARK  status: ('A' for Active; 'I' for Inactive)
REMARK    1  A    between atoms: C4_6  and  C5_7 
REMARK    2  A    between atoms: C5_7  and  C6_8 
REMARK    3  A    between atoms: C8_13  and  C9_14 
REMARK    4  A    between atoms: C9_14  and  C10_15 
REMARK    5  A    between atoms: C18_25  and  O3_26 
REMARK    6  A    between atoms: C19_30  and  C20_31 
REMARK    7  A    between atoms: C20_31  and  C21_32 
REMARK    8  A    between atoms: C21_32  and  C22_33 
REMARK    9  A    between atoms: C22_33  and  C23_34 
REMARK   10  A    between atoms: C23_34  and  N5_35 
REMARK   11  A    between atoms: C25_43  and  C26_44 
REMARK   12  A    between atoms: C26_44  and  N7_45 
ROOT
HETATM    1  C6  UNL     1      26.343  22.124   5.763  1.00  0.00     0.153 C 
HETATM    2  C7  UNL     1      26.614  21.902   4.343  1.00  0.00     0.230 C 
HETATM    3  O1  UNL     1      27.847  21.710   4.032  1.00  0.00    -0.273 OA
HETATM    4  N2  UNL     1      25.727  21.864   3.259  1.00  0.00    -0.347 N 
ATOM      5  H2  UNL     1      25.957  21.197   2.523  1.00  0.00     0.163 HD
HETATM    6  C8  UNL     1      24.535  22.640   3.046  1.00  0.00     0.177 C 
HETATM    7  C13 UNL     1      24.608  23.569   1.898  1.00  0.00     0.243 C 
HETATM    8  O2  UNL     1      25.369  23.183   0.930  1.00  0.00    -0.271 OA
HETATM    9  N3  UNL     1      23.983  24.795   1.698  1.00  0.00    -0.338 N 
HETATM   10  C14 UNL     1      23.060  25.353   0.694  1.00  0.00     0.127 C 
HETATM   11  C15 UNL     1      21.970  25.863   1.650  1.00  0.00     0.022 C 
HETATM   12  C16 UNL     1      22.716  26.195   2.955  1.00  0.00     0.035 C 
HETATM   13  C17 UNL     1      24.117  26.005   2.555  1.00  0.00     0.161 C 
HETATM   14  C18 UNL     1      25.143  25.809   3.577  1.00  0.00     0.135 C 
HETATM   15  N4  UNL     1      25.176  25.923   4.949  1.00  0.00    -0.359 N 
ATOM     16  H4  UNL     1      25.004  25.014   5.378  1.00  0.00     0.162 HD
HETATM   17  C19 UNL     1      25.372  26.901   5.952  1.00  0.00     0.175 C 
HETATM   18  C24 UNL     1      25.839  26.221   7.235  1.00  0.00     0.241 C 
HETATM   19  O4  UNL     1      25.696  26.920   8.265  1.00  0.00    -0.271 OA
HETATM   20  N6  UNL     1      26.385  24.929   7.302  1.00  0.00    -0.346 N 
ATOM     21  H6  UNL     1      25.981  24.288   7.986  1.00  0.00     0.163 HD
HETATM   22  C25 UNL     1      27.499  24.413   6.464  1.00  0.00     0.181 C 
HETATM   23  C30 UNL     1      27.435  22.946   6.389  1.00  0.00     0.164 C 
HETATM   24  O5  UNL     1      28.329  22.273   6.869  1.00  0.00    -0.295 OA
ENDROOT
BRANCH   1  25
HETATM   25  C5  UNL     1      26.236  20.892   6.602  1.00  0.00     0.062 C 
BRANCH  25  26
HETATM   26  C4  UNL     1      25.156  19.967   6.298  1.00  0.00    -0.034 A 
HETATM   27  C3  UNL     1      24.992  19.236   5.101  1.00  0.00     0.095 A 
HETATM   28  N1  UNL     1      23.902  18.458   5.195  1.00  0.00    -0.368 N 
HETATM   29  C2  UNL     1      23.341  18.641   6.397  1.00  0.00     0.011 A 
ATOM     30  H1  UNL     1      23.558  17.830   4.469  1.00  0.00     0.165 HD
HETATM   31  C1  UNL     1      22.116  17.966   6.889  1.00  0.00     0.068 C 
HETATM   32  C31 UNL     1      24.110  19.570   7.075  1.00  0.00    -0.032 A 
HETATM   33  C32 UNL     1      23.760  20.046   8.427  1.00  0.00     0.050 C 
ENDBRANCH  25  26
ENDBRANCH   1  25
BRANCH  22  34
HETATM   34  C26 UNL     1      28.733  24.855   7.182  1.00  0.00     0.268 C 
BRANCH  34  35
HETATM   35  N7  UNL     1      29.531  25.903   6.704  1.00  0.00    -0.076 N 
HETATM   36  C27 UNL     1      29.266  26.451   5.421  1.00  0.00     0.271 C 
HETATM   37  C28 UNL     1      30.975  25.624   6.790  1.00  0.00     0.271 C 
HETATM   38  C29 UNL     1      29.392  27.072   7.641  1.00  0.00     0.271 C 
ENDBRANCH  34  35
ENDBRANCH  22  34
BRANCH   6  39
HETATM   39  C9  UNL     1      23.284  21.823   3.057  1.00  0.00     0.038 C 
BRANCH  39  40
HETATM   40  C10 UNL     1      22.833  21.164   1.827  1.00  0.00    -0.020 C 
HETATM   41  C11 UNL     1      23.539  19.779   1.792  1.00  0.00     0.009 C 
HETATM   42  C12 UNL     1      21.350  20.834   1.803  1.00  0.00     0.009 C 
ENDBRANCH  39  40
ENDBRANCH   6  39
BRANCH  17  43
HETATM   43  C20 UNL     1      26.204  28.080   5.647  1.00  0.00     0.035 C 
BRANCH  43  44
HETATM   44  C21 UNL     1      25.583  29.217   4.950  1.00  0.00     0.004 C 
BRANCH  44  45
HETATM   45  C22 UNL     1      25.953  29.410   3.528  1.00  0.00     0.027 C 
BRANCH  45  46
HETATM   46  C23 UNL     1      27.365  28.897   3.251  1.00  0.00     0.229 C 
BRANCH  46  47
HETATM   47  N5  UNL     1      27.442  28.110   2.063  1.00  0.00    -0.079 N 
ATOM     48  H53 UNL     1      27.105  28.633   1.254  1.00  0.00     0.274 HD
ATOM     49  H52 UNL     1      28.412  27.973   1.777  1.00  0.00     0.274 HD
ATOM     50  H51 UNL     1      26.956  27.218   2.150  1.00  0.00     0.274 HD
ENDBRANCH  46  47
ENDBRANCH  45  46
ENDBRANCH  44  45
ENDBRANCH  43  44
ENDBRANCH  17  43
BRANCH  14  51
HETATM   51  O3  UNL     1      26.236  25.439   2.940  1.00  0.00    -0.348 OA
ATOM     52  H3  UNL     1      26.963  25.650   3.512  1.00  0.00     0.219 HD
ENDBRANCH  14  51
TORSDOF 12
ENDMDL
MODEL 5
REMARK VINA RESULT: -6.436515104      2.302      4.705
REMARK  12 active torsions:
REMARK  status: ('A' for Active; 'I' for Inactive)
REMARK    1  A    between atoms: C4_6  and  C5_7 
REMARK    2  A    between atoms: C5_7  and  C6_8 
REMARK    3  A    between atoms: C8_13  and  C9_14 
REMARK    4  A    between atoms: C9_14  and  C10_15 
REMARK    5  A    between atoms: C18_25  and  O3_26 
REMARK    6  A    between atoms: C19_30  and  C20_31 
REMARK    7  A    between atoms: C20_31  and  C21_32 
REMARK    8  A    between atoms: C21_32  and  C22_33 
REMARK    9  A    between atoms: C22_33  and  C23_34 
REMARK   10  A    between atoms: C23_34  and  N5_35 
REMARK   11  A    between atoms: C25_43  and  C26_44 
REMARK   12  A    between atoms: C26_44  and  N7_45 
ROOT
HETATM    1  C6  UNL     1      25.970  23.850   6.362  1.00  0.00     0.153 C 
HETATM    2  C7  UNL     1      27.009  23.292   5.498  1.00  0.00     0.230 C 
HETATM    3  O1  UNL     1      28.063  24.014   5.351  1.00  0.00    -0.273 OA
HETATM    4  N2  UNL     1      27.034  22.076   4.800  1.00  0.00    -0.347 N 
ATOM      5  H2  UNL     1      27.944  21.622   4.736  1.00  0.00     0.163 HD
HETATM    6  C8  UNL     1      25.946  21.384   4.163  1.00  0.00     0.177 C 
HETATM    7  C13 UNL     1      26.062  21.288   2.692  1.00  0.00     0.243 C 
HETATM    8  O2  UNL     1      27.270  21.253   2.239  1.00  0.00    -0.271 OA
HETATM    9  N3  UNL     1      25.071  21.231   1.719  1.00  0.00    -0.338 N 
HETATM   10  C14 UNL     1      24.690  20.278   0.660  1.00  0.00     0.127 C 
HETATM   11  C15 UNL     1      23.210  20.107   1.033  1.00  0.00     0.022 C 
HETATM   12  C16 UNL     1      22.812  21.442   1.687  1.00  0.00     0.035 C 
HETATM   13  C17 UNL     1      24.018  22.253   1.468  1.00  0.00     0.161 C 
HETATM   14  C18 UNL     1      24.247  23.447   2.279  1.00  0.00     0.135 C 
HETATM   15  N4  UNL     1      23.487  24.172   3.169  1.00  0.00    -0.359 N 
ATOM     16  H4  UNL     1      23.673  23.858   4.121  1.00  0.00     0.162 HD
HETATM   17  C19 UNL     1      22.530  25.214   3.182  1.00  0.00     0.175 C 
HETATM   18  C24 UNL     1      22.544  25.895   4.546  1.00  0.00     0.241 C 
HETATM   19  O4  UNL     1      21.518  26.569   4.792  1.00  0.00    -0.271 OA
HETATM   20  N6  UNL     1      23.593  25.801   5.476  1.00  0.00    -0.346 N 
ATOM     21  H6  UNL     1      23.345  25.543   6.432  1.00  0.00     0.163 HD
HETATM   22  C25 UNL     1      25.031  26.044   5.189  1.00  0.00     0.181 C 
HETATM   23  C30 UNL     1      25.866  25.338   6.172  1.00  0.00     0.164 C 
HETATM   24  O5  UNL     1      26.567  25.971   6.941  1.00  0.00    -0.295 OA
ENDROOT
BRANCH   1  25
HETATM   25  C5  UNL     1      26.167  23.644   7.829  1.00  0.00     0.062 C 
BRANCH  25  26
HETATM   26  C4  UNL     1      26.486  22.299   8.278  1.00  0.00    -0.034 A 
HETATM   27  C3  UNL     1      27.751  21.674   8.216  1.00  0.00     0.095 A 
HETATM   28  N1  UNL     1      27.673  20.448   8.757  1.00  0.00    -0.368 N 
HETATM   29  C2  UNL     1      26.417  20.235   9.172  1.00  0.00     0.011 A 
ATOM     30  H1  UNL     1      28.444  19.786   8.839  1.00  0.00     0.165 HD
HETATM   31  C1  UNL     1      25.921  18.999   9.823  1.00  0.00     0.068 C 
HETATM   32  C31 UNL     1      25.687  21.373   8.877  1.00  0.00    -0.032 A 
HETATM   33  C32 UNL     1      24.242  21.476   9.160  1.00  0.00     0.050 C 
ENDBRANCH  25  26
ENDBRANCH   1  25
BRANCH  22  34
HETATM   34  C26 UNL     1      25.187  27.524   5.326  1.00  0.00     0.268 C 
BRANCH  34  35
HETATM   35  N7  UNL     1      25.319  28.359   4.209  1.00  0.00    -0.076 N 
HETATM   36  C27 UNL     1      24.220  29.160   3.803  1.00  0.00     0.271 C 
HETATM   37  C28 UNL     1      25.840  27.664   3.018  1.00  0.00     0.271 C 
HETATM   38  C29 UNL     1      26.417  29.351   4.484  1.00  0.00     0.271 C 
ENDBRANCH  34  35
ENDBRANCH  22  34
BRANCH   6  39
HETATM   39  C9  UNL     1      25.613  20.078   4.808  1.00  0.00     0.038 C 
BRANCH  39  40
HETATM   40  C10 UNL     1      24.211  19.670   4.945  1.00  0.00    -0.020 C 
HETATM   41  C11 UNL     1      24.050  18.376   4.099  1.00  0.00     0.009 C 
HETATM   42  C12 UNL     1      23.818  19.254   6.353  1.00  0.00     0.009 C 
ENDBRANCH  39  40
ENDBRANCH   6  39
BRANCH  17  43
HETATM   43  C20 UNL     1      22.544  26.211   2.095  1.00  0.00     0.035 C 
BRANCH  43  44
HETATM   44  C21 UNL     1      21.289  26.485   1.377  1.00  0.00     0.004 C 
BRANCH  44  45
HETATM   45  C22 UNL     1      20.643  27.793   1.640  1.00  0.00     0.027 C 
BRANCH  45  46
HETATM   46  C23 UNL     1      19.185  27.614   2.062  1.00  0.00     0.229 C 
BRANCH  46  47
HETATM   47  N5  UNL     1      19.050  26.868   3.271  1.00  0.00    -0.079 N 
ATOM     48  H53 UNL     1      18.488  26.029   3.123  1.00  0.00     0.274 HD
ATOM     49  H52 UNL     1      19.934  26.430   3.532  1.00  0.00     0.274 HD
ATOM     50  H51 UNL     1      18.677  27.426   4.039  1.00  0.00     0.274 HD
ENDBRANCH  46  47
ENDBRANCH  45  46
ENDBRANCH  44  45
ENDBRANCH  43  44
ENDBRANCH  17  43
BRANCH  14  51
HETATM   51  O3  UNL     1      25.484  23.831   2.033  1.00  0.00    -0.348 OA
ATOM     52  H3  UNL     1      25.419  24.610   1.494  1.00  0.00     0.219 HD
ENDBRANCH  14  51
TORSDOF 12
ENDMDL
