MODEL 1
REMARK VINA RESULT: -6.834203509      0.000      0.000
REMARK  13 active torsions:
REMARK  status: ('A' for Active; 'I' for Inactive)
REMARK    1  A    between atoms: C3_3  and  C4_4 
REMARK    2  A    between atoms: C4_4  and  C6_6 
REMARK    3  A    between atoms: C8_11  and  C9_12 
REMARK    4  A    between atoms: C9_12  and  C10_13 
REMARK    5  A    between atoms: C13_16  and  O2_17 
REMARK    6  A    between atoms: C14_21  and  C15_22 
REMARK    7  A    between atoms: C15_22  and  C16_23 
REMARK    8  A    between atoms: C20_30  and  C21_31 
REMARK    9  A    between atoms: C21_31  and  C22_32 
REMARK   10  A    between atoms: C26_39  and  C27_40 
REMARK   11  A    between atoms: C27_40  and  C28_41 
REMARK   12  A    between atoms: C28_41  and  C29_42 
REMARK   13  A    between atoms: C29_42  and  N5_43 
ROOT
HETATM    1  C1  UNL     1      18.740 -10.662   4.697  1.00  0.00     0.112 C 
HETATM    2  C2  UNL     1      19.040  -9.594   5.653  1.00  0.00    -0.111 C 
HETATM    3  C3  UNL     1      19.297  -8.712   6.439  1.00  0.00    -0.100 C 
ENDROOT
BRANCH   3   4
HETATM    4  C4  UNL     1      19.647  -7.620   7.392  1.00  0.00     0.093 C 
HETATM    5  C5  UNL     1      21.023  -7.063   6.991  1.00  0.00     0.026 C 
BRANCH   4   6
HETATM    6  C6  UNL     1      18.611  -6.536   7.360  1.00  0.00     0.194 C 
HETATM    7  C7  UNL     1      17.250  -7.128   7.574  1.00  0.00     0.242 C 
HETATM    8  O1  UNL     1      17.233  -7.876   8.635  1.00  0.00    -0.271 OA
HETATM    9  N1  UNL     1      16.094  -6.976   6.830  1.00  0.00    -0.347 N 
HETATM   10  C8  UNL     1      15.636  -7.499   5.595  1.00  0.00     0.159 C 
ATOM     11  H1  UNL     1      15.420  -6.348   7.268  1.00  0.00     0.163 HD
HETATM   12  C13 UNL     1      15.105  -6.607   4.569  1.00  0.00     0.135 C 
HETATM   13  N2  UNL     1      15.479  -5.317   4.218  1.00  0.00    -0.359 N 
HETATM   14  C14 UNL     1      16.817  -4.849   3.752  1.00  0.00     0.175 C 
ATOM     15  H2  UNL     1      14.753  -4.604   4.288  1.00  0.00     0.162 HD
HETATM   16  C19 UNL     1      16.551  -3.443   3.315  1.00  0.00     0.241 C 
HETATM   17  O3  UNL     1      16.089  -3.310   2.119  1.00  0.00    -0.271 OA
HETATM   18  N3  UNL     1      16.730  -2.260   4.025  1.00  0.00    -0.346 N 
HETATM   19  C20 UNL     1      17.862  -1.667   4.664  1.00  0.00     0.177 C 
ATOM     20  H3  UNL     1      15.880  -1.702   4.105  1.00  0.00     0.163 HD
HETATM   21  C25 UNL     1      18.838  -2.589   5.274  1.00  0.00     0.241 C 
HETATM   22  O4  UNL     1      19.746  -3.046   4.529  1.00  0.00    -0.271 OA
HETATM   23  N4  UNL     1      18.820  -2.983   6.622  1.00  0.00    -0.346 N 
HETATM   24  C26 UNL     1      17.694  -3.386   7.427  1.00  0.00     0.176 C 
ATOM     25  H4  UNL     1      19.724  -2.984   7.095  1.00  0.00     0.163 HD
HETATM   26  C31 UNL     1      18.079  -4.325   8.507  1.00  0.00     0.243 C 
HETATM   27  O5  UNL     1      17.683  -4.039   9.692  1.00  0.00    -0.271 OA
HETATM   28  N8  UNL     1      18.833  -5.503   8.388  1.00  0.00    -0.340 N 
HETATM   29  C32 UNL     1      19.895  -5.755   9.343  1.00  0.00     0.153 C 
BRANCH  10  30
HETATM   30  C9  UNL     1      14.729  -8.695   5.811  1.00  0.00     0.037 C 
BRANCH  30  31
HETATM   31  C10 UNL     1      15.311 -10.030   5.657  1.00  0.00    -0.020 C 
HETATM   32  C11 UNL     1      14.336 -10.839   4.765  1.00  0.00     0.009 C 
HETATM   33  C12 UNL     1      15.608 -10.879   6.822  1.00  0.00     0.009 C 
ENDBRANCH  30  31
ENDBRANCH  10  30
BRANCH  12  34
HETATM   34  O2  UNL     1      14.121  -7.112   3.871  1.00  0.00    -0.348 OA
ATOM     35  H2  UNL     1      14.369  -7.842   3.315  1.00  0.00     0.219 HD
ENDBRANCH  12  34
BRANCH  14  36
HETATM   36  C15 UNL     1      17.248  -5.740   2.669  1.00  0.00     0.038 C 
BRANCH  36  37
HETATM   37  C16 UNL     1      16.879  -5.676   1.288  1.00  0.00    -0.020 C 
HETATM   38  C17 UNL     1      17.986  -5.619   0.277  1.00  0.00     0.009 C 
HETATM   39  C18 UNL     1      15.829  -6.639   0.789  1.00  0.00     0.009 C 
ENDBRANCH  36  37
ENDBRANCH  14  36
BRANCH  19  40
HETATM   40  C21 UNL     1      18.644  -0.834   3.629  1.00  0.00     0.038 C 
BRANCH  40  41
HETATM   41  C22 UNL     1      18.920   0.549   4.160  1.00  0.00    -0.020 C 
HETATM   42  C23 UNL     1      18.492   1.586   3.111  1.00  0.00     0.009 C 
HETATM   43  C24 UNL     1      18.012   0.783   5.363  1.00  0.00     0.009 C 
ENDBRANCH  40  41
ENDBRANCH  19  40
BRANCH  24  44
HETATM   44  C27 UNL     1      16.904  -2.217   7.986  1.00  0.00     0.036 C 
BRANCH  44  45
HETATM   45  C28 UNL     1      17.712  -1.019   8.336  1.00  0.00     0.022 C 
BRANCH  45  46
HETATM   46  C29 UNL     1      17.066  -0.425   9.604  1.00  0.00     0.122 C 
BRANCH  46  47
HETATM   47  N5  UNL     1      17.499  -1.161  10.772  1.00  0.00    -0.367 N 
HETATM   48  C30 UNL     1      18.501  -0.786  11.495  1.00  0.00     0.196 C 
HETATM   49  N6  UNL     1      18.849  -1.580  12.624  1.00  0.00    -0.067 NA
HETATM   50  N7  UNL     1      19.283   0.371  11.240  1.00  0.00    -0.067 NA
ATOM     51  H5  UNL     1      16.994  -2.007  11.034  1.00  0.00     0.161 HD
ENDBRANCH  46  47
ENDBRANCH  45  46
ENDBRANCH  44  45
ENDBRANCH  24  44
ENDBRANCH   4   6
ENDBRANCH   3   4
TORSDOF 13
ENDMDL
MODEL 2
REMARK VINA RESULT: -6.770068797      0.954      1.277
REMARK  13 active torsions:
REMARK  status: ('A' for Active; 'I' for Inactive)
REMARK    1  A    between atoms: C3_3  and  C4_4 
REMARK    2  A    between atoms: C4_4  and  C6_6 
REMARK    3  A    between atoms: C8_11  and  C9_12 
REMARK    4  A    between atoms: C9_12  and  C10_13 
REMARK    5  A    between atoms: C13_16  and  O2_17 
REMARK    6  A    between atoms: C14_21  and  C15_22 
REMARK    7  A    between atoms: C15_22  and  C16_23 
REMARK    8  A    between atoms: C20_30  and  C21_31 
REMARK    9  A    between atoms: C21_31  and  C22_32 
REMARK   10  A    between atoms: C26_39  and  C27_40 
REMARK   11  A    between atoms: C27_40  and  C28_41 
REMARK   12  A    between atoms: C28_41  and  C29_42 
REMARK   13  A    between atoms: C29_42  and  N5_43 
ROOT
HETATM    1  C1  UNL     1      18.165 -10.703   3.539  1.00  0.00     0.112 C 
HETATM    2  C2  UNL     1      18.675  -9.790   4.564  1.00  0.00    -0.111 C 
HETATM    3  C3  UNL     1      19.090  -9.038   5.415  1.00  0.00    -0.100 C 
ENDROOT
BRANCH   3   4
HETATM    4  C4  UNL     1      19.575  -8.124   6.489  1.00  0.00     0.093 C 
HETATM    5  C5  UNL     1      20.951  -7.585   6.067  1.00  0.00     0.026 C 
BRANCH   4   6
HETATM    6  C6  UNL     1      18.610  -6.997   6.702  1.00  0.00     0.194 C 
HETATM    7  C7  UNL     1      17.262  -7.544   7.065  1.00  0.00     0.242 C 
HETATM    8  O1  UNL     1      17.353  -8.384   8.049  1.00  0.00    -0.271 OA
HETATM    9  N1  UNL     1      16.021  -7.272   6.514  1.00  0.00    -0.347 N 
HETATM   10  C8  UNL     1      15.362  -7.658   5.321  1.00  0.00     0.159 C 
ATOM     11  H1  UNL     1      15.456  -6.657   7.098  1.00  0.00     0.163 HD
HETATM   12  C13 UNL     1      14.742  -6.653   4.463  1.00  0.00     0.135 C 
HETATM   13  N2  UNL     1      15.136  -5.354   4.171  1.00  0.00    -0.359 N 
HETATM   14  C14 UNL     1      16.419  -4.907   3.553  1.00  0.00     0.175 C 
ATOM     15  H2  UNL     1      14.470  -4.619   4.406  1.00  0.00     0.162 HD
HETATM   16  C19 UNL     1      16.176  -3.457   3.279  1.00  0.00     0.241 C 
HETATM   17  O3  UNL     1      15.555  -3.194   2.180  1.00  0.00    -0.271 OA
HETATM   18  N3  UNL     1      16.522  -2.353   4.052  1.00  0.00    -0.346 N 
HETATM   19  C20 UNL     1      17.767  -1.873   4.565  1.00  0.00     0.177 C 
ATOM     20  H3  UNL     1      15.727  -1.767   4.303  1.00  0.00     0.163 HD
HETATM   21  C25 UNL     1      18.765  -2.890   4.944  1.00  0.00     0.241 C 
HETATM   22  O4  UNL     1      19.528  -3.317   4.037  1.00  0.00    -0.271 OA
HETATM   23  N4  UNL     1      18.917  -3.404   6.242  1.00  0.00    -0.346 N 
HETATM   24  C26 UNL     1      17.896  -3.828   7.168  1.00  0.00     0.176 C 
ATOM     25  H4  UNL     1      19.878  -3.489   6.574  1.00  0.00     0.163 HD
HETATM   26  C31 UNL     1      18.377  -4.878   8.096  1.00  0.00     0.243 C 
HETATM   27  O5  UNL     1      18.172  -4.684   9.347  1.00  0.00    -0.271 OA
HETATM   28  N8  UNL     1      19.037  -6.073   7.769  1.00  0.00    -0.340 N 
HETATM   29  C32 UNL     1      20.208  -6.459   8.532  1.00  0.00     0.153 C 
BRANCH  10  30
HETATM   30  C9  UNL     1      14.428  -8.827   5.568  1.00  0.00     0.037 C 
BRANCH  30  31
HETATM   31  C10 UNL     1      15.002 -10.174   5.560  1.00  0.00    -0.020 C 
HETATM   32  C11 UNL     1      14.072 -11.049   4.683  1.00  0.00     0.009 C 
HETATM   33  C12 UNL     1      15.220 -10.924   6.808  1.00  0.00     0.009 C 
ENDBRANCH  30  31
ENDBRANCH  10  30
BRANCH  12  34
HETATM   34  O2  UNL     1      13.641  -7.048   3.879  1.00  0.00    -0.348 OA
ATOM     35  H2  UNL     1      13.346  -6.482   3.175  1.00  0.00     0.219 HD
ENDBRANCH  12  34
BRANCH  14  36
HETATM   36  C15 UNL     1      16.638  -5.714   2.347  1.00  0.00     0.038 C 
BRANCH  36  37
HETATM   37  C16 UNL     1      17.878  -5.963   1.677  1.00  0.00    -0.020 C 
HETATM   38  C17 UNL     1      18.201  -7.384   1.322  1.00  0.00     0.009 C 
HETATM   39  C18 UNL     1      18.236  -5.086   0.502  1.00  0.00     0.009 C 
ENDBRANCH  36  37
ENDBRANCH  14  36
BRANCH  19  40
HETATM   40  C21 UNL     1      18.439  -0.984   3.500  1.00  0.00     0.038 C 
BRANCH  40  41
HETATM   41  C22 UNL     1      18.857   0.335   4.095  1.00  0.00    -0.020 C 
HETATM   42  C23 UNL     1      18.497   1.465   3.119  1.00  0.00     0.009 C 
HETATM   43  C24 UNL     1      18.011   0.581   5.340  1.00  0.00     0.009 C 
ENDBRANCH  40  41
ENDBRANCH  19  40
BRANCH  24  44
HETATM   44  C27 UNL     1      17.264  -2.680   7.933  1.00  0.00     0.036 C 
BRANCH  44  45
HETATM   45  C28 UNL     1      18.125  -1.480   8.097  1.00  0.00     0.022 C 
BRANCH  45  46
HETATM   46  C29 UNL     1      18.298  -1.283   9.617  1.00  0.00     0.122 C 
BRANCH  46  47
HETATM   47  N5  UNL     1      18.218   0.122   9.946  1.00  0.00    -0.367 N 
HETATM   48  C30 UNL     1      17.116   0.686  10.314  1.00  0.00     0.196 C 
HETATM   49  N6  UNL     1      17.141   2.077  10.615  1.00  0.00    -0.067 NA
HETATM   50  N7  UNL     1      15.874   0.010  10.439  1.00  0.00    -0.067 NA
ATOM     51  H5  UNL     1      19.063   0.690   9.886  1.00  0.00     0.161 HD
ENDBRANCH  46  47
ENDBRANCH  45  46
ENDBRANCH  44  45
ENDBRANCH  24  44
ENDBRANCH   4   6
ENDBRANCH   3   4
TORSDOF 13
ENDMDL
MODEL 3
REMARK VINA RESULT: -6.473372475      2.673      6.206
REMARK  13 active torsions:
REMARK  status: ('A' for Active; 'I' for Inactive)
REMARK    1  A    between atoms: C3_3  and  C4_4 
REMARK    2  A    between atoms: C4_4  and  C6_6 
REMARK    3  A    between atoms: C8_11  and  C9_12 
REMARK    4  A    between atoms: C9_12  and  C10_13 
REMARK    5  A    between atoms: C13_16  and  O2_17 
REMARK    6  A    between atoms: C14_21  and  C15_22 
REMARK    7  A    between atoms: C15_22  and  C16_23 
REMARK    8  A    between atoms: C20_30  and  C21_31 
REMARK    9  A    between atoms: C21_31  and  C22_32 
REMARK   10  A    between atoms: C26_39  and  C27_40 
REMARK   11  A    between atoms: C27_40  and  C28_41 
REMARK   12  A    between atoms: C28_41  and  C29_42 
REMARK   13  A    between atoms: C29_42  and  N5_43 
ROOT
HETATM    1  C1  UNL     1      16.081 -12.680   3.127  1.00  0.00     0.112 C 
HETATM    2  C2  UNL     1      15.601 -11.301   3.234  1.00  0.00    -0.111 C 
HETATM    3  C3  UNL     1      15.198 -10.165   3.327  1.00  0.00    -0.100 C 
ENDROOT
BRANCH   3   4
HETATM    4  C4  UNL     1      14.679  -8.774   3.471  1.00  0.00     0.093 C 
HETATM    5  C5  UNL     1      13.877  -8.701   4.781  1.00  0.00     0.026 C 
BRANCH   4   6
HETATM    6  C6  UNL     1      15.806  -7.787   3.488  1.00  0.00     0.194 C 
HETATM    7  C7  UNL     1      16.710  -8.027   2.316  1.00  0.00     0.242 C 
HETATM    8  O1  UNL     1      16.032  -8.070   1.211  1.00  0.00    -0.271 OA
HETATM    9  N1  UNL     1      18.083  -8.191   2.279  1.00  0.00    -0.347 N 
HETATM   10  C8  UNL     1      18.963  -9.253   2.605  1.00  0.00     0.159 C 
ATOM     11  H1  UNL     1      18.572  -7.362   1.941  1.00  0.00     0.163 HD
HETATM   12  C13 UNL     1      20.117  -9.017   3.467  1.00  0.00     0.135 C 
HETATM   13  N2  UNL     1      20.265  -8.172   4.558  1.00  0.00    -0.359 N 
HETATM   14  C14 UNL     1      19.477  -8.170   5.826  1.00  0.00     0.175 C 
ATOM     15  H2  UNL     1      20.999  -7.468   4.484  1.00  0.00     0.162 HD
HETATM   16  C19 UNL     1      20.232  -7.212   6.692  1.00  0.00     0.241 C 
HETATM   17  O3  UNL     1      21.242  -7.707   7.321  1.00  0.00    -0.271 OA
HETATM   18  N3  UNL     1      19.995  -5.857   6.907  1.00  0.00    -0.346 N 
HETATM   19  C20 UNL     1      18.860  -5.128   7.380  1.00  0.00     0.177 C 
ATOM     20  H3  UNL     1      20.793  -5.265   6.681  1.00  0.00     0.163 HD
HETATM   21  C25 UNL     1      17.533  -5.661   7.021  1.00  0.00     0.241 C 
HETATM   22  O4  UNL     1      17.038  -6.538   7.779  1.00  0.00    -0.271 OA
HETATM   23  N4  UNL     1      16.792  -5.252   5.900  1.00  0.00    -0.346 N 
HETATM   24  C26 UNL     1      17.248  -5.037   4.550  1.00  0.00     0.176 C 
ATOM     25  H4  UNL     1      15.799  -5.085   6.064  1.00  0.00     0.163 HD
HETATM   26  C31 UNL     1      16.180  -5.268   3.550  1.00  0.00     0.243 C 
HETATM   27  O5  UNL     1      15.989  -4.344   2.681  1.00  0.00    -0.271 OA
HETATM   28  N8  UNL     1      15.342  -6.388   3.436  1.00  0.00    -0.340 N 
HETATM   29  C32 UNL     1      13.921  -6.183   3.230  1.00  0.00     0.153 C 
BRANCH  10  30
HETATM   30  C9  UNL     1      19.349 -10.041   1.367  1.00  0.00     0.037 C 
BRANCH  30  31
HETATM   31  C10 UNL     1      18.436 -11.094   0.916  1.00  0.00    -0.020 C 
HETATM   32  C11 UNL     1      19.317 -12.309   0.530  1.00  0.00     0.009 C 
HETATM   33  C12 UNL     1      17.511 -10.879  -0.209  1.00  0.00     0.009 C 
ENDBRANCH  30  31
ENDBRANCH  10  30
BRANCH  12  34
HETATM   34  O2  UNL     1      21.174  -9.720   3.156  1.00  0.00    -0.348 OA
ATOM     35  H2  UNL     1      20.990 -10.505   2.654  1.00  0.00     0.219 HD
ENDBRANCH  12  34
BRANCH  14  36
HETATM   36  C15 UNL     1      19.453  -9.545   6.337  1.00  0.00     0.038 C 
BRANCH  36  37
HETATM   37  C16 UNL     1      18.305 -10.360   6.592  1.00  0.00    -0.020 C 
HETATM   38  C17 UNL     1      16.960  -9.699   6.538  1.00  0.00     0.009 C 
HETATM   39  C18 UNL     1      18.208 -11.690   5.884  1.00  0.00     0.009 C 
ENDBRANCH  36  37
ENDBRANCH  14  36
BRANCH  19  40
HETATM   40  C21 UNL     1      18.904  -5.076   8.920  1.00  0.00     0.038 C 
BRANCH  40  41
HETATM   41  C22 UNL     1      18.806  -3.654   9.406  1.00  0.00    -0.020 C 
HETATM   42  C23 UNL     1      17.331  -3.223   9.411  1.00  0.00     0.009 C 
HETATM   43  C24 UNL     1      19.249  -3.621  10.865  1.00  0.00     0.009 C 
ENDBRANCH  40  41
ENDBRANCH  19  40
BRANCH  24  44
HETATM   44  C27 UNL     1      17.896  -3.680   4.343  1.00  0.00     0.036 C 
BRANCH  44  45
HETATM   45  C28 UNL     1      17.335  -2.579   5.169  1.00  0.00     0.022 C 
BRANCH  45  46
HETATM   46  C29 UNL     1      18.546  -1.841   5.776  1.00  0.00     0.122 C 
BRANCH  46  47
HETATM   47  N5  UNL     1      18.407  -0.416   5.577  1.00  0.00    -0.367 N 
HETATM   48  C30 UNL     1      18.764   0.170   4.483  1.00  0.00     0.196 C 
HETATM   49  N6  UNL     1      18.587   1.579   4.387  1.00  0.00    -0.067 NA
HETATM   50  N7  UNL     1      19.323  -0.499   3.363  1.00  0.00    -0.067 NA
ATOM     51  H5  UNL     1      18.012   0.148   6.329  1.00  0.00     0.161 HD
ENDBRANCH  46  47
ENDBRANCH  45  46
ENDBRANCH  44  45
ENDBRANCH  24  44
ENDBRANCH   4   6
ENDBRANCH   3   4
TORSDOF 13
ENDMDL
MODEL 4
REMARK VINA RESULT: -6.401902054      2.603      5.908
REMARK  13 active torsions:
REMARK  status: ('A' for Active; 'I' for Inactive)
REMARK    1  A    between atoms: C3_3  and  C4_4 
REMARK    2  A    between atoms: C4_4  and  C6_6 
REMARK    3  A    between atoms: C8_11  and  C9_12 
REMARK    4  A    between atoms: C9_12  and  C10_13 
REMARK    5  A    between atoms: C13_16  and  O2_17 
REMARK    6  A    between atoms: C14_21  and  C15_22 
REMARK    7  A    between atoms: C15_22  and  C16_23 
REMARK    8  A    between atoms: C20_30  and  C21_31 
REMARK    9  A    between atoms: C21_31  and  C22_32 
REMARK   10  A    between atoms: C26_39  and  C27_40 
REMARK   11  A    between atoms: C27_40  and  C28_41 
REMARK   12  A    between atoms: C28_41  and  C29_42 
REMARK   13  A    between atoms: C29_42  and  N5_43 
ROOT
HETATM    1  C1  UNL     1      15.619 -11.837   3.031  1.00  0.00     0.112 C 
HETATM    2  C2  UNL     1      15.325 -10.405   2.945  1.00  0.00    -0.111 C 
HETATM    3  C3  UNL     1      15.087  -9.222   2.881  1.00  0.00    -0.100 C 
ENDROOT
BRANCH   3   4
HETATM    4  C4  UNL     1      14.818  -7.755   2.830  1.00  0.00     0.093 C 
HETATM    5  C5  UNL     1      13.762  -7.430   3.900  1.00  0.00     0.026 C 
BRANCH   4   6
HETATM    6  C6  UNL     1      16.075  -6.977   3.077  1.00  0.00     0.194 C 
HETATM    7  C7  UNL     1      17.114  -7.355   2.065  1.00  0.00     0.242 C 
HETATM    8  O1  UNL     1      16.639  -7.269   0.860  1.00  0.00    -0.271 OA
HETATM    9  N1  UNL     1      18.426  -7.754   2.252  1.00  0.00    -0.347 N 
HETATM   10  C8  UNL     1      19.045  -8.955   2.677  1.00  0.00     0.159 C 
ATOM     11  H1  UNL     1      19.097  -7.017   2.035  1.00  0.00     0.163 HD
HETATM   12  C13 UNL     1      20.056  -8.931   3.730  1.00  0.00     0.135 C 
HETATM   13  N2  UNL     1      20.154  -8.136   4.864  1.00  0.00    -0.359 N 
HETATM   14  C14 UNL     1      19.170  -8.014   5.980  1.00  0.00     0.175 C 
ATOM     15  H2  UNL     1      20.997  -7.569   4.943  1.00  0.00     0.162 HD
HETATM   16  C19 UNL     1      19.914  -7.209   6.999  1.00  0.00     0.241 C 
HETATM   17  O3  UNL     1      20.703  -7.878   7.768  1.00  0.00    -0.271 OA
HETATM   18  N3  UNL     1      19.874  -5.837   7.227  1.00  0.00    -0.346 N 
HETATM   19  C20 UNL     1      18.813  -4.929   7.532  1.00  0.00     0.177 C 
ATOM     20  H3  UNL     1      20.788  -5.388   7.163  1.00  0.00     0.163 HD
HETATM   21  C25 UNL     1      17.498  -5.221   6.934  1.00  0.00     0.241 C 
HETATM   22  O4  UNL     1      16.740  -6.008   7.562  1.00  0.00    -0.271 OA
HETATM   23  N4  UNL     1      17.040  -4.678   5.722  1.00  0.00    -0.346 N 
HETATM   24  C26 UNL     1      17.752  -4.529   4.477  1.00  0.00     0.176 C 
ATOM     25  H4  UNL     1      16.076  -4.345   5.723  1.00  0.00     0.163 HD
HETATM   26  C31 UNL     1      16.849  -4.561   3.303  1.00  0.00     0.243 C 
HETATM   27  O5  UNL     1      16.969  -3.608   2.453  1.00  0.00    -0.271 OA
HETATM   28  N8  UNL     1      15.867  -5.519   3.005  1.00  0.00    -0.340 N 
HETATM   29  C32 UNL     1      14.558  -5.070   2.571  1.00  0.00     0.153 C 
BRANCH  10  30
HETATM   30  C9  UNL     1      19.501  -9.783   1.491  1.00  0.00     0.037 C 
BRANCH  30  31
HETATM   31  C10 UNL     1      18.591 -10.814   0.988  1.00  0.00    -0.020 C 
HETATM   32  C11 UNL     1      19.478 -11.958   0.436  1.00  0.00     0.009 C 
HETATM   33  C12 UNL     1      17.598 -10.519  -0.058  1.00  0.00     0.009 C 
ENDBRANCH  30  31
ENDBRANCH  10  30
BRANCH  12  34
HETATM   34  O2  UNL     1      21.018  -9.802   3.573  1.00  0.00    -0.348 OA
ATOM     35  H2  UNL     1      21.701  -9.755   4.233  1.00  0.00     0.219 HD
ENDBRANCH  12  34
BRANCH  14  36
HETATM   36  C15 UNL     1      18.828  -9.370   6.423  1.00  0.00     0.038 C 
BRANCH  36  37
HETATM   37  C16 UNL     1      17.529  -9.885   6.728  1.00  0.00    -0.020 C 
HETATM   38  C17 UNL     1      16.343  -9.080   6.287  1.00  0.00     0.009 C 
HETATM   39  C18 UNL     1      17.254 -11.338   6.426  1.00  0.00     0.009 C 
ENDBRANCH  36  37
ENDBRANCH  14  36
BRANCH  19  40
HETATM   40  C21 UNL     1      18.599  -4.903   9.058  1.00  0.00     0.038 C 
BRANCH  40  41
HETATM   41  C22 UNL     1      18.684  -3.493   9.582  1.00  0.00    -0.020 C 
HETATM   42  C23 UNL     1      17.271  -2.894   9.648  1.00  0.00     0.009 C 
HETATM   43  C24 UNL     1      19.173  -3.554  11.025  1.00  0.00     0.009 C 
ENDBRANCH  40  41
ENDBRANCH  19  40
BRANCH  24  44
HETATM   44  C27 UNL     1      18.645  -3.301   4.437  1.00  0.00     0.036 C 
BRANCH  44  45
HETATM   45  C28 UNL     1      18.031  -2.057   4.970  1.00  0.00     0.022 C 
BRANCH  45  46
HETATM   46  C29 UNL     1      18.814  -1.710   6.252  1.00  0.00     0.122 C 
BRANCH  46  47
HETATM   47  N5  UNL     1      18.408  -0.412   6.744  1.00  0.00    -0.367 N 
HETATM   48  C30 UNL     1      18.923   0.121   7.801  1.00  0.00     0.196 C 
HETATM   49  N6  UNL     1      18.453   1.403   8.204  1.00  0.00    -0.067 NA
HETATM   50  N7  UNL     1      19.932  -0.487   8.594  1.00  0.00    -0.067 NA
ATOM     51  H5  UNL     1      17.687   0.101   6.237  1.00  0.00     0.161 HD
ENDBRANCH  46  47
ENDBRANCH  45  46
ENDBRANCH  44  45
ENDBRANCH  24  44
ENDBRANCH   4   6
ENDBRANCH   3   4
TORSDOF 13
ENDMDL
MODEL 5
REMARK VINA RESULT: -6.366684493      2.597      6.087
REMARK  13 active torsions:
REMARK  status: ('A' for Active; 'I' for Inactive)
REMARK    1  A    between atoms: C3_3  and  C4_4 
REMARK    2  A    between atoms: C4_4  and  C6_6 
REMARK    3  A    between atoms: C8_11  and  C9_12 
REMARK    4  A    between atoms: C9_12  and  C10_13 
REMARK    5  A    between atoms: C13_16  and  O2_17 
REMARK    6  A    between atoms: C14_21  and  C15_22 
REMARK    7  A    between atoms: C15_22  and  C16_23 
REMARK    8  A    between atoms: C20_30  and  C21_31 
REMARK    9  A    between atoms: C21_31  and  C22_32 
REMARK   10  A    between atoms: C26_39  and  C27_40 
REMARK   11  A    between atoms: C27_40  and  C28_41 
REMARK   12  A    between atoms: C28_41  and  C29_42 
REMARK   13  A    between atoms: C29_42  and  N5_43 
ROOT
HETATM    1  C1  UNL     1      15.647 -12.748   4.494  1.00  0.00     0.112 C 
HETATM    2  C2  UNL     1      15.193 -11.376   4.263  1.00  0.00    -0.111 C 
HETATM    3  C3  UNL     1      14.817 -10.245   4.063  1.00  0.00    -0.100 C 
ENDROOT
BRANCH   3   4
HETATM    4  C4  UNL     1      14.342  -8.859   3.781  1.00  0.00     0.093 C 
HETATM    5  C5  UNL     1      13.552  -8.370   5.006  1.00  0.00     0.026 C 
BRANCH   4   6
HETATM    6  C6  UNL     1      15.501  -7.949   3.504  1.00  0.00     0.194 C 
HETATM    7  C7  UNL     1      16.350  -8.525   2.411  1.00  0.00     0.242 C 
HETATM    8  O1  UNL     1      15.628  -8.829   1.376  1.00  0.00    -0.271 OA
HETATM    9  N1  UNL     1      17.715  -8.749   2.378  1.00  0.00    -0.347 N 
HETATM   10  C8  UNL     1      18.572  -9.724   2.947  1.00  0.00     0.159 C 
ATOM     11  H1  UNL     1      18.216  -8.059   1.819  1.00  0.00     0.163 HD
HETATM   12  C13 UNL     1      19.766  -9.317   3.682  1.00  0.00     0.135 C 
HETATM   13  N2  UNL     1      19.983  -8.221   4.507  1.00  0.00    -0.359 N 
HETATM   14  C14 UNL     1      19.245  -7.855   5.751  1.00  0.00     0.175 C 
ATOM     15  H2  UNL     1      20.736  -7.592   4.229  1.00  0.00     0.162 HD
HETATM   16  C19 UNL     1      20.063  -6.734   6.311  1.00  0.00     0.241 C 
HETATM   17  O3  UNL     1      21.081  -7.087   7.019  1.00  0.00    -0.271 OA
HETATM   18  N3  UNL     1      19.878  -5.362   6.168  1.00  0.00    -0.346 N 
HETATM   19  C20 UNL     1      18.787  -4.489   6.465  1.00  0.00     0.177 C 
ATOM     20  H3  UNL     1      20.686  -4.883   5.771  1.00  0.00     0.163 HD
HETATM   21  C25 UNL     1      17.430  -5.042   6.299  1.00  0.00     0.241 C 
HETATM   22  O4  UNL     1      16.938  -5.668   7.275  1.00  0.00    -0.271 OA
HETATM   23  N4  UNL     1      16.659  -4.912   5.132  1.00  0.00    -0.346 N 
HETATM   24  C26 UNL     1      17.069  -5.078   3.759  1.00  0.00     0.176 C 
ATOM     25  H4  UNL     1      15.679  -4.668   5.274  1.00  0.00     0.163 HD
HETATM   26  C31 UNL     1      15.956  -5.520   2.887  1.00  0.00     0.243 C 
HETATM   27  O5  UNL     1      15.761  -4.849   1.812  1.00  0.00    -0.271 OA
HETATM   28  N8  UNL     1      15.079  -6.595   3.098  1.00  0.00    -0.340 N 
HETATM   29  C32 UNL     1      13.659  -6.394   2.886  1.00  0.00     0.153 C 
BRANCH  10  30
HETATM   30  C9  UNL     1      18.884 -10.823   1.951  1.00  0.00     0.037 C 
BRANCH  30  31
HETATM   31  C10 UNL     1      17.987 -11.980   1.906  1.00  0.00    -0.020 C 
HETATM   32  C11 UNL     1      18.887 -13.237   1.802  1.00  0.00     0.009 C 
HETATM   33  C12 UNL     1      16.961 -12.117   0.859  1.00  0.00     0.009 C 
ENDBRANCH  30  31
ENDBRANCH  10  30
BRANCH  12  34
HETATM   34  O2  UNL     1      20.788 -10.119   3.538  1.00  0.00    -0.348 OA
ATOM     35  H2  UNL     1      21.401  -9.854   2.863  1.00  0.00     0.219 HD
ENDBRANCH  12  34
BRANCH  14  36
HETATM   36  C15 UNL     1      19.197  -9.045   6.608  1.00  0.00     0.038 C 
BRANCH  36  37
HETATM   37  C16 UNL     1      18.037  -9.680   7.154  1.00  0.00    -0.020 C 
HETATM   38  C17 UNL     1      16.711  -9.018   6.922  1.00  0.00     0.009 C 
HETATM   39  C18 UNL     1      17.871 -11.164   6.935  1.00  0.00     0.009 C 
ENDBRANCH  36  37
ENDBRANCH  14  36
BRANCH  19  40
HETATM   40  C21 UNL     1      18.891  -4.036   7.935  1.00  0.00     0.038 C 
BRANCH  40  41
HETATM   41  C22 UNL     1      18.153  -2.740   8.145  1.00  0.00    -0.020 C 
HETATM   42  C23 UNL     1      17.418  -2.791   9.494  1.00  0.00     0.009 C 
HETATM   43  C24 UNL     1      19.184  -1.625   8.281  1.00  0.00     0.009 C 
ENDBRANCH  40  41
ENDBRANCH  19  40
BRANCH  24  44
HETATM   44  C27 UNL     1      17.752  -3.851   3.183  1.00  0.00     0.036 C 
BRANCH  44  45
HETATM   45  C28 UNL     1      17.343  -2.557   3.790  1.00  0.00     0.022 C 
BRANCH  45  46
HETATM   46  C29 UNL     1      18.649  -1.845   4.197  1.00  0.00     0.122 C 
BRANCH  46  47
HETATM   47  N5  UNL     1      18.746  -0.567   3.527  1.00  0.00    -0.367 N 
HETATM   48  C30 UNL     1      18.625   0.555   4.153  1.00  0.00     0.196 C 
HETATM   49  N6  UNL     1      18.735   1.759   3.402  1.00  0.00    -0.067 NA
HETATM   50  N7  UNL     1      18.390   0.671   5.549  1.00  0.00    -0.067 NA
ATOM     51  H5  UNL     1      18.916  -0.552   2.521  1.00  0.00     0.161 HD
ENDBRANCH  46  47
ENDBRANCH  45  46
ENDBRANCH  44  45
ENDBRANCH  24  44
ENDBRANCH   4   6
ENDBRANCH   3   4
TORSDOF 13
ENDMDL
