MODEL 1
REMARK VINA RESULT: -6.981033874      0.000      0.000
REMARK  17 active torsions:
REMARK  status: ('A' for Active; 'I' for Inactive)
REMARK    1  A    between atoms: S1_2  and  C2_3 
REMARK    2  A    between atoms: C2_3  and  C3_4 
REMARK    3  A    between atoms: C3_4  and  C4_5 
REMARK    4  A    between atoms: C4_5  and  C5_6 
REMARK    5  A    between atoms: C5_6  and  C6_7 
REMARK    6  A    between atoms: C6_7  and  C7_8 
REMARK    7  A    between atoms: C7_8  and  C8_9 
REMARK    8  A    between atoms: C9_12  and  O1_13 
REMARK    9  A    between atoms: N2_15  and  C10_16 
REMARK   10  A    between atoms: C10_16  and  C11_17 
REMARK   11  A    between atoms: C12_20  and  O4_21 
REMARK   12  A    between atoms: C13_23  and  C14_24 
REMARK   13  A    between atoms: C14_24  and  C15_25 
REMARK   14  A    between atoms: C15_25  and  C16_26 
REMARK   15  A    between atoms: C16_26  and  N3_27 
REMARK   16  A    between atoms: C19_36  and  C20_37 
REMARK   17  A    between atoms: C20_37  and  C21_38 
ROOT
HETATM    1  C8  UNL     1       3.867  10.093  43.104  1.00  0.00     0.177 C 
HETATM    2  N1  UNL     1       4.967  10.914  42.586  1.00  0.00    -0.343 N 
ATOM      3  H1  UNL     1       5.695  11.114  43.271  1.00  0.00     0.164 HD
HETATM    4  C9  UNL     1       5.204  11.479  41.318  1.00  0.00     0.222 C 
HETATM    5  N2  UNL     1       4.721  12.535  40.494  1.00  0.00    -0.285 N 
HETATM    6  C12 UNL     1       3.447  13.101  40.283  1.00  0.00     0.144 C 
HETATM    7  C13 UNL     1       2.149  12.673  39.733  1.00  0.00     0.159 C 
HETATM    8  N6  UNL     1       0.967  13.059  40.457  1.00  0.00    -0.347 N 
ATOM      9  H6  UNL     1       0.847  14.070  40.519  1.00  0.00     0.163 HD
HETATM   10  C18 UNL     1      -0.049  12.345  41.093  1.00  0.00     0.241 C 
HETATM   11  O5  UNL     1      -1.227  12.349  40.680  1.00  0.00    -0.271 OA
HETATM   12  C19 UNL     1       0.160  11.481  42.364  1.00  0.00     0.177 C 
HETATM   13  N7  UNL     1       1.562  11.281  42.460  1.00  0.00    -0.346 N 
ATOM     14  H7  UNL     1       1.957  12.190  42.703  1.00  0.00     0.163 HD
HETATM   15  C24 UNL     1       2.601  10.441  42.376  1.00  0.00     0.241 C 
HETATM   16  O6  UNL     1       2.653   9.610  41.387  1.00  0.00    -0.271 OA
ENDROOT
BRANCH   1  17
HETATM   17  C7  UNL     1       4.094   8.613  42.959  1.00  0.00     0.035 C 
BRANCH  17  18
HETATM   18  C6  UNL     1       3.768   7.684  44.030  1.00  0.00     0.002 C 
BRANCH  18  19
HETATM   19  C5  UNL     1       3.661   8.156  45.427  1.00  0.00     0.000 C 
BRANCH  19  20
HETATM   20  C4  UNL     1       2.184   8.339  45.824  1.00  0.00     0.001 C 
BRANCH  20  21
HETATM   21  C3  UNL     1       1.407   7.201  45.257  1.00  0.00     0.010 C 
BRANCH  21  22
HETATM   22  C2  UNL     1       0.207   6.775  46.034  1.00  0.00     0.073 C 
BRANCH  22  23
HETATM   23  S1  UNL     1      -0.875   5.680  45.066  1.00  0.00    -0.173 SA
HETATM   24  C1  UNL     1      -1.869   6.596  43.876  1.00  0.00     0.089 C 
ENDBRANCH  22  23
ENDBRANCH  21  22
ENDBRANCH  20  21
ENDBRANCH  19  20
ENDBRANCH  18  19
ENDBRANCH  17  18
ENDBRANCH   1  17
BRANCH   4  25
HETATM   25  O1  UNL     1       6.171  10.842  40.702  1.00  0.00    -0.332 OA
ATOM     26  H1  UNL     1       6.793  11.456  40.331  1.00  0.00     0.220 HD
ENDBRANCH   4  25
BRANCH   5  27
HETATM   27  C10 UNL     1       5.751  13.248  39.644  1.00  0.00     0.247 C 
BRANCH  27  28
HETATM   28  C11 UNL     1       5.922  12.692  38.340  1.00  0.00     0.192 C 
HETATM   29  O2  UNL     1       5.779  11.487  38.023  1.00  0.00    -0.647 OA
HETATM   30  O3  UNL     1       6.287  13.540  37.276  1.00  0.00    -0.647 OA
ENDBRANCH  27  28
ENDBRANCH   5  27
BRANCH  12  31
HETATM   31  C20 UNL     1      -0.842  10.429  42.428  1.00  0.00     0.038 C 
BRANCH  31  32
HETATM   32  C21 UNL     1      -1.764  10.300  43.560  1.00  0.00    -0.020 C 
HETATM   33  C22 UNL     1      -0.878  10.191  44.833  1.00  0.00     0.009 C 
HETATM   34  C23 UNL     1      -2.736  11.374  43.849  1.00  0.00     0.009 C 
ENDBRANCH  31  32
ENDBRANCH  12  31
BRANCH   6  35
HETATM   35  O4  UNL     1       3.359  14.348  40.668  1.00  0.00    -0.348 OA
ATOM     36  H4  UNL     1       2.615  14.518  41.233  1.00  0.00     0.219 HD
ENDBRANCH   6  35
BRANCH   7  37
HETATM   37  C14 UNL     1       1.925  13.229  38.316  1.00  0.00     0.035 C 
BRANCH  37  38
HETATM   38  C15 UNL     1       2.545  12.447  37.231  1.00  0.00     0.022 C 
BRANCH  38  39
HETATM   39  C16 UNL     1       2.521  13.362  35.992  1.00  0.00     0.122 C 
BRANCH  39  40
HETATM   40  N3  UNL     1       3.733  14.104  35.914  1.00  0.00    -0.367 N 
HETATM   41  C17 UNL     1       3.824  15.109  35.120  1.00  0.00     0.196 C 
HETATM   42  N4  UNL     1       2.706  15.462  34.330  1.00  0.00    -0.067 NA
HETATM   43  N5  UNL     1       5.053  15.810  35.085  1.00  0.00    -0.067 NA
ATOM     44  H3  UNL     1       4.532  13.837  36.490  1.00  0.00     0.161 HD
ENDBRANCH  39  40
ENDBRANCH  38  39
ENDBRANCH  37  38
ENDBRANCH   7  37
TORSDOF 17
ENDMDL
MODEL 2
REMARK VINA RESULT: -6.696744589      4.967      8.388
REMARK  17 active torsions:
REMARK  status: ('A' for Active; 'I' for Inactive)
REMARK    1  A    between atoms: S1_2  and  C2_3 
REMARK    2  A    between atoms: C2_3  and  C3_4 
REMARK    3  A    between atoms: C3_4  and  C4_5 
REMARK    4  A    between atoms: C4_5  and  C5_6 
REMARK    5  A    between atoms: C5_6  and  C6_7 
REMARK    6  A    between atoms: C6_7  and  C7_8 
REMARK    7  A    between atoms: C7_8  and  C8_9 
REMARK    8  A    between atoms: C9_12  and  O1_13 
REMARK    9  A    between atoms: N2_15  and  C10_16 
REMARK   10  A    between atoms: C10_16  and  C11_17 
REMARK   11  A    between atoms: C12_20  and  O4_21 
REMARK   12  A    between atoms: C13_23  and  C14_24 
REMARK   13  A    between atoms: C14_24  and  C15_25 
REMARK   14  A    between atoms: C15_25  and  C16_26 
REMARK   15  A    between atoms: C16_26  and  N3_27 
REMARK   16  A    between atoms: C19_36  and  C20_37 
REMARK   17  A    between atoms: C20_37  and  C21_38 
ROOT
HETATM    1  C8  UNL     1       8.287  13.585  37.232  1.00  0.00     0.177 C 
HETATM    2  N1  UNL     1       9.593  13.622  36.564  1.00  0.00    -0.343 N 
ATOM      3  H1  UNL     1      10.360  13.918  37.168  1.00  0.00     0.164 HD
HETATM    4  C9  UNL     1       9.984  13.325  35.245  1.00  0.00     0.222 C 
HETATM    5  N2  UNL     1       9.883  13.874  33.935  1.00  0.00    -0.285 N 
HETATM    6  C12 UNL     1       8.883  14.602  33.258  1.00  0.00     0.144 C 
HETATM    7  C13 UNL     1       7.506  14.373  32.789  1.00  0.00     0.159 C 
HETATM    8  N6  UNL     1       6.551  15.426  33.012  1.00  0.00    -0.347 N 
ATOM      9  H6  UNL     1       6.793  16.295  32.537  1.00  0.00     0.163 HD
HETATM   10  C18 UNL     1       5.363  15.510  33.739  1.00  0.00     0.241 C 
HETATM   11  O5  UNL     1       4.252  15.658  33.190  1.00  0.00    -0.271 OA
HETATM   12  C19 UNL     1       5.285  15.434  35.287  1.00  0.00     0.177 C 
HETATM   13  N7  UNL     1       6.530  14.895  35.703  1.00  0.00    -0.346 N 
ATOM     14  H7  UNL     1       7.223  15.620  35.520  1.00  0.00     0.163 HD
HETATM   15  C24 UNL     1       7.207  13.866  36.228  1.00  0.00     0.241 C 
HETATM   16  O6  UNL     1       6.943  12.669  35.814  1.00  0.00    -0.271 OA
ENDROOT
BRANCH   1  17
HETATM   17  C7  UNL     1       7.979  12.268  37.889  1.00  0.00     0.035 C 
BRANCH  17  18
HETATM   18  C6  UNL     1       7.147  12.187  39.082  1.00  0.00     0.002 C 
BRANCH  18  19
HETATM   19  C5  UNL     1       5.782  11.625  39.008  1.00  0.00     0.000 C 
BRANCH  19  20
HETATM   20  C4  UNL     1       5.021  11.881  40.323  1.00  0.00     0.001 C 
BRANCH  20  21
HETATM   21  C3  UNL     1       3.910  10.892  40.415  1.00  0.00     0.010 C 
BRANCH  21  22
HETATM   22  C2  UNL     1       3.218  10.563  39.136  1.00  0.00     0.073 C 
BRANCH  22  23
HETATM   23  S1  UNL     1       1.452  10.994  39.189  1.00  0.00    -0.173 SA
HETATM   24  C1  UNL     1       1.067  12.085  40.570  1.00  0.00     0.089 C 
ENDBRANCH  22  23
ENDBRANCH  21  22
ENDBRANCH  20  21
ENDBRANCH  19  20
ENDBRANCH  18  19
ENDBRANCH  17  18
ENDBRANCH   1  17
BRANCH   4  25
HETATM   25  O1  UNL     1      10.654  12.198  35.204  1.00  0.00    -0.332 OA
ATOM     26  H1  UNL     1      11.356  12.202  35.843  1.00  0.00     0.220 HD
ENDBRANCH   4  25
BRANCH   5  27
HETATM   27  C10 UNL     1      11.079  13.671  33.029  1.00  0.00     0.247 C 
BRANCH  27  28
HETATM   28  C11 UNL     1      12.273  14.312  33.481  1.00  0.00     0.192 C 
HETATM   29  O2  UNL     1      13.283  13.745  33.961  1.00  0.00    -0.647 OA
HETATM   30  O3  UNL     1      12.370  15.715  33.398  1.00  0.00    -0.647 OA
ENDBRANCH  27  28
ENDBRANCH   5  27
BRANCH  12  31
HETATM   31  C20 UNL     1       3.980  14.945  35.701  1.00  0.00     0.038 C 
BRANCH  31  32
HETATM   32  C21 UNL     1       3.822  13.727  36.503  1.00  0.00    -0.020 C 
HETATM   33  C22 UNL     1       3.195  14.175  37.853  1.00  0.00     0.009 C 
HETATM   34  C23 UNL     1       2.963  12.628  36.016  1.00  0.00     0.009 C 
ENDBRANCH  31  32
ENDBRANCH  12  31
BRANCH   6  35
HETATM   35  O4  UNL     1       9.247  15.819  32.945  1.00  0.00    -0.348 OA
ATOM     36  H4  UNL     1       8.529  16.441  32.949  1.00  0.00     0.219 HD
ENDBRANCH   6  35
BRANCH   7  37
HETATM   37  C14 UNL     1       7.459  14.133  31.270  1.00  0.00     0.035 C 
BRANCH  37  38
HETATM   38  C15 UNL     1       6.556  15.027  30.522  1.00  0.00     0.022 C 
BRANCH  38  39
HETATM   39  C16 UNL     1       7.469  15.902  29.643  1.00  0.00     0.122 C 
BRANCH  39  40
HETATM   40  N3  UNL     1       7.109  17.272  29.786  1.00  0.00    -0.367 N 
HETATM   41  C17 UNL     1       7.925  18.099  30.333  1.00  0.00     0.196 C 
HETATM   42  N4  UNL     1       9.177  17.627  30.788  1.00  0.00    -0.067 NA
HETATM   43  N5  UNL     1       7.514  19.449  30.448  1.00  0.00    -0.067 NA
ATOM     44  H3  UNL     1       6.202  17.598  29.453  1.00  0.00     0.161 HD
ENDBRANCH  39  40
ENDBRANCH  38  39
ENDBRANCH  37  38
ENDBRANCH   7  37
TORSDOF 17
ENDMDL
MODEL 3
REMARK VINA RESULT: -6.639089394      5.020      8.427
REMARK  17 active torsions:
REMARK  status: ('A' for Active; 'I' for Inactive)
REMARK    1  A    between atoms: S1_2  and  C2_3 
REMARK    2  A    between atoms: C2_3  and  C3_4 
REMARK    3  A    between atoms: C3_4  and  C4_5 
REMARK    4  A    between atoms: C4_5  and  C5_6 
REMARK    5  A    between atoms: C5_6  and  C6_7 
REMARK    6  A    between atoms: C6_7  and  C7_8 
REMARK    7  A    between atoms: C7_8  and  C8_9 
REMARK    8  A    between atoms: C9_12  and  O1_13 
REMARK    9  A    between atoms: N2_15  and  C10_16 
REMARK   10  A    between atoms: C10_16  and  C11_17 
REMARK   11  A    between atoms: C12_20  and  O4_21 
REMARK   12  A    between atoms: C13_23  and  C14_24 
REMARK   13  A    between atoms: C14_24  and  C15_25 
REMARK   14  A    between atoms: C15_25  and  C16_26 
REMARK   15  A    between atoms: C16_26  and  N3_27 
REMARK   16  A    between atoms: C19_36  and  C20_37 
REMARK   17  A    between atoms: C20_37  and  C21_38 
ROOT
HETATM    1  C8  UNL     1       8.351  13.573  37.178  1.00  0.00     0.177 C 
HETATM    2  N1  UNL     1       9.648  13.592  36.493  1.00  0.00    -0.343 N 
ATOM      3  H1  UNL     1      10.427  13.881  37.086  1.00  0.00     0.164 HD
HETATM    4  C9  UNL     1      10.020  13.287  35.169  1.00  0.00     0.222 C 
HETATM    5  N2  UNL     1       9.908  13.833  33.859  1.00  0.00    -0.285 N 
HETATM    6  C12 UNL     1       8.908  14.571  33.193  1.00  0.00     0.144 C 
HETATM    7  C13 UNL     1       7.522  14.357  32.743  1.00  0.00     0.159 C 
HETATM    8  N6  UNL     1       6.582  15.421  32.975  1.00  0.00    -0.347 N 
ATOM      9  H6  UNL     1       6.828  16.286  32.493  1.00  0.00     0.163 HD
HETATM   10  C18 UNL     1       5.405  15.521  33.717  1.00  0.00     0.241 C 
HETATM   11  O5  UNL     1       4.289  15.680  33.181  1.00  0.00    -0.271 OA
HETATM   12  C19 UNL     1       5.346  15.450  35.265  1.00  0.00     0.177 C 
HETATM   13  N7  UNL     1       6.590  14.898  35.668  1.00  0.00    -0.346 N 
ATOM     14  H7  UNL     1       7.289  15.615  35.473  1.00  0.00     0.163 HD
HETATM   15  C24 UNL     1       7.262  13.863  36.186  1.00  0.00     0.241 C 
HETATM   16  O6  UNL     1       6.979  12.668  35.780  1.00  0.00    -0.271 OA
ENDROOT
BRANCH   1  17
HETATM   17  C7  UNL     1       8.036  12.261  37.843  1.00  0.00     0.035 C 
BRANCH  17  18
HETATM   18  C6  UNL     1       7.206  12.193  39.037  1.00  0.00     0.002 C 
BRANCH  18  19
HETATM   19  C5  UNL     1       5.844  11.623  38.972  1.00  0.00     0.000 C 
BRANCH  19  20
HETATM   20  C4  UNL     1       5.091  11.869  40.293  1.00  0.00     0.001 C 
BRANCH  20  21
HETATM   21  C3  UNL     1       3.951  10.912  40.363  1.00  0.00     0.010 C 
BRANCH  21  22
HETATM   22  C2  UNL     1       3.266  10.613  39.073  1.00  0.00     0.073 C 
BRANCH  22  23
HETATM   23  S1  UNL     1       1.486  10.982  39.149  1.00  0.00    -0.173 SA
HETATM   24  C1  UNL     1       1.095  12.145  40.467  1.00  0.00     0.089 C 
ENDBRANCH  22  23
ENDBRANCH  21  22
ENDBRANCH  20  21
ENDBRANCH  19  20
ENDBRANCH  18  19
ENDBRANCH  17  18
ENDBRANCH   1  17
BRANCH   4  25
HETATM   25  O1  UNL     1      10.675  12.151  35.123  1.00  0.00    -0.332 OA
ATOM     26  H1  UNL     1      11.122  12.056  34.291  1.00  0.00     0.220 HD
ENDBRANCH   4  25
BRANCH   5  27
HETATM   27  C10 UNL     1      11.089  13.613  32.938  1.00  0.00     0.247 C 
BRANCH  27  28
HETATM   28  C11 UNL     1      10.844  12.685  31.881  1.00  0.00     0.192 C 
HETATM   29  O2  UNL     1      10.801  12.950  30.656  1.00  0.00    -0.647 OA
HETATM   30  O3  UNL     1      10.624  11.330  32.197  1.00  0.00    -0.647 OA
ENDBRANCH  27  28
ENDBRANCH   5  27
BRANCH  12  31
HETATM   31  C20 UNL     1       4.041  14.978  35.698  1.00  0.00     0.038 C 
BRANCH  31  32
HETATM   32  C21 UNL     1       3.875  13.741  36.467  1.00  0.00    -0.020 C 
HETATM   33  C22 UNL     1       3.274  14.159  37.839  1.00  0.00     0.009 C 
HETATM   34  C23 UNL     1       2.992  12.670  35.962  1.00  0.00     0.009 C 
ENDBRANCH  31  32
ENDBRANCH  12  31
BRANCH   6  35
HETATM   35  O4  UNL     1       9.281  15.782  32.871  1.00  0.00    -0.348 OA
ATOM     36  H4  UNL     1       8.638  16.446  33.087  1.00  0.00     0.219 HD
ENDBRANCH   6  35
BRANCH   7  37
HETATM   37  C14 UNL     1       7.453  14.112  31.225  1.00  0.00     0.035 C 
BRANCH  37  38
HETATM   38  C15 UNL     1       6.546  15.010  30.487  1.00  0.00     0.022 C 
BRANCH  38  39
HETATM   39  C16 UNL     1       7.456  15.897  29.615  1.00  0.00     0.122 C 
BRANCH  39  40
HETATM   40  N3  UNL     1       7.089  17.264  29.766  1.00  0.00    -0.367 N 
HETATM   41  C17 UNL     1       7.902  18.093  30.314  1.00  0.00     0.196 C 
HETATM   42  N4  UNL     1       9.160  17.625  30.760  1.00  0.00    -0.067 NA
HETATM   43  N5  UNL     1       7.485  19.439  30.438  1.00  0.00    -0.067 NA
ATOM     44  H3  UNL     1       6.178  17.586  29.440  1.00  0.00     0.161 HD
ENDBRANCH  39  40
ENDBRANCH  38  39
ENDBRANCH  37  38
ENDBRANCH   7  37
TORSDOF 17
ENDMDL
MODEL 4
REMARK VINA RESULT: -6.637905681      4.935      8.420
REMARK  17 active torsions:
REMARK  status: ('A' for Active; 'I' for Inactive)
REMARK    1  A    between atoms: S1_2  and  C2_3 
REMARK    2  A    between atoms: C2_3  and  C3_4 
REMARK    3  A    between atoms: C3_4  and  C4_5 
REMARK    4  A    between atoms: C4_5  and  C5_6 
REMARK    5  A    between atoms: C5_6  and  C6_7 
REMARK    6  A    between atoms: C6_7  and  C7_8 
REMARK    7  A    between atoms: C7_8  and  C8_9 
REMARK    8  A    between atoms: C9_12  and  O1_13 
REMARK    9  A    between atoms: N2_15  and  C10_16 
REMARK   10  A    between atoms: C10_16  and  C11_17 
REMARK   11  A    between atoms: C12_20  and  O4_21 
REMARK   12  A    between atoms: C13_23  and  C14_24 
REMARK   13  A    between atoms: C14_24  and  C15_25 
REMARK   14  A    between atoms: C15_25  and  C16_26 
REMARK   15  A    between atoms: C16_26  and  N3_27 
REMARK   16  A    between atoms: C19_36  and  C20_37 
REMARK   17  A    between atoms: C20_37  and  C21_38 
ROOT
HETATM    1  C8  UNL     1       8.278  13.498  37.248  1.00  0.00     0.177 C 
HETATM    2  N1  UNL     1       9.573  13.525  36.561  1.00  0.00    -0.343 N 
ATOM      3  H1  UNL     1      10.354  13.797  37.157  1.00  0.00     0.164 HD
HETATM    4  C9  UNL     1       9.939  13.247  35.230  1.00  0.00     0.222 C 
HETATM    5  N2  UNL     1       9.827  13.822  33.932  1.00  0.00    -0.285 N 
HETATM    6  C12 UNL     1       8.829  14.579  33.285  1.00  0.00     0.144 C 
HETATM    7  C13 UNL     1       7.441  14.382  32.834  1.00  0.00     0.159 C 
HETATM    8  N6  UNL     1       6.507  15.446  33.091  1.00  0.00    -0.347 N 
ATOM      9  H6  UNL     1       6.757  16.320  32.628  1.00  0.00     0.163 HD
HETATM   10  C18 UNL     1       5.332  15.536  33.839  1.00  0.00     0.241 C 
HETATM   11  O5  UNL     1       4.216  15.713  33.310  1.00  0.00    -0.271 OA
HETATM   12  C19 UNL     1       5.277  15.432  35.386  1.00  0.00     0.177 C 
HETATM   13  N7  UNL     1       6.520  14.865  35.772  1.00  0.00    -0.346 N 
ATOM     14  H7  UNL     1       7.222  15.582  35.591  1.00  0.00     0.163 HD
HETATM   15  C24 UNL     1       7.187  13.815  36.267  1.00  0.00     0.241 C 
HETATM   16  O6  UNL     1       6.897  12.631  35.835  1.00  0.00    -0.271 OA
ENDROOT
BRANCH   1  17
HETATM   17  C7  UNL     1       7.958  12.174  37.886  1.00  0.00     0.035 C 
BRANCH  17  18
HETATM   18  C6  UNL     1       7.156  12.086  39.098  1.00  0.00     0.002 C 
BRANCH  18  19
HETATM   19  C5  UNL     1       5.755  11.618  39.039  1.00  0.00     0.000 C 
BRANCH  19  20
HETATM   20  C4  UNL     1       5.049  11.853  40.387  1.00  0.00     0.001 C 
BRANCH  20  21
HETATM   21  C3  UNL     1       3.909  10.899  40.487  1.00  0.00     0.010 C 
BRANCH  21  22
HETATM   22  C2  UNL     1       3.222  10.563  39.206  1.00  0.00     0.073 C 
BRANCH  22  23
HETATM   23  S1  UNL     1       1.454  10.987  39.254  1.00  0.00    -0.173 SA
HETATM   24  C1  UNL     1       1.068  12.117  40.603  1.00  0.00     0.089 C 
ENDBRANCH  22  23
ENDBRANCH  21  22
ENDBRANCH  20  21
ENDBRANCH  19  20
ENDBRANCH  18  19
ENDBRANCH  17  18
ENDBRANCH   1  17
BRANCH   4  25
HETATM   25  O1  UNL     1      10.589  12.109  35.157  1.00  0.00    -0.332 OA
ATOM     26  H1  UNL     1      11.474  12.249  34.845  1.00  0.00     0.220 HD
ENDBRANCH   4  25
BRANCH   5  27
HETATM   27  C10 UNL     1      11.005  13.616  33.003  1.00  0.00     0.247 C 
BRANCH  27  28
HETATM   28  C11 UNL     1      10.738  12.748  31.901  1.00  0.00     0.192 C 
HETATM   29  O2  UNL     1      10.962  12.994  30.692  1.00  0.00    -0.647 OA
HETATM   30  O3  UNL     1      10.167  11.484  32.148  1.00  0.00    -0.647 OA
ENDBRANCH  27  28
ENDBRANCH   5  27
BRANCH  12  31
HETATM   31  C20 UNL     1       3.971  14.957  35.812  1.00  0.00     0.038 C 
BRANCH  31  32
HETATM   32  C21 UNL     1       3.807  13.741  36.614  1.00  0.00    -0.020 C 
HETATM   33  C22 UNL     1       3.112  14.182  37.933  1.00  0.00     0.009 C 
HETATM   34  C23 UNL     1       2.996  12.620  36.099  1.00  0.00     0.009 C 
ENDBRANCH  31  32
ENDBRANCH  12  31
BRANCH   6  35
HETATM   35  O4  UNL     1       9.208  15.795  32.988  1.00  0.00    -0.348 OA
ATOM     36  H4  UNL     1       9.022  16.427  33.673  1.00  0.00     0.219 HD
ENDBRANCH   6  35
BRANCH   7  37
HETATM   37  C14 UNL     1       7.366  14.171  31.312  1.00  0.00     0.035 C 
BRANCH  37  38
HETATM   38  C15 UNL     1       7.038  15.376  30.528  1.00  0.00     0.022 C 
BRANCH  38  39
HETATM   39  C16 UNL     1       6.691  14.871  29.114  1.00  0.00     0.122 C 
BRANCH  39  40
HETATM   40  N3  UNL     1       5.655  15.673  28.555  1.00  0.00    -0.367 N 
HETATM   41  C17 UNL     1       5.911  16.466  27.578  1.00  0.00     0.196 C 
HETATM   42  N4  UNL     1       7.230  16.529  27.073  1.00  0.00    -0.067 NA
HETATM   43  N5  UNL     1       4.843  17.239  27.062  1.00  0.00    -0.067 NA
ATOM     44  H3  UNL     1       4.709  15.617  28.930  1.00  0.00     0.161 HD
ENDBRANCH  39  40
ENDBRANCH  38  39
ENDBRANCH  37  38
ENDBRANCH   7  37
TORSDOF 17
ENDMDL
MODEL 5
REMARK VINA RESULT: -6.573707701      4.766      8.394
REMARK  17 active torsions:
REMARK  status: ('A' for Active; 'I' for Inactive)
REMARK    1  A    between atoms: S1_2  and  C2_3 
REMARK    2  A    between atoms: C2_3  and  C3_4 
REMARK    3  A    between atoms: C3_4  and  C4_5 
REMARK    4  A    between atoms: C4_5  and  C5_6 
REMARK    5  A    between atoms: C5_6  and  C6_7 
REMARK    6  A    between atoms: C6_7  and  C7_8 
REMARK    7  A    between atoms: C7_8  and  C8_9 
REMARK    8  A    between atoms: C9_12  and  O1_13 
REMARK    9  A    between atoms: N2_15  and  C10_16 
REMARK   10  A    between atoms: C10_16  and  C11_17 
REMARK   11  A    between atoms: C12_20  and  O4_21 
REMARK   12  A    between atoms: C13_23  and  C14_24 
REMARK   13  A    between atoms: C14_24  and  C15_25 
REMARK   14  A    between atoms: C15_25  and  C16_26 
REMARK   15  A    between atoms: C16_26  and  N3_27 
REMARK   16  A    between atoms: C19_36  and  C20_37 
REMARK   17  A    between atoms: C20_37  and  C21_38 
ROOT
HETATM    1  C8  UNL     1       8.395  13.701  37.143  1.00  0.00     0.177 C 
HETATM    2  N1  UNL     1       9.684  13.701  36.443  1.00  0.00    -0.343 N 
ATOM      3  H1  UNL     1      10.470  14.002  37.019  1.00  0.00     0.164 HD
HETATM    4  C9  UNL     1      10.039  13.362  35.123  1.00  0.00     0.222 C 
HETATM    5  N2  UNL     1       9.913  13.875  33.801  1.00  0.00    -0.285 N 
HETATM    6  C12 UNL     1       8.906  14.599  33.128  1.00  0.00     0.144 C 
HETATM    7  C13 UNL     1       7.515  14.376  32.700  1.00  0.00     0.159 C 
HETATM    8  N6  UNL     1       6.580  15.448  32.916  1.00  0.00    -0.347 N 
ATOM      9  H6  UNL     1       6.822  16.300  32.411  1.00  0.00     0.163 HD
HETATM   10  C18 UNL     1       5.412  15.569  33.670  1.00  0.00     0.241 C 
HETATM   11  O5  UNL     1       4.290  15.717  33.144  1.00  0.00    -0.271 OA
HETATM   12  C19 UNL     1       5.371  15.537  35.220  1.00  0.00     0.177 C 
HETATM   13  N7  UNL     1       6.619  14.992  35.621  1.00  0.00    -0.346 N 
ATOM     14  H7  UNL     1       7.317  15.702  35.401  1.00  0.00     0.163 HD
HETATM   15  C24 UNL     1       7.295  13.969  36.158  1.00  0.00     0.241 C 
HETATM   16  O6  UNL     1       7.005  12.765  35.784  1.00  0.00    -0.271 OA
ENDROOT
BRANCH   1  17
HETATM   17  C7  UNL     1       8.086  12.407  37.844  1.00  0.00     0.035 C 
BRANCH  17  18
HETATM   18  C6  UNL     1       7.302  12.374  39.070  1.00  0.00     0.002 C 
BRANCH  18  19
HETATM   19  C5  UNL     1       6.034  11.616  39.130  1.00  0.00     0.000 C 
BRANCH  19  20
HETATM   20  C4  UNL     1       5.185  12.076  40.330  1.00  0.00     0.001 C 
BRANCH  20  21
HETATM   21  C3  UNL     1       4.333  10.932  40.762  1.00  0.00     0.010 C 
BRANCH  21  22
HETATM   22  C2  UNL     1       4.510  10.479  42.171  1.00  0.00     0.073 C 
BRANCH  22  23
HETATM   23  S1  UNL     1       3.402   9.096  42.583  1.00  0.00    -0.173 SA
HETATM   24  C1  UNL     1       4.245   7.819  43.534  1.00  0.00     0.089 C 
ENDBRANCH  22  23
ENDBRANCH  21  22
ENDBRANCH  20  21
ENDBRANCH  19  20
ENDBRANCH  18  19
ENDBRANCH  17  18
ENDBRANCH   1  17
BRANCH   4  25
HETATM   25  O1  UNL     1      10.692  12.224  35.097  1.00  0.00    -0.332 OA
ATOM     26  H1  UNL     1      11.254  12.178  34.333  1.00  0.00     0.220 HD
ENDBRANCH   4  25
BRANCH   5  27
HETATM   27  C10 UNL     1      11.083  13.630  32.872  1.00  0.00     0.247 C 
BRANCH  27  28
HETATM   28  C11 UNL     1      10.818  12.689  31.831  1.00  0.00     0.192 C 
HETATM   29  O2  UNL     1      11.026  12.859  30.606  1.00  0.00    -0.647 OA
HETATM   30  O3  UNL     1      10.271  11.434  32.166  1.00  0.00    -0.647 OA
ENDBRANCH  27  28
ENDBRANCH   5  27
BRANCH  12  31
HETATM   31  C20 UNL     1       4.070  15.078  35.680  1.00  0.00     0.038 C 
BRANCH  31  32
HETATM   32  C21 UNL     1       3.735  13.654  35.777  1.00  0.00    -0.020 C 
HETATM   33  C22 UNL     1       3.393  13.389  37.270  1.00  0.00     0.009 C 
HETATM   34  C23 UNL     1       2.596  13.110  35.011  1.00  0.00     0.009 C 
ENDBRANCH  31  32
ENDBRANCH  12  31
BRANCH   6  35
HETATM   35  O4  UNL     1       9.278  15.801  32.772  1.00  0.00    -0.348 OA
ATOM     36  H4  UNL     1       9.276  15.935  31.832  1.00  0.00     0.219 HD
ENDBRANCH   6  35
BRANCH   7  37
HETATM   37  C14 UNL     1       7.427  14.095  31.190  1.00  0.00     0.035 C 
BRANCH  37  38
HETATM   38  C15 UNL     1       6.525  14.986  30.438  1.00  0.00     0.022 C 
BRANCH  38  39
HETATM   39  C16 UNL     1       7.442  15.887  29.588  1.00  0.00     0.122 C 
BRANCH  39  40
HETATM   40  N3  UNL     1       7.075  17.251  29.761  1.00  0.00    -0.367 N 
HETATM   41  C17 UNL     1       7.911  18.085  30.265  1.00  0.00     0.196 C 
HETATM   42  N4  UNL     1       9.193  17.626  30.643  1.00  0.00    -0.067 NA
HETATM   43  N5  UNL     1       7.492  19.429  30.413  1.00  0.00    -0.067 NA
ATOM     44  H3  UNL     1       6.145  17.567  29.484  1.00  0.00     0.161 HD
ENDBRANCH  39  40
ENDBRANCH  38  39
ENDBRANCH  37  38
ENDBRANCH   7  37
TORSDOF 17
ENDMDL
