MODEL 1
REMARK VINA RESULT: -8.204557549      0.000      0.000
REMARK  20 active torsions:
REMARK  status: ('A' for Active; 'I' for Inactive)
REMARK    1  A    between atoms: C2_2  and  C3_3 
REMARK    2  A    between atoms: C5_5  and  C6_6 
REMARK    3  A    between atoms: C6_6  and  N1_8 
REMARK    4  A    between atoms: N1_8  and  C7_10 
REMARK    5  A    between atoms: C7_10  and  C8_11 
REMARK    6  A    between atoms: C7_10  and  C15_18 
REMARK    7  A    between atoms: C8_11  and  C9_12 
REMARK    8  A    between atoms: C15_18  and  O1_19 
REMARK    9  A    between atoms: C15_18  and  N2_21 
REMARK   10  A    between atoms: N2_21  and  C16_22 
REMARK   11  A    between atoms: N2_21  and  C21_31 
REMARK   12  A    between atoms: C16_22  and  C17_23 
REMARK   13  A    between atoms: C17_23  and  C18_24 
REMARK   14  A    between atoms: C18_24  and  C19_25 
REMARK   15  A    between atoms: C19_25  and  N3_26 
REMARK   16  A    between atoms: C21_31  and  C22_32 
REMARK       I    between atoms: N6_35  and  C23_36 
REMARK   17  A    between atoms: C23_36  and  C24_38 
REMARK   18  A    between atoms: C24_38  and  N7_39 
REMARK   19  A    between atoms: C24_38  and  C25_43 
REMARK   20  A    between atoms: C25_43  and  C26_44 
ROOT
HETATM    1  C7  UNL     1       5.450  12.758  38.127  1.00  0.00     0.157 C 
ENDROOT
BRANCH   1   2
HETATM    2  N1  UNL     1       6.390  13.895  38.086  1.00  0.00    -0.371 N 
ATOM      3  H1  UNL     1       6.172  14.709  38.661  1.00  0.00     0.161 HD
BRANCH   2   4
HETATM    4  C6  UNL     1       7.567  13.938  37.312  1.00  0.00     0.097 C 
HETATM    5  S1  UNL     1       8.667  15.122  37.540  1.00  0.00    -0.063 SA
BRANCH   4   6
HETATM    6  C5  UNL     1       7.841  12.914  36.293  1.00  0.00     0.150 C 
HETATM    7  C4  UNL     1       9.091  12.144  36.651  1.00  0.00     0.057 C 
HETATM    8  C3  UNL     1       9.399  12.257  35.184  1.00  0.00     0.090 C 
HETATM    9  N6  UNL     1       8.376  13.266  35.034  1.00  0.00    -0.334 N 
HETATM   10  C23 UNL     1       8.165  14.166  33.928  1.00  0.00     0.252 C 
HETATM   11  O4  UNL     1       7.186  14.947  33.996  1.00  0.00    -0.271 OA
BRANCH   8  12
HETATM   12  C2  UNL     1       9.068  10.931  34.523  1.00  0.00     0.021 C 
HETATM   13  C1  UNL     1      10.254  10.557  33.662  1.00  0.00     0.007 C 
ENDBRANCH   8  12
BRANCH  10  14
HETATM   14  C24 UNL     1       9.001  14.235  32.732  1.00  0.00     0.284 C 
BRANCH  14  15
HETATM   15  N7  UNL     1       8.752  13.057  31.889  1.00  0.00    -0.066 N 
ATOM     16  H73 UNL     1       9.229  12.226  32.238  1.00  0.00     0.275 HD
ATOM     17  H72 UNL     1       7.793  12.721  31.971  1.00  0.00     0.275 HD
ATOM     18  H71 UNL     1       9.005  13.268  30.923  1.00  0.00     0.275 HD
ENDBRANCH  14  15
BRANCH  14  19
HETATM   19  C25 UNL     1       8.694  15.408  31.819  1.00  0.00     0.155 C 
BRANCH  19  20
HETATM   20  C26 UNL     1       7.978  14.876  30.633  1.00  0.00     0.175 C 
HETATM   21  O5  UNL     1       8.553  14.761  29.519  1.00  0.00    -0.648 OA
HETATM   22  O6  UNL     1       6.650  14.489  30.709  1.00  0.00    -0.648 OA
ENDBRANCH  19  20
ENDBRANCH  14  19
ENDBRANCH  10  14
ENDBRANCH   4   6
ENDBRANCH   2   4
ENDBRANCH   1   2
BRANCH   1  23
HETATM   23  C8  UNL     1       4.707  12.606  36.865  1.00  0.00     0.038 C 
BRANCH  23  24
HETATM   24  C9  UNL     1       3.814  13.858  36.638  1.00  0.00    -0.012 C 
HETATM   25  C10 UNL     1       4.417  14.714  35.574  1.00  0.00     0.005 C 
HETATM   26  C11 UNL     1       3.275  15.490  34.917  1.00  0.00     0.000 C 
HETATM   27  C12 UNL     1       2.384  14.577  34.134  1.00  0.00     0.000 C 
HETATM   28  C13 UNL     1       2.436  13.194  34.739  1.00  0.00     0.000 C 
HETATM   29  C14 UNL     1       2.460  13.316  36.237  1.00  0.00     0.005 C 
ENDBRANCH  23  24
ENDBRANCH   1  23
BRANCH   1  30
HETATM   30  C15 UNL     1       4.722  12.773  39.394  1.00  0.00     0.137 C 
BRANCH  30  31
HETATM   31  O1  UNL     1       4.766  13.935  40.001  1.00  0.00    -0.348 OA
ATOM     32  H1  UNL     1       3.906  14.276  40.219  1.00  0.00     0.219 HD
ENDBRANCH  30  31
BRANCH  30  33
HETATM   33  N2  UNL     1       3.994  11.801  40.095  1.00  0.00    -0.354 N 
BRANCH  33  34
HETATM   34  C16 UNL     1       4.748  10.945  41.062  1.00  0.00     0.125 C 
BRANCH  34  35
HETATM   35  C17 UNL     1       3.887  10.336  42.108  1.00  0.00     0.021 C 
BRANCH  35  36
HETATM   36  C18 UNL     1       4.714   9.452  43.049  1.00  0.00     0.021 C 
BRANCH  36  37
HETATM   37  C19 UNL     1       3.910   8.304  43.579  1.00  0.00     0.122 C 
BRANCH  37  38
HETATM   38  N3  UNL     1       2.555   8.689  43.869  1.00  0.00    -0.367 N 
HETATM   39  C20 UNL     1       2.164   9.055  45.049  1.00  0.00     0.196 C 
HETATM   40  N4  UNL     1       0.811   9.431  45.299  1.00  0.00    -0.067 NA
HETATM   41  N5  UNL     1       3.106   9.082  46.111  1.00  0.00    -0.067 NA
ATOM     42  H3  UNL     1       1.871   8.673  43.112  1.00  0.00     0.161 HD
ENDBRANCH  37  38
ENDBRANCH  36  37
ENDBRANCH  35  36
ENDBRANCH  34  35
ENDBRANCH  33  34
BRANCH  33  43
HETATM   43  C21 UNL     1       2.596  11.515  39.977  1.00  0.00     0.237 C 
BRANCH  43  44
HETATM   44  C22 UNL     1       2.221  10.670  38.830  1.00  0.00     0.191 C 
HETATM   45  O2  UNL     1       1.019  10.789  38.423  1.00  0.00    -0.647 OA
HETATM   46  O3  UNL     1       3.073   9.796  38.212  1.00  0.00    -0.647 OA
ENDBRANCH  43  44
ENDBRANCH  33  43
ENDBRANCH  30  33
ENDBRANCH   1  30
TORSDOF 20
ENDMDL
MODEL 2
REMARK VINA RESULT: -8.108366366      1.380      1.640
REMARK  20 active torsions:
REMARK  status: ('A' for Active; 'I' for Inactive)
REMARK    1  A    between atoms: C2_2  and  C3_3 
REMARK    2  A    between atoms: C5_5  and  C6_6 
REMARK    3  A    between atoms: C6_6  and  N1_8 
REMARK    4  A    between atoms: N1_8  and  C7_10 
REMARK    5  A    between atoms: C7_10  and  C8_11 
REMARK    6  A    between atoms: C7_10  and  C15_18 
REMARK    7  A    between atoms: C8_11  and  C9_12 
REMARK    8  A    between atoms: C15_18  and  O1_19 
REMARK    9  A    between atoms: C15_18  and  N2_21 
REMARK   10  A    between atoms: N2_21  and  C16_22 
REMARK   11  A    between atoms: N2_21  and  C21_31 
REMARK   12  A    between atoms: C16_22  and  C17_23 
REMARK   13  A    between atoms: C17_23  and  C18_24 
REMARK   14  A    between atoms: C18_24  and  C19_25 
REMARK   15  A    between atoms: C19_25  and  N3_26 
REMARK   16  A    between atoms: C21_31  and  C22_32 
REMARK       I    between atoms: N6_35  and  C23_36 
REMARK   17  A    between atoms: C23_36  and  C24_38 
REMARK   18  A    between atoms: C24_38  and  N7_39 
REMARK   19  A    between atoms: C24_38  and  C25_43 
REMARK   20  A    between atoms: C25_43  and  C26_44 
ROOT
HETATM    1  C7  UNL     1       5.479  12.881  37.971  1.00  0.00     0.157 C 
ENDROOT
BRANCH   1   2
HETATM    2  N1  UNL     1       6.499  13.947  37.975  1.00  0.00    -0.371 N 
ATOM      3  H1  UNL     1       6.330  14.760  38.567  1.00  0.00     0.161 HD
BRANCH   2   4
HETATM    4  C6  UNL     1       7.689  13.924  37.220  1.00  0.00     0.097 C 
HETATM    5  S1  UNL     1       8.852  15.041  37.470  1.00  0.00    -0.063 SA
BRANCH   4   6
HETATM    6  C5  UNL     1       7.921  12.887  36.203  1.00  0.00     0.150 C 
HETATM    7  C4  UNL     1       8.920  11.873  36.711  1.00  0.00     0.057 C 
HETATM    8  C3  UNL     1       9.481  11.953  35.318  1.00  0.00     0.090 C 
HETATM    9  N6  UNL     1       8.714  13.150  35.064  1.00  0.00    -0.334 N 
HETATM   10  C23 UNL     1       8.869  14.098  33.990  1.00  0.00     0.252 C 
HETATM   11  O4  UNL     1       8.064  15.060  33.946  1.00  0.00    -0.271 OA
BRANCH   8  12
HETATM   12  C2  UNL     1       9.010  10.736  34.543  1.00  0.00     0.021 C 
HETATM   13  C1  UNL     1      10.098  10.394  33.549  1.00  0.00     0.007 C 
ENDBRANCH   8  12
BRANCH  10  14
HETATM   14  C24 UNL     1       9.887  14.022  32.945  1.00  0.00     0.284 C 
BRANCH  14  15
HETATM   15  N7  UNL     1       9.757  15.176  32.045  1.00  0.00    -0.066 N 
ATOM     16  H73 UNL     1       9.097  15.868  32.400  1.00  0.00     0.275 HD
ATOM     17  H72 UNL     1      10.594  15.759  32.043  1.00  0.00     0.275 HD
ATOM     18  H71 UNL     1       9.510  14.854  31.109  1.00  0.00     0.275 HD
ENDBRANCH  14  15
BRANCH  14  19
HETATM   19  C25 UNL     1      11.314  14.115  33.453  1.00  0.00     0.155 C 
BRANCH  19  20
HETATM   20  C26 UNL     1      12.034  15.086  32.592  1.00  0.00     0.175 C 
HETATM   21  O5  UNL     1      12.297  16.249  32.996  1.00  0.00    -0.648 OA
HETATM   22  O6  UNL     1      12.440  14.748  31.312  1.00  0.00    -0.648 OA
ENDBRANCH  19  20
ENDBRANCH  14  19
ENDBRANCH  10  14
ENDBRANCH   4   6
ENDBRANCH   2   4
ENDBRANCH   1   2
BRANCH   1  23
HETATM   23  C8  UNL     1       4.683  12.877  36.732  1.00  0.00     0.038 C 
BRANCH  23  24
HETATM   24  C9  UNL     1       4.157  14.312  36.453  1.00  0.00    -0.012 C 
HETATM   25  C10 UNL     1       4.794  14.845  35.213  1.00  0.00     0.005 C 
HETATM   26  C11 UNL     1       3.827  15.863  34.609  1.00  0.00     0.000 C 
HETATM   27  C12 UNL     1       2.598  15.191  34.080  1.00  0.00     0.000 C 
HETATM   28  C13 UNL     1       2.355  13.919  34.857  1.00  0.00     0.000 C 
HETATM   29  C14 UNL     1       2.657  14.167  36.308  1.00  0.00     0.005 C 
ENDBRANCH  23  24
ENDBRANCH   1  23
BRANCH   1  30
HETATM   30  C15 UNL     1       4.798  12.854  39.264  1.00  0.00     0.137 C 
BRANCH  30  31
HETATM   31  O1  UNL     1       5.030  13.920  39.992  1.00  0.00    -0.348 OA
ATOM     32  H1  UNL     1       4.351  14.580  39.915  1.00  0.00     0.219 HD
ENDBRANCH  30  31
BRANCH  30  33
HETATM   33  N2  UNL     1       3.956  11.922  39.887  1.00  0.00    -0.354 N 
BRANCH  33  34
HETATM   34  C16 UNL     1       4.587  10.952  40.834  1.00  0.00     0.125 C 
BRANCH  34  35
HETATM   35  C17 UNL     1       4.031  11.023  42.210  1.00  0.00     0.021 C 
BRANCH  35  36
HETATM   36  C18 UNL     1       4.856  10.164  43.176  1.00  0.00     0.021 C 
BRANCH  36  37
HETATM   37  C19 UNL     1       4.141   8.898  43.540  1.00  0.00     0.122 C 
BRANCH  37  38
HETATM   38  N3  UNL     1       2.757   9.137  43.850  1.00  0.00    -0.367 N 
HETATM   39  C20 UNL     1       2.317   9.251  45.064  1.00  0.00     0.196 C 
HETATM   40  N4  UNL     1       0.937   9.489  45.333  1.00  0.00    -0.067 NA
HETATM   41  N5  UNL     1       3.233   9.139  46.144  1.00  0.00    -0.067 NA
ATOM     42  H3  UNL     1       2.092   9.219  43.081  1.00  0.00     0.161 HD
ENDBRANCH  37  38
ENDBRANCH  36  37
ENDBRANCH  35  36
ENDBRANCH  34  35
ENDBRANCH  33  34
BRANCH  33  43
HETATM   43  C21 UNL     1       2.543  11.775  39.704  1.00  0.00     0.237 C 
BRANCH  43  44
HETATM   44  C22 UNL     1       2.137  10.742  38.734  1.00  0.00     0.191 C 
HETATM   45  O2  UNL     1       0.882  10.561  38.609  1.00  0.00    -0.647 OA
HETATM   46  O3  UNL     1       3.017   9.998  37.996  1.00  0.00    -0.647 OA
ENDBRANCH  43  44
ENDBRANCH  33  43
ENDBRANCH  30  33
ENDBRANCH   1  30
TORSDOF 20
ENDMDL
MODEL 3
REMARK VINA RESULT: -8.045944548      3.361      9.978
REMARK  20 active torsions:
REMARK  status: ('A' for Active; 'I' for Inactive)
REMARK    1  A    between atoms: C2_2  and  C3_3 
REMARK    2  A    between atoms: C5_5  and  C6_6 
REMARK    3  A    between atoms: C6_6  and  N1_8 
REMARK    4  A    between atoms: N1_8  and  C7_10 
REMARK    5  A    between atoms: C7_10  and  C8_11 
REMARK    6  A    between atoms: C7_10  and  C15_18 
REMARK    7  A    between atoms: C8_11  and  C9_12 
REMARK    8  A    between atoms: C15_18  and  O1_19 
REMARK    9  A    between atoms: C15_18  and  N2_21 
REMARK   10  A    between atoms: N2_21  and  C16_22 
REMARK   11  A    between atoms: N2_21  and  C21_31 
REMARK   12  A    between atoms: C16_22  and  C17_23 
REMARK   13  A    between atoms: C17_23  and  C18_24 
REMARK   14  A    between atoms: C18_24  and  C19_25 
REMARK   15  A    between atoms: C19_25  and  N3_26 
REMARK   16  A    between atoms: C21_31  and  C22_32 
REMARK       I    between atoms: N6_35  and  C23_36 
REMARK   17  A    between atoms: C23_36  and  C24_38 
REMARK   18  A    between atoms: C24_38  and  N7_39 
REMARK   19  A    between atoms: C24_38  and  C25_43 
REMARK   20  A    between atoms: C25_43  and  C26_44 
ROOT
HETATM    1  C7  UNL     1       5.128  12.875  39.942  1.00  0.00     0.157 C 
ENDROOT
BRANCH   1   2
HETATM    2  N1  UNL     1       5.029  12.275  41.287  1.00  0.00    -0.371 N 
ATOM      3  H1  UNL     1       5.489  12.762  42.056  1.00  0.00     0.161 HD
BRANCH   2   4
HETATM    4  C6  UNL     1       4.347  11.078  41.585  1.00  0.00     0.097 C 
HETATM    5  S1  UNL     1       3.915  10.050  40.394  1.00  0.00    -0.063 SA
BRANCH   4   6
HETATM    6  C5  UNL     1       4.020  10.719  42.974  1.00  0.00     0.150 C 
HETATM    7  C4  UNL     1       4.811   9.503  43.398  1.00  0.00     0.057 C 
HETATM    8  C3  UNL     1       3.521   9.073  44.037  1.00  0.00     0.090 C 
HETATM    9  N6  UNL     1       2.801  10.080  43.292  1.00  0.00    -0.334 N 
HETATM   10  C23 UNL     1       1.378  10.198  43.093  1.00  0.00     0.252 C 
HETATM   11  O4  UNL     1       0.965  11.179  42.429  1.00  0.00    -0.271 OA
BRANCH   8  12
HETATM   12  C2  UNL     1       3.611   9.348  45.527  1.00  0.00     0.021 C 
HETATM   13  C1  UNL     1       2.972   8.172  46.234  1.00  0.00     0.007 C 
ENDBRANCH   8  12
BRANCH  10  14
HETATM   14  C24 UNL     1       0.380   9.264  43.609  1.00  0.00     0.284 C 
BRANCH  14  15
HETATM   15  N7  UNL     1       0.020   9.638  44.983  1.00  0.00    -0.066 N 
ATOM     16  H73 UNL     1       0.840   9.831  45.558  1.00  0.00     0.275 HD
ATOM     17  H72 UNL     1      -0.412  10.560  45.030  1.00  0.00     0.275 HD
ATOM     18  H71 UNL     1      -0.573   8.914  45.391  1.00  0.00     0.275 HD
ENDBRANCH  14  15
BRANCH  14  19
HETATM   19  C25 UNL     1      -0.943   9.287  42.866  1.00  0.00     0.155 C 
BRANCH  19  20
HETATM   20  C26 UNL     1      -1.958   9.872  43.777  1.00  0.00     0.175 C 
HETATM   21  O5  UNL     1      -2.681   9.142  44.505  1.00  0.00    -0.648 OA
HETATM   22  O6  UNL     1      -2.146  11.241  43.860  1.00  0.00    -0.648 OA
ENDBRANCH  19  20
ENDBRANCH  14  19
ENDBRANCH  10  14
ENDBRANCH   4   6
ENDBRANCH   2   4
ENDBRANCH   1   2
BRANCH   1  23
HETATM   23  C8  UNL     1       6.442  13.495  39.705  1.00  0.00     0.038 C 
BRANCH  23  24
HETATM   24  C9  UNL     1       6.733  13.519  38.179  1.00  0.00    -0.012 C 
HETATM   25  C10 UNL     1       8.115  14.030  37.943  1.00  0.00     0.005 C 
HETATM   26  C11 UNL     1       8.601  13.427  36.625  1.00  0.00     0.000 C 
HETATM   27  C12 UNL     1       8.818  11.951  36.755  1.00  0.00     0.000 C 
HETATM   28  C13 UNL     1       7.903  11.407  37.827  1.00  0.00     0.000 C 
HETATM   29  C14 UNL     1       6.566  12.087  37.718  1.00  0.00     0.005 C 
ENDBRANCH  23  24
ENDBRANCH   1  23
BRANCH   1  30
HETATM   30  C15 UNL     1       3.911  13.634  39.658  1.00  0.00     0.137 C 
BRANCH  30  31
HETATM   31  O1  UNL     1       3.724  14.636  40.483  1.00  0.00    -0.348 OA
ATOM     32  H1  UNL     1       3.633  15.472  40.040  1.00  0.00     0.219 HD
ENDBRANCH  30  31
BRANCH  30  33
HETATM   33  N2  UNL     1       2.903  13.506  38.692  1.00  0.00    -0.354 N 
BRANCH  33  34
HETATM   34  C16 UNL     1       3.045  14.314  37.441  1.00  0.00     0.125 C 
BRANCH  34  35
HETATM   35  C17 UNL     1       1.869  14.215  36.538  1.00  0.00     0.021 C 
BRANCH  35  36
HETATM   36  C18 UNL     1       2.255  13.549  35.212  1.00  0.00     0.021 C 
BRANCH  36  37
HETATM   37  C19 UNL     1       2.900  14.521  34.271  1.00  0.00     0.122 C 
BRANCH  37  38
HETATM   38  N3  UNL     1       4.333  14.400  34.279  1.00  0.00    -0.367 N 
HETATM   39  C20 UNL     1       5.127  15.416  34.143  1.00  0.00     0.196 C 
HETATM   40  N4  UNL     1       6.544  15.257  34.156  1.00  0.00    -0.067 NA
HETATM   41  N5  UNL     1       4.568  16.711  33.979  1.00  0.00    -0.067 NA
ATOM     42  H3  UNL     1       4.744  13.473  34.396  1.00  0.00     0.161 HD
ENDBRANCH  37  38
ENDBRANCH  36  37
ENDBRANCH  35  36
ENDBRANCH  34  35
ENDBRANCH  33  34
BRANCH  33  43
HETATM   43  C21 UNL     1       1.725  12.696  38.773  1.00  0.00     0.237 C 
BRANCH  43  44
HETATM   44  C22 UNL     1       1.863  11.328  38.243  1.00  0.00     0.191 C 
HETATM   45  O2  UNL     1       0.905  10.530  38.510  1.00  0.00    -0.647 OA
HETATM   46  O3  UNL     1       2.934  10.896  37.509  1.00  0.00    -0.647 OA
ENDBRANCH  43  44
ENDBRANCH  33  43
ENDBRANCH  30  33
ENDBRANCH   1  30
TORSDOF 20
ENDMDL
MODEL 4
REMARK VINA RESULT: -7.937524087      3.665      7.228
REMARK  20 active torsions:
REMARK  status: ('A' for Active; 'I' for Inactive)
REMARK    1  A    between atoms: C2_2  and  C3_3 
REMARK    2  A    between atoms: C5_5  and  C6_6 
REMARK    3  A    between atoms: C6_6  and  N1_8 
REMARK    4  A    between atoms: N1_8  and  C7_10 
REMARK    5  A    between atoms: C7_10  and  C8_11 
REMARK    6  A    between atoms: C7_10  and  C15_18 
REMARK    7  A    between atoms: C8_11  and  C9_12 
REMARK    8  A    between atoms: C15_18  and  O1_19 
REMARK    9  A    between atoms: C15_18  and  N2_21 
REMARK   10  A    between atoms: N2_21  and  C16_22 
REMARK   11  A    between atoms: N2_21  and  C21_31 
REMARK   12  A    between atoms: C16_22  and  C17_23 
REMARK   13  A    between atoms: C17_23  and  C18_24 
REMARK   14  A    between atoms: C18_24  and  C19_25 
REMARK   15  A    between atoms: C19_25  and  N3_26 
REMARK   16  A    between atoms: C21_31  and  C22_32 
REMARK       I    between atoms: N6_35  and  C23_36 
REMARK   17  A    between atoms: C23_36  and  C24_38 
REMARK   18  A    between atoms: C24_38  and  N7_39 
REMARK   19  A    between atoms: C24_38  and  C25_43 
REMARK   20  A    between atoms: C25_43  and  C26_44 
ROOT
HETATM    1  C7  UNL     1       1.720  10.265  42.220  1.00  0.00     0.157 C 
ENDROOT
BRANCH   1   2
HETATM    2  N1  UNL     1       1.765  11.369  41.244  1.00  0.00    -0.371 N 
ATOM      3  H1  UNL     1       1.430  12.283  41.548  1.00  0.00     0.161 HD
BRANCH   2   4
HETATM    4  C6  UNL     1       2.237  11.255  39.920  1.00  0.00     0.097 C 
HETATM    5  S1  UNL     1       1.209  10.921  38.698  1.00  0.00    -0.063 SA
BRANCH   4   6
HETATM    6  C5  UNL     1       3.661  11.446  39.605  1.00  0.00     0.150 C 
HETATM    7  C4  UNL     1       4.330  12.259  40.689  1.00  0.00     0.057 C 
HETATM    8  C3  UNL     1       5.011  12.951  39.541  1.00  0.00     0.090 C 
HETATM    9  N6  UNL     1       4.069  12.367  38.614  1.00  0.00    -0.334 N 
HETATM   10  C23 UNL     1       3.818  12.737  37.244  1.00  0.00     0.252 C 
HETATM   11  O4  UNL     1       2.968  12.068  36.609  1.00  0.00    -0.271 OA
BRANCH   8  12
HETATM   12  C2  UNL     1       6.422  12.403  39.422  1.00  0.00     0.021 C 
HETATM   13  C1  UNL     1       7.356  13.592  39.369  1.00  0.00     0.007 C 
ENDBRANCH   8  12
BRANCH  10  14
HETATM   14  C24 UNL     1       4.482  13.830  36.536  1.00  0.00     0.284 C 
BRANCH  14  15
HETATM   15  N7  UNL     1       5.788  13.373  36.041  1.00  0.00    -0.066 N 
ATOM     16  H73 UNL     1       5.746  13.067  35.069  1.00  0.00     0.275 HD
ATOM     17  H72 UNL     1       6.446  14.144  35.924  1.00  0.00     0.275 HD
ATOM     18  H71 UNL     1       6.153  12.646  36.657  1.00  0.00     0.275 HD
ENDBRANCH  14  15
BRANCH  14  19
HETATM   19  C25 UNL     1       3.761  14.296  35.285  1.00  0.00     0.155 C 
BRANCH  19  20
HETATM   20  C26 UNL     1       4.289  15.639  34.938  1.00  0.00     0.175 C 
HETATM   21  O5  UNL     1       5.423  16.018  35.333  1.00  0.00    -0.648 OA
HETATM   22  O6  UNL     1       3.553  16.524  34.168  1.00  0.00    -0.648 OA
ENDBRANCH  19  20
ENDBRANCH  14  19
ENDBRANCH  10  14
ENDBRANCH   4   6
ENDBRANCH   2   4
ENDBRANCH   1   2
BRANCH   1  23
HETATM   23  C8  UNL     1       2.731   9.232  41.938  1.00  0.00     0.038 C 
BRANCH  23  24
HETATM   24  C9  UNL     1       3.807   9.243  43.058  1.00  0.00    -0.012 C 
HETATM   25  C10 UNL     1       3.309  10.040  44.218  1.00  0.00     0.005 C 
HETATM   26  C11 UNL     1       3.999   9.497  45.470  1.00  0.00     0.000 C 
HETATM   27  C12 UNL     1       3.519   8.117  45.794  1.00  0.00     0.000 C 
HETATM   28  C13 UNL     1       3.071   7.435  44.522  1.00  0.00     0.000 C 
HETATM   29  C14 UNL     1       4.027   7.789  43.416  1.00  0.00     0.005 C 
ENDBRANCH  23  24
ENDBRANCH   1  23
BRANCH   1  30
HETATM   30  C15 UNL     1       0.331   9.870  42.445  1.00  0.00     0.137 C 
BRANCH  30  31
HETATM   31  O1  UNL     1      -0.100   8.982  41.581  1.00  0.00    -0.348 OA
ATOM     32  H1  UNL     1      -0.954   9.195  41.221  1.00  0.00     0.219 HD
ENDBRANCH  30  31
BRANCH  30  33
HETATM   33  N2  UNL     1      -0.635  10.251  43.388  1.00  0.00    -0.354 N 
BRANCH  33  34
HETATM   34  C16 UNL     1      -0.469   9.742  44.784  1.00  0.00     0.125 C 
BRANCH  34  35
HETATM   35  C17 UNL     1      -0.155   8.292  44.851  1.00  0.00     0.021 C 
BRANCH  35  36
HETATM   36  C18 UNL     1      -1.269   7.526  45.574  1.00  0.00     0.021 C 
BRANCH  36  37
HETATM   37  C19 UNL     1      -1.861   6.459  44.704  1.00  0.00     0.122 C 
BRANCH  37  38
HETATM   38  N3  UNL     1      -1.596   6.697  43.311  1.00  0.00    -0.367 N 
HETATM   39  C20 UNL     1      -2.444   6.408  42.374  1.00  0.00     0.196 C 
HETATM   40  N4  UNL     1      -2.146   6.660  41.002  1.00  0.00    -0.067 NA
HETATM   41  N5  UNL     1      -3.693   5.832  42.725  1.00  0.00    -0.067 NA
ATOM     42  H3  UNL     1      -0.701   7.111  43.048  1.00  0.00     0.161 HD
ENDBRANCH  37  38
ENDBRANCH  36  37
ENDBRANCH  35  36
ENDBRANCH  34  35
ENDBRANCH  33  34
BRANCH  33  43
HETATM   43  C21 UNL     1      -1.792  11.064  43.161  1.00  0.00     0.237 C 
BRANCH  43  44
HETATM   44  C22 UNL     1      -2.644  11.291  44.342  1.00  0.00     0.191 C 
HETATM   45  O2  UNL     1      -3.623  10.488  44.482  1.00  0.00    -0.647 OA
HETATM   46  O3  UNL     1      -2.437  12.290  45.253  1.00  0.00    -0.647 OA
ENDBRANCH  43  44
ENDBRANCH  33  43
ENDBRANCH  30  33
ENDBRANCH   1  30
TORSDOF 20
ENDMDL
MODEL 5
REMARK VINA RESULT: -7.924127372      3.329     10.315
REMARK  20 active torsions:
REMARK  status: ('A' for Active; 'I' for Inactive)
REMARK    1  A    between atoms: C2_2  and  C3_3 
REMARK    2  A    between atoms: C5_5  and  C6_6 
REMARK    3  A    between atoms: C6_6  and  N1_8 
REMARK    4  A    between atoms: N1_8  and  C7_10 
REMARK    5  A    between atoms: C7_10  and  C8_11 
REMARK    6  A    between atoms: C7_10  and  C15_18 
REMARK    7  A    between atoms: C8_11  and  C9_12 
REMARK    8  A    between atoms: C15_18  and  O1_19 
REMARK    9  A    between atoms: C15_18  and  N2_21 
REMARK   10  A    between atoms: N2_21  and  C16_22 
REMARK   11  A    between atoms: N2_21  and  C21_31 
REMARK   12  A    between atoms: C16_22  and  C17_23 
REMARK   13  A    between atoms: C17_23  and  C18_24 
REMARK   14  A    between atoms: C18_24  and  C19_25 
REMARK   15  A    between atoms: C19_25  and  N3_26 
REMARK   16  A    between atoms: C21_31  and  C22_32 
REMARK       I    between atoms: N6_35  and  C23_36 
REMARK   17  A    between atoms: C23_36  and  C24_38 
REMARK   18  A    between atoms: C24_38  and  N7_39 
REMARK   19  A    between atoms: C24_38  and  C25_43 
REMARK   20  A    between atoms: C25_43  and  C26_44 
ROOT
HETATM    1  C7  UNL     1       4.770  13.107  39.735  1.00  0.00     0.157 C 
ENDROOT
BRANCH   1   2
HETATM    2  N1  UNL     1       4.262  12.654  41.044  1.00  0.00    -0.371 N 
ATOM      3  H1  UNL     1       4.056  13.367  41.744  1.00  0.00     0.161 HD
BRANCH   2   4
HETATM    4  C6  UNL     1       4.039  11.307  41.397  1.00  0.00     0.097 C 
HETATM    5  S1  UNL     1       3.997  10.145  40.252  1.00  0.00    -0.063 SA
BRANCH   4   6
HETATM    6  C5  UNL     1       3.853  10.914  42.802  1.00  0.00     0.150 C 
HETATM    7  C4  UNL     1       4.775   9.768  43.148  1.00  0.00     0.057 C 
HETATM    8  C3  UNL     1       3.579   9.225  43.880  1.00  0.00     0.090 C 
HETATM    9  N6  UNL     1       2.721  10.171  43.206  1.00  0.00    -0.334 N 
HETATM   10  C23 UNL     1       1.282  10.168  43.119  1.00  0.00     0.252 C 
HETATM   11  O4  UNL     1       0.737  11.114  42.502  1.00  0.00    -0.271 OA
BRANCH   8  12
HETATM   12  C2  UNL     1       3.763   9.498  45.363  1.00  0.00     0.021 C 
HETATM   13  C1  UNL     1       3.272   8.273  46.103  1.00  0.00     0.007 C 
ENDBRANCH   8  12
BRANCH  10  14
HETATM   14  C24 UNL     1       0.410   9.149  43.699  1.00  0.00     0.284 C 
BRANCH  14  15
HETATM   15  N7  UNL     1       0.104   9.500  45.093  1.00  0.00    -0.066 N 
ATOM     16  H73 UNL     1      -0.162  10.479  45.195  1.00  0.00     0.275 HD
ATOM     17  H72 UNL     1      -0.767   9.077  45.413  1.00  0.00     0.275 HD
ATOM     18  H71 UNL     1       0.894   9.252  45.690  1.00  0.00     0.275 HD
ENDBRANCH  14  15
BRANCH  14  19
HETATM   19  C25 UNL     1      -0.953   9.044  43.042  1.00  0.00     0.155 C 
BRANCH  19  20
HETATM   20  C26 UNL     1      -1.953   9.585  43.995  1.00  0.00     0.175 C 
HETATM   21  O5  UNL     1      -2.601   8.828  44.765  1.00  0.00    -0.648 OA
HETATM   22  O6  UNL     1      -2.211  10.944  44.073  1.00  0.00    -0.648 OA
ENDBRANCH  19  20
ENDBRANCH  14  19
ENDBRANCH  10  14
ENDBRANCH   4   6
ENDBRANCH   2   4
ENDBRANCH   1   2
BRANCH   1  23
HETATM   23  C8  UNL     1       6.033  13.856  39.859  1.00  0.00     0.038 C 
BRANCH  23  24
HETATM   24  C9  UNL     1       7.189  13.020  39.244  1.00  0.00    -0.012 C 
HETATM   25  C10 UNL     1       6.624  11.981  38.334  1.00  0.00     0.005 C 
HETATM   26  C11 UNL     1       7.691  11.670  37.283  1.00  0.00     0.000 C 
HETATM   27  C12 UNL     1       7.894  12.833  36.362  1.00  0.00     0.000 C 
HETATM   28  C13 UNL     1       7.549  14.110  37.092  1.00  0.00     0.000 C 
HETATM   29  C14 UNL     1       8.054  14.018  38.504  1.00  0.00     0.005 C 
ENDBRANCH  23  24
ENDBRANCH   1  23
BRANCH   1  30
HETATM   30  C15 UNL     1       3.671  13.673  38.956  1.00  0.00     0.137 C 
BRANCH  30  31
HETATM   31  O1  UNL     1       3.229  14.810  39.436  1.00  0.00    -0.348 OA
ATOM     32  H1  UNL     1       2.301  14.945  39.282  1.00  0.00     0.219 HD
ENDBRANCH  30  31
BRANCH  30  33
HETATM   33  N2  UNL     1       2.990  13.247  37.806  1.00  0.00    -0.354 N 
BRANCH  33  34
HETATM   34  C16 UNL     1       2.899  14.211  36.666  1.00  0.00     0.125 C 
BRANCH  34  35
HETATM   35  C17 UNL     1       4.156  14.318  35.882  1.00  0.00     0.021 C 
BRANCH  35  36
HETATM   36  C18 UNL     1       3.919  15.078  34.572  1.00  0.00     0.021 C 
BRANCH  36  37
HETATM   37  C19 UNL     1       5.184  15.687  34.047  1.00  0.00     0.122 C 
BRANCH  37  38
HETATM   38  N3  UNL     1       5.452  15.277  32.695  1.00  0.00    -0.367 N 
HETATM   39  C20 UNL     1       6.616  14.862  32.303  1.00  0.00     0.196 C 
HETATM   40  N4  UNL     1       6.845  14.463  30.954  1.00  0.00    -0.067 NA
HETATM   41  N5  UNL     1       7.681  14.805  33.242  1.00  0.00    -0.067 NA
ATOM     42  H3  UNL     1       4.694  15.315  32.014  1.00  0.00     0.161 HD
ENDBRANCH  37  38
ENDBRANCH  36  37
ENDBRANCH  35  36
ENDBRANCH  34  35
ENDBRANCH  33  34
BRANCH  33  43
HETATM   43  C21 UNL     1       2.343  11.986  37.602  1.00  0.00     0.237 C 
BRANCH  43  44
HETATM   44  C22 UNL     1       1.403  11.581  38.661  1.00  0.00     0.191 C 
HETATM   45  O2  UNL     1       0.820  10.461  38.486  1.00  0.00    -0.647 OA
HETATM   46  O3  UNL     1       1.139  12.327  39.777  1.00  0.00    -0.647 OA
ENDBRANCH  43  44
ENDBRANCH  33  43
ENDBRANCH  30  33
ENDBRANCH   1  30
TORSDOF 20
ENDMDL
