MODEL 1
REMARK VINA RESULT: -7.249966751      0.000      0.000
REMARK  13 active torsions:
REMARK  status: ('A' for Active; 'I' for Inactive)
REMARK    1  A    between atoms: O1_2  and  C2_3 
REMARK    2  A    between atoms: C4_5  and  C5_6 
REMARK    3  A    between atoms: C4_5  and  C12_21 
REMARK    4  A    between atoms: C6_7  and  C7_8 
REMARK    5  A    between atoms: C9_12  and  C10_13 
REMARK    6  A    between atoms: C10_13  and  C11_16 
REMARK    7  A    between atoms: C12_21  and  O2_22 
REMARK    8  A    between atoms: C14_25  and  C16_27 
REMARK    9  A    between atoms: C16_27  and  C17_28 
REMARK   10  A    between atoms: C17_28  and  O3_29 
REMARK   11  A    between atoms: N2_31  and  O4_33 
REMARK   12  A    between atoms: O4_33  and  C18_34 
REMARK   13  A    between atoms: C18_34  and  C19_35 
REMARK       I    between atoms: C19_35  and  N3_37 
ROOT
HETATM    1  C2  UNL     1      15.032 -18.058  20.306  1.00  0.00     0.136 C 
HETATM    2  C3  UNL     1      15.606 -19.467  20.662  1.00  0.00     0.057 C 
HETATM    3  C4  UNL     1      15.248 -19.511  22.150  1.00  0.00     0.048 C 
HETATM    4  C13 UNL     1      13.994 -18.730  22.258  1.00  0.00     0.042 C 
HETATM    5  C14 UNL     1      13.623 -18.300  20.842  1.00  0.00     0.026 C 
HETATM    6  C15 UNL     1      13.001 -19.388  20.010  1.00  0.00     0.024 C 
ENDROOT
BRANCH   3   7
HETATM    7  C5  UNL     1      16.340 -18.780  22.866  1.00  0.00    -0.088 C 
HETATM    8  C6  UNL     1      17.258 -18.192  23.385  1.00  0.00    -0.057 C 
BRANCH   8   9
HETATM    9  C7  UNL     1      18.373 -17.482  23.950  1.00  0.00     0.075 A 
HETATM   10  C8  UNL     1      19.705 -17.607  23.740  1.00  0.00     0.117 A 
HETATM   11  N1  UNL     1      20.517 -16.837  24.405  1.00  0.00    -0.357 N 
HETATM   12  C9  UNL     1      20.033 -15.956  25.266  1.00  0.00     0.134 A 
ATOM     13  H1  UNL     1      21.524 -16.912  24.262  1.00  0.00     0.165 HD
HETATM   14  S1  UNL     1      18.352 -16.214  25.141  1.00  0.00    -0.060 SA
BRANCH  12  15
HETATM   15  C10 UNL     1      20.720 -14.974  26.159  1.00  0.00     0.387 C 
HETATM   16  F1  UNL     1      21.828 -15.486  26.750  1.00  0.00    -0.188 F 
HETATM   17  F2  UNL     1      19.756 -14.611  27.103  1.00  0.00    -0.188 F 
BRANCH  15  18
HETATM   18  C11 UNL     1      20.997 -13.726  25.315  1.00  0.00     0.461 C 
HETATM   19  F3  UNL     1      22.291 -13.719  24.877  1.00  0.00    -0.165 F 
HETATM   20  F4  UNL     1      20.093 -13.744  24.242  1.00  0.00    -0.165 F 
HETATM   21  F5  UNL     1      20.711 -12.618  26.084  1.00  0.00    -0.165 F 
ENDBRANCH  15  18
ENDBRANCH  12  15
ENDBRANCH   8   9
ENDBRANCH   3   7
BRANCH   3  22
HETATM   22  C12 UNL     1      15.219 -20.901  22.725  1.00  0.00     0.186 C 
BRANCH  22  23
HETATM   23  O2  UNL     1      14.086 -21.375  23.262  1.00  0.00    -0.399 OA
ATOM     24  H2  UNL     1      13.366 -21.628  22.697  1.00  0.00     0.209 HD
ENDBRANCH  22  23
ENDBRANCH   3  22
BRANCH   1  25
HETATM   25  O1  UNL     1      15.665 -17.122  21.057  1.00  0.00    -0.390 OA
HETATM   26  C1  UNL     1      16.313 -16.102  20.387  1.00  0.00     0.202 C 
ENDBRANCH   1  25
BRANCH   5  27
HETATM   27  C16 UNL     1      12.722 -17.147  20.759  1.00  0.00     0.044 C 
HETATM   28  N2  UNL     1      12.957 -16.071  21.365  1.00  0.00    -0.272 N 
ATOM     29  H2  UNL     1      13.811 -16.020  21.922  1.00  0.00     0.193 HD
BRANCH  27  30
HETATM   30  C17 UNL     1      11.493 -17.311  19.953  1.00  0.00     0.219 C 
BRANCH  30  31
HETATM   31  O3  UNL     1      11.485 -16.579  18.776  1.00  0.00    -0.395 OA
ATOM     32  H3  UNL     1      12.347 -16.422  18.410  1.00  0.00     0.209 HD
ENDBRANCH  30  31
ENDBRANCH  27  30
BRANCH  28  33
HETATM   33  O4  UNL     1      12.141 -14.941  21.336  1.00  0.00    -0.271 OA
BRANCH  33  34
HETATM   34  C18 UNL     1      12.580 -13.888  20.461  1.00  0.00     0.304 C 
BRANCH  34  35
HETATM   35  C19 UNL     1      13.863 -13.364  20.916  1.00  0.00     0.246 C 
HETATM   36  O5  UNL     1      14.153 -13.250  22.113  1.00  0.00    -0.271 OA
HETATM   37  N3  UNL     1      14.844 -12.954  19.931  1.00  0.00    -0.346 N 
HETATM   38  C20 UNL     1      14.510 -13.200  18.563  1.00  0.00     0.152 C 
HETATM   39  C23 UNL     1      16.057 -12.311  20.315  1.00  0.00     0.152 C 
HETATM   40  C21 UNL     1      15.611 -12.925  17.605  1.00  0.00     0.187 C 
HETATM   41  O6  UNL     1      16.642 -12.132  18.044  1.00  0.00    -0.388 OA
HETATM   42  C22 UNL     1      17.122 -12.573  19.288  1.00  0.00     0.187 C 
ENDBRANCH  34  35
ENDBRANCH  33  34
ENDBRANCH  28  33
ENDBRANCH   5  27
TORSDOF 13
ENDMDL
MODEL 2
REMARK VINA RESULT: -7.228854032      4.391      8.134
REMARK  13 active torsions:
REMARK  status: ('A' for Active; 'I' for Inactive)
REMARK    1  A    between atoms: O1_2  and  C2_3 
REMARK    2  A    between atoms: C4_5  and  C5_6 
REMARK    3  A    between atoms: C4_5  and  C12_21 
REMARK    4  A    between atoms: C6_7  and  C7_8 
REMARK    5  A    between atoms: C9_12  and  C10_13 
REMARK    6  A    between atoms: C10_13  and  C11_16 
REMARK    7  A    between atoms: C12_21  and  O2_22 
REMARK    8  A    between atoms: C14_25  and  C16_27 
REMARK    9  A    between atoms: C16_27  and  C17_28 
REMARK   10  A    between atoms: C17_28  and  O3_29 
REMARK   11  A    between atoms: N2_31  and  O4_33 
REMARK   12  A    between atoms: O4_33  and  C18_34 
REMARK   13  A    between atoms: C18_34  and  C19_35 
REMARK       I    between atoms: C19_35  and  N3_37 
ROOT
HETATM    1  C2  UNL     1      18.968 -17.578  22.920  1.00  0.00     0.136 C 
HETATM    2  C3  UNL     1      20.164 -16.702  22.427  1.00  0.00     0.057 C 
HETATM    3  C4  UNL     1      19.946 -15.467  23.305  1.00  0.00     0.048 C 
HETATM    4  C13 UNL     1      19.361 -15.998  24.560  1.00  0.00     0.042 C 
HETATM    5  C14 UNL     1      19.304 -17.515  24.408  1.00  0.00     0.026 C 
HETATM    6  C15 UNL     1      20.627 -18.205  24.605  1.00  0.00     0.024 C 
ENDROOT
BRANCH   3   7
HETATM    7  C5  UNL     1      18.920 -14.631  22.607  1.00  0.00    -0.088 C 
HETATM    8  C6  UNL     1      18.047 -14.008  22.054  1.00  0.00    -0.057 C 
BRANCH   8   9
HETATM    9  C7  UNL     1      16.968 -13.303  21.417  1.00  0.00     0.075 A 
HETATM   10  C8  UNL     1      16.967 -12.191  20.643  1.00  0.00     0.117 A 
HETATM   11  N1  UNL     1      15.830 -11.741  20.197  1.00  0.00    -0.357 N 
HETATM   12  C9  UNL     1      14.706 -12.369  20.507  1.00  0.00     0.134 A 
ATOM     13  H1  UNL     1      15.804 -10.907  19.611  1.00  0.00     0.165 HD
HETATM   14  S1  UNL     1      15.267 -13.659  21.471  1.00  0.00    -0.060 SA
BRANCH  12  15
HETATM   15  C10 UNL     1      13.285 -12.072  20.153  1.00  0.00     0.387 C 
HETATM   16  F1  UNL     1      12.465 -13.136  20.329  1.00  0.00    -0.188 F 
HETATM   17  F2  UNL     1      13.324 -11.669  18.816  1.00  0.00    -0.188 F 
BRANCH  15  18
HETATM   18  C11 UNL     1      12.874 -10.841  20.968  1.00  0.00     0.461 C 
HETATM   19  F3  UNL     1      13.753 -10.627  21.993  1.00  0.00    -0.165 F 
HETATM   20  F4  UNL     1      12.845  -9.752  20.084  1.00  0.00    -0.165 F 
HETATM   21  F5  UNL     1      11.590 -11.041  21.429  1.00  0.00    -0.165 F 
ENDBRANCH  15  18
ENDBRANCH  12  15
ENDBRANCH   8   9
ENDBRANCH   3   7
BRANCH   3  22
HETATM   22  C12 UNL     1      21.170 -14.605  23.453  1.00  0.00     0.186 C 
BRANCH  22  23
HETATM   23  O2  UNL     1      22.348 -15.169  23.754  1.00  0.00    -0.399 OA
ATOM     24  H2  UNL     1      23.128 -14.916  23.274  1.00  0.00     0.209 HD
ENDBRANCH  22  23
ENDBRANCH   3  22
BRANCH   1  25
HETATM   25  O1  UNL     1      17.808 -16.919  22.672  1.00  0.00    -0.390 OA
HETATM   26  C1  UNL     1      16.967 -17.451  21.713  1.00  0.00     0.202 C 
ENDBRANCH   1  25
BRANCH   5  27
HETATM   27  C16 UNL     1      18.348 -18.192  25.288  1.00  0.00     0.044 C 
HETATM   28  N2  UNL     1      17.465 -18.969  24.843  1.00  0.00    -0.272 N 
ATOM     29  H2  UNL     1      17.438 -19.123  23.834  1.00  0.00     0.193 HD
BRANCH  27  30
HETATM   30  C17 UNL     1      18.437 -17.895  26.734  1.00  0.00     0.219 C 
BRANCH  30  31
HETATM   31  O3  UNL     1      18.448 -19.019  27.544  1.00  0.00    -0.395 OA
ATOM     32  H3  UNL     1      19.165 -19.043  28.167  1.00  0.00     0.209 HD
ENDBRANCH  30  31
ENDBRANCH  27  30
BRANCH  28  33
HETATM   33  O4  UNL     1      16.521 -19.637  25.621  1.00  0.00    -0.271 OA
BRANCH  33  34
HETATM   34  C18 UNL     1      16.061 -20.891  25.088  1.00  0.00     0.304 C 
BRANCH  34  35
HETATM   35  C19 UNL     1      14.832 -20.690  24.328  1.00  0.00     0.246 C 
HETATM   36  O5  UNL     1      13.753 -20.406  24.862  1.00  0.00    -0.271 OA
HETATM   37  N3  UNL     1      14.866 -20.828  22.886  1.00  0.00    -0.346 N 
HETATM   38  C20 UNL     1      16.151 -21.053  22.302  1.00  0.00     0.152 C 
HETATM   39  C23 UNL     1      13.674 -20.776  22.106  1.00  0.00     0.152 C 
HETATM   40  C21 UNL     1      16.164 -21.015  20.817  1.00  0.00     0.187 C 
HETATM   41  O6  UNL     1      14.960 -21.162  20.175  1.00  0.00    -0.388 OA
HETATM   42  C22 UNL     1      13.992 -20.301  20.716  1.00  0.00     0.187 C 
ENDBRANCH  34  35
ENDBRANCH  33  34
ENDBRANCH  28  33
ENDBRANCH   5  27
TORSDOF 13
ENDMDL
MODEL 3
REMARK VINA RESULT: -7.176717884      2.049      2.795
REMARK  13 active torsions:
REMARK  status: ('A' for Active; 'I' for Inactive)
REMARK    1  A    between atoms: O1_2  and  C2_3 
REMARK    2  A    between atoms: C4_5  and  C5_6 
REMARK    3  A    between atoms: C4_5  and  C12_21 
REMARK    4  A    between atoms: C6_7  and  C7_8 
REMARK    5  A    between atoms: C9_12  and  C10_13 
REMARK    6  A    between atoms: C10_13  and  C11_16 
REMARK    7  A    between atoms: C12_21  and  O2_22 
REMARK    8  A    between atoms: C14_25  and  C16_27 
REMARK    9  A    between atoms: C16_27  and  C17_28 
REMARK   10  A    between atoms: C17_28  and  O3_29 
REMARK   11  A    between atoms: N2_31  and  O4_33 
REMARK   12  A    between atoms: O4_33  and  C18_34 
REMARK   13  A    between atoms: C18_34  and  C19_35 
REMARK       I    between atoms: C19_35  and  N3_37 
ROOT
HETATM    1  C2  UNL     1      16.056 -20.262  22.055  1.00  0.00     0.136 C 
HETATM    2  C3  UNL     1      16.425 -20.990  23.388  1.00  0.00     0.057 C 
HETATM    3  C4  UNL     1      15.649 -20.111  24.373  1.00  0.00     0.048 C 
HETATM    4  C13 UNL     1      14.461 -19.654  23.614  1.00  0.00     0.042 C 
HETATM    5  C14 UNL     1      14.541 -20.312  22.239  1.00  0.00     0.026 C 
HETATM    6  C15 UNL     1      14.129 -21.759  22.224  1.00  0.00     0.024 C 
ENDROOT
BRANCH   3   7
HETATM    7  C5  UNL     1      16.523 -18.932  24.663  1.00  0.00    -0.088 C 
HETATM    8  C6  UNL     1      17.242 -17.976  24.828  1.00  0.00    -0.057 C 
BRANCH   8   9
HETATM    9  C7  UNL     1      18.093 -16.826  24.968  1.00  0.00     0.075 A 
HETATM   10  C8  UNL     1      17.888 -15.524  24.656  1.00  0.00     0.117 A 
HETATM   11  N1  UNL     1      18.847 -14.671  24.873  1.00  0.00    -0.357 N 
HETATM   12  C9  UNL     1      19.994 -15.086  25.387  1.00  0.00     0.134 A 
ATOM     13  H1  UNL     1      18.714 -13.685  24.648  1.00  0.00     0.165 HD
HETATM   14  S1  UNL     1      19.720 -16.758  25.580  1.00  0.00    -0.060 SA
BRANCH  12  15
HETATM   15  C10 UNL     1      21.247 -14.343  25.720  1.00  0.00     0.387 C 
HETATM   16  F1  UNL     1      21.750 -14.676  26.933  1.00  0.00    -0.188 F 
HETATM   17  F2  UNL     1      20.890 -12.993  25.664  1.00  0.00    -0.188 F 
BRANCH  15  18
HETATM   18  C11 UNL     1      22.225 -14.584  24.565  1.00  0.00     0.461 C 
HETATM   19  F3  UNL     1      22.711 -15.860  24.604  1.00  0.00    -0.165 F 
HETATM   20  F4  UNL     1      21.525 -14.339  23.374  1.00  0.00    -0.165 F 
HETATM   21  F5  UNL     1      23.234 -13.649  24.657  1.00  0.00    -0.165 F 
ENDBRANCH  15  18
ENDBRANCH  12  15
ENDBRANCH   8   9
ENDBRANCH   3   7
BRANCH   3  22
HETATM   22  C12 UNL     1      15.379 -20.777  25.696  1.00  0.00     0.186 C 
BRANCH  22  23
HETATM   23  O2  UNL     1      14.137 -21.181  25.995  1.00  0.00    -0.399 OA
ATOM     24  H2  UNL     1      13.662 -21.734  25.386  1.00  0.00     0.209 HD
ENDBRANCH  22  23
ENDBRANCH   3  22
BRANCH   1  25
HETATM   25  O1  UNL     1      16.494 -18.979  22.118  1.00  0.00    -0.390 OA
HETATM   26  C1  UNL     1      17.350 -18.550  21.122  1.00  0.00     0.202 C 
ENDBRANCH   1  25
BRANCH   5  27
HETATM   27  C16 UNL     1      13.767 -19.648  21.187  1.00  0.00     0.044 C 
HETATM   28  N2  UNL     1      13.669 -18.396  21.119  1.00  0.00    -0.272 N 
ATOM     29  H2  UNL     1      14.159 -17.846  21.825  1.00  0.00     0.193 HD
BRANCH  27  30
HETATM   30  C17 UNL     1      13.066 -20.518  20.217  1.00  0.00     0.219 C 
BRANCH  30  31
HETATM   31  O3  UNL     1      11.697 -20.311  20.158  1.00  0.00    -0.395 OA
ATOM     32  H3  UNL     1      11.360 -20.187  19.278  1.00  0.00     0.209 HD
ENDBRANCH  30  31
ENDBRANCH  27  30
BRANCH  28  33
HETATM   33  O4  UNL     1      12.944 -17.702  20.152  1.00  0.00    -0.271 OA
BRANCH  33  34
HETATM   34  C18 UNL     1      12.566 -16.361  20.512  1.00  0.00     0.304 C 
BRANCH  34  35
HETATM   35  C19 UNL     1      13.755 -15.532  20.665  1.00  0.00     0.246 C 
HETATM   36  O5  UNL     1      14.889 -15.924  20.362  1.00  0.00    -0.271 OA
HETATM   37  N3  UNL     1      13.615 -14.190  21.196  1.00  0.00    -0.346 N 
HETATM   38  C20 UNL     1      12.279 -13.741  21.433  1.00  0.00     0.152 C 
HETATM   39  C23 UNL     1      14.753 -13.386  21.492  1.00  0.00     0.152 C 
HETATM   40  C21 UNL     1      12.173 -12.308  21.809  1.00  0.00     0.187 C 
HETATM   41  O6  UNL     1      13.314 -11.691  22.260  1.00  0.00    -0.388 OA
HETATM   42  C22 UNL     1      14.391 -11.931  21.392  1.00  0.00     0.187 C 
ENDBRANCH  34  35
ENDBRANCH  33  34
ENDBRANCH  28  33
ENDBRANCH   5  27
TORSDOF 13
ENDMDL
MODEL 4
REMARK VINA RESULT: -7.157490512      4.254      8.027
REMARK  13 active torsions:
REMARK  status: ('A' for Active; 'I' for Inactive)
REMARK    1  A    between atoms: O1_2  and  C2_3 
REMARK    2  A    between atoms: C4_5  and  C5_6 
REMARK    3  A    between atoms: C4_5  and  C12_21 
REMARK    4  A    between atoms: C6_7  and  C7_8 
REMARK    5  A    between atoms: C9_12  and  C10_13 
REMARK    6  A    between atoms: C10_13  and  C11_16 
REMARK    7  A    between atoms: C12_21  and  O2_22 
REMARK    8  A    between atoms: C14_25  and  C16_27 
REMARK    9  A    between atoms: C16_27  and  C17_28 
REMARK   10  A    between atoms: C17_28  and  O3_29 
REMARK   11  A    between atoms: N2_31  and  O4_33 
REMARK   12  A    between atoms: O4_33  and  C18_34 
REMARK   13  A    between atoms: C18_34  and  C19_35 
REMARK       I    between atoms: C19_35  and  N3_37 
ROOT
HETATM    1  C2  UNL     1      19.592 -17.219  23.358  1.00  0.00     0.136 C 
HETATM    2  C3  UNL     1      20.527 -15.968  23.389  1.00  0.00     0.057 C 
HETATM    3  C4  UNL     1      19.637 -15.013  24.190  1.00  0.00     0.048 C 
HETATM    4  C13 UNL     1      18.877 -15.892  25.109  1.00  0.00     0.042 C 
HETATM    5  C14 UNL     1      19.373 -17.314  24.867  1.00  0.00     0.026 C 
HETATM    6  C15 UNL     1      20.703 -17.619  25.500  1.00  0.00     0.024 C 
ENDROOT
BRANCH   3   7
HETATM    7  C5  UNL     1      18.689 -14.400  23.208  1.00  0.00    -0.088 C 
HETATM    8  C6  UNL     1      17.879 -13.895  22.468  1.00  0.00    -0.057 C 
BRANCH   8   9
HETATM    9  C7  UNL     1      16.887 -13.274  21.634  1.00  0.00     0.075 A 
HETATM   10  C8  UNL     1      17.006 -12.371  20.632  1.00  0.00     0.117 A 
HETATM   11  N1  UNL     1      15.927 -11.950  20.038  1.00  0.00    -0.357 N 
HETATM   12  C9  UNL     1      14.744 -12.406  20.421  1.00  0.00     0.134 A 
ATOM     13  H1  UNL     1      15.993 -11.272  19.279  1.00  0.00     0.165 HD
HETATM   14  S1  UNL     1      15.160 -13.481  21.677  1.00  0.00    -0.060 SA
BRANCH  12  15
HETATM   15  C10 UNL     1      13.366 -12.090  19.936  1.00  0.00     0.387 C 
HETATM   16  F1  UNL     1      12.533 -13.158  19.986  1.00  0.00    -0.188 F 
HETATM   17  F2  UNL     1      13.542 -11.637  18.625  1.00  0.00    -0.188 F 
BRANCH  15  18
HETATM   18  C11 UNL     1      12.874 -10.890  20.750  1.00  0.00     0.461 C 
HETATM   19  F3  UNL     1      12.631  -9.821  19.934  1.00  0.00    -0.165 F 
HETATM   20  F4  UNL     1      11.711 -11.295  21.421  1.00  0.00    -0.165 F 
HETATM   21  F5  UNL     1      13.827 -10.600  21.703  1.00  0.00    -0.165 F 
ENDBRANCH  15  18
ENDBRANCH  12  15
ENDBRANCH   8   9
ENDBRANCH   3   7
BRANCH   3  22
HETATM   22  C12 UNL     1      20.388 -13.874  24.825  1.00  0.00     0.186 C 
BRANCH  22  23
HETATM   23  O2  UNL     1      20.496 -13.812  26.159  1.00  0.00    -0.399 OA
ATOM     24  H2  UNL     1      21.356 -13.818  26.563  1.00  0.00     0.209 HD
ENDBRANCH  22  23
ENDBRANCH   3  22
BRANCH   1  25
HETATM   25  O1  UNL     1      18.432 -16.888  22.736  1.00  0.00    -0.390 OA
HETATM   26  C1  UNL     1      18.158 -17.508  21.532  1.00  0.00     0.202 C 
ENDBRANCH   1  25
BRANCH   5  27
HETATM   27  C16 UNL     1      18.456 -18.373  25.294  1.00  0.00     0.044 C 
HETATM   28  N2  UNL     1      17.287 -18.469  24.838  1.00  0.00    -0.272 N 
ATOM     29  H2  UNL     1      16.994 -17.780  24.146  1.00  0.00     0.193 HD
BRANCH  27  30
HETATM   30  C17 UNL     1      18.949 -19.316  26.321  1.00  0.00     0.219 C 
BRANCH  30  31
HETATM   31  O3  UNL     1      18.191 -19.339  27.481  1.00  0.00    -0.395 OA
ATOM     32  H3  UNL     1      17.354 -18.895  27.407  1.00  0.00     0.209 HD
ENDBRANCH  30  31
ENDBRANCH  27  30
BRANCH  28  33
HETATM   33  O4  UNL     1      16.362 -19.445  25.207  1.00  0.00    -0.271 OA
BRANCH  33  34
HETATM   34  C18 UNL     1      16.083 -20.438  24.204  1.00  0.00     0.304 C 
BRANCH  34  35
HETATM   35  C19 UNL     1      14.705 -20.308  23.745  1.00  0.00     0.246 C 
HETATM   36  O5  UNL     1      13.738 -20.317  24.516  1.00  0.00    -0.271 OA
HETATM   37  N3  UNL     1      14.447 -20.165  22.325  1.00  0.00    -0.346 N 
HETATM   38  C20 UNL     1      15.595 -20.054  21.481  1.00  0.00     0.152 C 
HETATM   39  C23 UNL     1      13.119 -20.170  21.808  1.00  0.00     0.152 C 
HETATM   40  C21 UNL     1      15.285 -19.736  20.064  1.00  0.00     0.187 C 
HETATM   41  O6  UNL     1      14.000 -19.962  19.636  1.00  0.00    -0.388 OA
HETATM   42  C22 UNL     1      13.068 -19.395  20.521  1.00  0.00     0.187 C 
ENDBRANCH  34  35
ENDBRANCH  33  34
ENDBRANCH  28  33
ENDBRANCH   5  27
TORSDOF 13
ENDMDL
MODEL 5
REMARK VINA RESULT: -7.156491885      1.660      2.172
REMARK  13 active torsions:
REMARK  status: ('A' for Active; 'I' for Inactive)
REMARK    1  A    between atoms: O1_2  and  C2_3 
REMARK    2  A    between atoms: C4_5  and  C5_6 
REMARK    3  A    between atoms: C4_5  and  C12_21 
REMARK    4  A    between atoms: C6_7  and  C7_8 
REMARK    5  A    between atoms: C9_12  and  C10_13 
REMARK    6  A    between atoms: C10_13  and  C11_16 
REMARK    7  A    between atoms: C12_21  and  O2_22 
REMARK    8  A    between atoms: C14_25  and  C16_27 
REMARK    9  A    between atoms: C16_27  and  C17_28 
REMARK   10  A    between atoms: C17_28  and  O3_29 
REMARK   11  A    between atoms: N2_31  and  O4_33 
REMARK   12  A    between atoms: O4_33  and  C18_34 
REMARK   13  A    between atoms: C18_34  and  C19_35 
REMARK       I    between atoms: C19_35  and  N3_37 
ROOT
HETATM    1  C2  UNL     1      15.659 -19.687  21.081  1.00  0.00     0.136 C 
HETATM    2  C3  UNL     1      15.968 -20.491  22.385  1.00  0.00     0.057 C 
HETATM    3  C4  UNL     1      15.360 -19.537  23.416  1.00  0.00     0.048 C 
HETATM    4  C13 UNL     1      14.222 -18.900  22.711  1.00  0.00     0.042 C 
HETATM    5  C14 UNL     1      14.160 -19.529  21.322  1.00  0.00     0.026 C 
HETATM    6  C15 UNL     1      13.548 -20.903  21.295  1.00  0.00     0.024 C 
ENDROOT
BRANCH   3   7
HETATM    7  C5  UNL     1      16.401 -18.500  23.694  1.00  0.00    -0.088 C 
HETATM    8  C6  UNL     1      17.193 -17.626  23.952  1.00  0.00    -0.057 C 
BRANCH   8   9
HETATM    9  C7  UNL     1      18.099 -16.565  24.299  1.00  0.00     0.075 A 
HETATM   10  C8  UNL     1      17.977 -15.220  24.189  1.00  0.00     0.117 A 
HETATM   11  N1  UNL     1      18.970 -14.470  24.568  1.00  0.00    -0.357 N 
HETATM   12  C9  UNL     1      20.072 -15.027  25.047  1.00  0.00     0.134 A 
ATOM     13  H1  UNL     1      18.901 -13.455  24.497  1.00  0.00     0.165 HD
HETATM   14  S1  UNL     1      19.700 -16.689  24.966  1.00  0.00    -0.060 SA
BRANCH  12  15
HETATM   15  C10 UNL     1      21.348 -14.421  25.533  1.00  0.00     0.387 C 
HETATM   16  F1  UNL     1      21.768 -14.948  26.708  1.00  0.00    -0.188 F 
HETATM   17  F2  UNL     1      21.075 -13.055  25.651  1.00  0.00    -0.188 F 
BRANCH  15  18
HETATM   18  C11 UNL     1      22.367 -14.565  24.398  1.00  0.00     0.461 C 
HETATM   19  F3  UNL     1      22.846 -15.844  24.341  1.00  0.00    -0.165 F 
HETATM   20  F4  UNL     1      21.714 -14.210  23.209  1.00  0.00    -0.165 F 
HETATM   21  F5  UNL     1      23.377 -13.650  24.610  1.00  0.00    -0.165 F 
ENDBRANCH  15  18
ENDBRANCH  12  15
ENDBRANCH   8   9
ENDBRANCH   3   7
BRANCH   3  22
HETATM   22  C12 UNL     1      15.045 -20.190  24.734  1.00  0.00     0.186 C 
BRANCH  22  23
HETATM   23  O2  UNL     1      13.782 -20.534  25.021  1.00  0.00    -0.399 OA
ATOM     24  H2  UNL     1      13.338 -20.128  25.756  1.00  0.00     0.209 HD
ENDBRANCH  22  23
ENDBRANCH   3  22
BRANCH   1  25
HETATM   25  O1  UNL     1      16.276 -18.480  21.152  1.00  0.00    -0.390 OA
HETATM   26  C1  UNL     1      17.444 -18.320  20.433  1.00  0.00     0.202 C 
ENDBRANCH   1  25
BRANCH   5  27
HETATM   27  C16 UNL     1      13.450 -18.737  20.313  1.00  0.00     0.044 C 
HETATM   28  N2  UNL     1      14.059 -18.028  19.472  1.00  0.00    -0.272 N 
ATOM     29  H2  UNL     1      15.079 -18.024  19.509  1.00  0.00     0.193 HD
BRANCH  27  30
HETATM   30  C17 UNL     1      11.972 -18.777  20.345  1.00  0.00     0.219 C 
BRANCH  30  31
HETATM   31  O3  UNL     1      11.374 -17.532  20.461  1.00  0.00    -0.395 OA
ATOM     32  H3  UNL     1      10.594 -17.425  19.930  1.00  0.00     0.209 HD
ENDBRANCH  30  31
ENDBRANCH  27  30
BRANCH  28  33
HETATM   33  O4  UNL     1      13.448 -17.246  18.494  1.00  0.00    -0.271 OA
BRANCH  33  34
HETATM   34  C18 UNL     1      14.112 -16.005  18.194  1.00  0.00     0.304 C 
BRANCH  34  35
HETATM   35  C19 UNL     1      13.468 -14.910  18.911  1.00  0.00     0.246 C 
HETATM   36  O5  UNL     1      12.270 -14.924  19.220  1.00  0.00    -0.271 OA
HETATM   37  N3  UNL     1      14.256 -13.751  19.280  1.00  0.00    -0.346 N 
HETATM   38  C20 UNL     1      15.656 -13.821  18.998  1.00  0.00     0.152 C 
HETATM   39  C23 UNL     1      13.653 -12.597  19.860  1.00  0.00     0.152 C 
HETATM   40  C21 UNL     1      16.448 -12.692  19.546  1.00  0.00     0.187 C 
HETATM   41  O6  UNL     1      15.762 -11.556  19.899  1.00  0.00    -0.388 OA
HETATM   42  C22 UNL     1      14.657 -11.867  20.707  1.00  0.00     0.187 C 
ENDBRANCH  34  35
ENDBRANCH  33  34
ENDBRANCH  28  33
ENDBRANCH   5  27
TORSDOF 13
ENDMDL
