MODEL 1
REMARK VINA RESULT: -8.912432840      0.000      0.000
REMARK  10 active torsions:
REMARK  status: ('A' for Active; 'I' for Inactive)
REMARK    1  A    between atoms: C2_2  and  O1_3 
REMARK    2  A    between atoms: O1_3  and  C3_4 
REMARK    3  A    between atoms: C4_5  and  O2_6 
REMARK    4  A    between atoms: C5_8  and  O3_9 
REMARK    5  A    between atoms: O3_9  and  C6_10 
REMARK    6  A    between atoms: C6_10  and  C7_11 
REMARK    7  A    between atoms: C7_11  and  N1_12 
REMARK    8  A    between atoms: N2_15  and  C10_16 
REMARK    9  A    between atoms: C11_19  and  C12_20 
REMARK   10  A    between atoms: C15_29  and  N7_30 
ROOT
HETATM    1  C10 UNL     1      14.140 -16.644  20.860  1.00  0.00     0.696 A 
HETATM    2  N3  UNL     1      13.362 -17.224  19.933  1.00  0.00    -0.175 N 
ATOM      3  H3  UNL     1      13.524 -18.205  19.707  1.00  0.00     0.186 HD
HETATM    4  C11 UNL     1      12.381 -16.574  19.289  1.00  0.00     0.149 A 
HETATM    5  N6  UNL     1      12.182 -15.283  19.598  1.00  0.00    -0.175 N 
ATOM      6  H6  UNL     1      11.441 -14.769  19.121  1.00  0.00     0.186 HD
HETATM    7  C15 UNL     1      12.931 -14.642  20.524  1.00  0.00     0.696 A 
HETATM    8  N8  UNL     1      13.890 -15.344  21.129  1.00  0.00    -0.022 N 
ATOM      9  H8  UNL     1      14.465 -14.875  21.830  1.00  0.00     0.203 HD
ENDROOT
BRANCH   1  10
HETATM   10  N2  UNL     1      15.165 -17.365  21.531  1.00  0.00    -0.211 N 
HETATM   11  C9  UNL     1      14.825 -18.514  22.333  1.00  0.00     0.186 C 
HETATM   12  C8  UNL     1      16.045 -19.188  22.896  1.00  0.00     0.084 C 
HETATM   13  N1  UNL     1      16.957 -18.300  23.461  1.00  0.00    -0.365 N 
HETATM   14  C23 UNL     1      17.081 -16.994  22.870  1.00  0.00     0.147 C 
HETATM   15  C22 UNL     1      16.541 -16.984  21.435  1.00  0.00     0.161 C 
BRANCH  13  16
HETATM   16  C7  UNL     1      18.146 -18.748  24.053  1.00  0.00     0.114 C 
BRANCH  16  17
HETATM   17  C6  UNL     1      19.300 -17.851  24.195  1.00  0.00     0.152 C 
BRANCH  17  18
HETATM   18  O3  UNL     1      19.669 -17.297  25.367  1.00  0.00    -0.351 OA
BRANCH  18  19
HETATM   19  C5  UNL     1      20.741 -16.429  25.353  1.00  0.00     0.199 C 
HETATM   20  C4  UNL     1      21.085 -16.053  23.897  1.00  0.00     0.185 C 
HETATM   21  C3  UNL     1      20.829 -14.581  23.746  1.00  0.00     0.227 C 
HETATM   22  C25 UNL     1      21.120 -14.062  25.146  1.00  0.00     0.304 C 
HETATM   23  C24 UNL     1      20.400 -15.122  25.974  1.00  0.00     0.276 C 
HETATM   24  F2  UNL     1      20.570 -12.812  25.327  1.00  0.00    -0.200 F 
HETATM   25  F3  UNL     1      22.459 -14.013  25.387  1.00  0.00    -0.200 F 
HETATM   26  F1  UNL     1      19.037 -14.815  25.843  1.00  0.00    -0.240 F 
BRANCH  20  27
HETATM   27  O2  UNL     1      22.452 -16.249  23.736  1.00  0.00    -0.390 OA
ATOM     28  H2  UNL     1      22.745 -16.781  24.466  1.00  0.00     0.210 HD
ENDBRANCH  20  27
BRANCH  21  29
HETATM   29  O1  UNL     1      19.499 -14.355  23.411  1.00  0.00    -0.377 OA
BRANCH  29  30
HETATM   30  C2  UNL     1      19.352 -14.247  22.028  1.00  0.00     0.164 C 
HETATM   31  C1  UNL     1      18.166 -13.425  21.639  1.00  0.00     0.033 C 
ENDBRANCH  29  30
ENDBRANCH  21  29
ENDBRANCH  18  19
ENDBRANCH  17  18
ENDBRANCH  16  17
ENDBRANCH  13  16
ENDBRANCH   1  10
BRANCH   4  32
HETATM   32  C12 UNL     1      11.586 -17.280  18.294  1.00  0.00     0.043 A 
HETATM   33  C13 UNL     1      11.874 -18.490  17.709  1.00  0.00     0.123 A 
HETATM   34  N4  UNL     1      10.879 -18.795  16.837  1.00  0.00    -0.311 N 
HETATM   35  N5  UNL     1       9.965 -17.812  16.852  1.00  0.00    -0.311 N 
ATOM     36  H4  UNL     1      10.833 -19.636  16.262  1.00  0.00     0.186 HD
HETATM   37  C14 UNL     1      10.384 -16.890  17.730  1.00  0.00     0.123 A 
ATOM     38  H5  UNL     1       9.109 -17.774  16.297  1.00  0.00     0.186 HD
ENDBRANCH   4  32
BRANCH   7  39
HETATM   39  N7  UNL     1      12.679 -13.266  20.825  1.00  0.00    -0.217 N 
HETATM   40  C16 UNL     1      13.357 -12.231  20.075  1.00  0.00     0.141 C 
HETATM   41  C17 UNL     1      13.039 -10.854  20.615  1.00  0.00     0.025 C 
HETATM   42  C18 UNL     1      13.143 -10.812  22.125  1.00  0.00    -0.007 A 
HETATM   43  C19 UNL     1      11.843 -10.453  22.813  1.00  0.00     0.011 A 
HETATM   44  C20 UNL     1      12.342 -11.850  22.803  1.00  0.00     0.009 A 
HETATM   45  C21 UNL     1      11.766 -12.873  21.854  1.00  0.00     0.146 C 
ENDBRANCH   7  39
TORSDOF 10
ENDMDL
MODEL 2
REMARK VINA RESULT: -8.832346838      0.730      1.088
REMARK  10 active torsions:
REMARK  status: ('A' for Active; 'I' for Inactive)
REMARK    1  A    between atoms: C2_2  and  O1_3 
REMARK    2  A    between atoms: O1_3  and  C3_4 
REMARK    3  A    between atoms: C4_5  and  O2_6 
REMARK    4  A    between atoms: C5_8  and  O3_9 
REMARK    5  A    between atoms: O3_9  and  C6_10 
REMARK    6  A    between atoms: C6_10  and  C7_11 
REMARK    7  A    between atoms: C7_11  and  N1_12 
REMARK    8  A    between atoms: N2_15  and  C10_16 
REMARK    9  A    between atoms: C11_19  and  C12_20 
REMARK   10  A    between atoms: C15_29  and  N7_30 
ROOT
HETATM    1  C10 UNL     1      14.490 -16.993  21.429  1.00  0.00     0.696 A 
HETATM    2  N3  UNL     1      13.638 -17.520  20.536  1.00  0.00    -0.175 N 
ATOM      3  H3  UNL     1      13.758 -18.496  20.267  1.00  0.00     0.186 HD
HETATM    4  C11 UNL     1      12.636 -16.823  19.980  1.00  0.00     0.149 A 
HETATM    5  N6  UNL     1      12.493 -15.539  20.345  1.00  0.00    -0.175 N 
ATOM      6  H6  UNL     1      11.738 -14.990  19.935  1.00  0.00     0.186 HD
HETATM    7  C15 UNL     1      13.319 -14.951  21.241  1.00  0.00     0.696 A 
HETATM    8  N8  UNL     1      14.295 -15.698  21.757  1.00  0.00    -0.022 N 
ATOM      9  H8  UNL     1      14.926 -15.269  22.434  1.00  0.00     0.203 HD
ENDROOT
BRANCH   1  10
HETATM   10  N2  UNL     1      15.537 -17.763  22.007  1.00  0.00    -0.211 N 
HETATM   11  C9  UNL     1      15.228 -18.755  23.006  1.00  0.00     0.186 C 
HETATM   12  C8  UNL     1      16.449 -19.518  23.439  1.00  0.00     0.084 C 
HETATM   13  N1  UNL     1      17.545 -18.701  23.709  1.00  0.00    -0.365 N 
HETATM   14  C23 UNL     1      17.699 -17.502  22.931  1.00  0.00     0.147 C 
HETATM   15  C22 UNL     1      16.904 -17.586  21.623  1.00  0.00     0.161 C 
BRANCH  13  16
HETATM   16  C7  UNL     1      18.766 -19.234  24.144  1.00  0.00     0.114 C 
BRANCH  16  17
HETATM   17  C6  UNL     1      19.929 -18.366  24.367  1.00  0.00     0.152 C 
BRANCH  17  18
HETATM   18  O3  UNL     1      20.016 -17.491  25.389  1.00  0.00    -0.351 OA
BRANCH  18  19
HETATM   19  C5  UNL     1      20.994 -16.521  25.317  1.00  0.00     0.199 C 
HETATM   20  C4  UNL     1      21.195 -16.096  23.848  1.00  0.00     0.185 C 
HETATM   21  C3  UNL     1      20.786 -14.655  23.743  1.00  0.00     0.227 C 
HETATM   22  C25 UNL     1      21.123 -14.126  25.128  1.00  0.00     0.304 C 
HETATM   23  C24 UNL     1      20.571 -15.263  25.984  1.00  0.00     0.276 C 
HETATM   24  F2  UNL     1      20.467 -12.939  25.370  1.00  0.00    -0.200 F 
HETATM   25  F3  UNL     1      22.464 -13.947  25.277  1.00  0.00    -0.200 F 
HETATM   26  F1  UNL     1      19.179 -15.091  25.955  1.00  0.00    -0.240 F 
BRANCH  20  27
HETATM   27  O2  UNL     1      22.559 -16.153  23.587  1.00  0.00    -0.390 OA
ATOM     28  H2  UNL     1      22.736 -17.010  23.218  1.00  0.00     0.210 HD
ENDBRANCH  20  27
BRANCH  21  29
HETATM   29  O1  UNL     1      19.419 -14.558  23.505  1.00  0.00    -0.377 OA
BRANCH  29  30
HETATM   30  C2  UNL     1      19.173 -14.246  22.168  1.00  0.00     0.164 C 
HETATM   31  C1  UNL     1      17.747 -13.875  21.918  1.00  0.00     0.033 C 
ENDBRANCH  29  30
ENDBRANCH  21  29
ENDBRANCH  18  19
ENDBRANCH  17  18
ENDBRANCH  16  17
ENDBRANCH  13  16
ENDBRANCH   1  10
BRANCH   4  32
HETATM   32  C12 UNL     1      11.759 -17.473  19.016  1.00  0.00     0.043 A 
HETATM   33  C13 UNL     1      11.541 -18.822  18.872  1.00  0.00     0.123 A 
HETATM   34  N4  UNL     1      10.655 -19.010  17.861  1.00  0.00    -0.311 N 
HETATM   35  N5  UNL     1      10.302 -17.817  17.358  1.00  0.00    -0.311 N 
ATOM     36  H4  UNL     1      10.312 -19.914  17.535  1.00  0.00     0.186 HD
HETATM   37  C14 UNL     1      10.966 -16.879  18.050  1.00  0.00     0.123 A 
ATOM     38  H5  UNL     1       9.650 -17.653  16.590  1.00  0.00     0.186 HD
ENDBRANCH   4  32
BRANCH   7  39
HETATM   39  N7  UNL     1      13.125 -13.581  21.604  1.00  0.00    -0.217 N 
HETATM   40  C16 UNL     1      11.853 -13.155  22.150  1.00  0.00     0.141 C 
HETATM   41  C17 UNL     1      11.814 -11.658  22.366  1.00  0.00     0.025 C 
HETATM   42  C18 UNL     1      12.350 -10.909  21.165  1.00  0.00    -0.007 A 
HETATM   43  C19 UNL     1      13.570 -10.066  21.470  1.00  0.00     0.011 A 
HETATM   44  C20 UNL     1      13.693 -11.353  20.741  1.00  0.00     0.009 A 
HETATM   45  C21 UNL     1      14.157 -12.603  21.447  1.00  0.00     0.146 C 
ENDBRANCH   7  39
TORSDOF 10
ENDMDL
MODEL 3
REMARK VINA RESULT: -8.827705289      3.677      8.257
REMARK  10 active torsions:
REMARK  status: ('A' for Active; 'I' for Inactive)
REMARK    1  A    between atoms: C2_2  and  O1_3 
REMARK    2  A    between atoms: O1_3  and  C3_4 
REMARK    3  A    between atoms: C4_5  and  O2_6 
REMARK    4  A    between atoms: C5_8  and  O3_9 
REMARK    5  A    between atoms: O3_9  and  C6_10 
REMARK    6  A    between atoms: C6_10  and  C7_11 
REMARK    7  A    between atoms: C7_11  and  N1_12 
REMARK    8  A    between atoms: N2_15  and  C10_16 
REMARK    9  A    between atoms: C11_19  and  C12_20 
REMARK   10  A    between atoms: C15_29  and  N7_30 
ROOT
HETATM    1  C10 UNL     1      16.819 -17.747  23.439  1.00  0.00     0.696 A 
HETATM    2  N3  UNL     1      16.596 -18.766  24.283  1.00  0.00    -0.175 N 
ATOM      3  H3  UNL     1      15.843 -19.419  24.069  1.00  0.00     0.186 HD
HETATM    4  C11 UNL     1      17.318 -18.966  25.397  1.00  0.00     0.149 A 
HETATM    5  N6  UNL     1      18.305 -18.096  25.664  1.00  0.00    -0.175 N 
ATOM      6  H6  UNL     1      18.866 -18.228  26.505  1.00  0.00     0.186 HD
HETATM    7  C15 UNL     1      18.579 -17.049  24.852  1.00  0.00     0.696 A 
HETATM    8  N8  UNL     1      17.826 -16.906  23.761  1.00  0.00    -0.022 N 
ATOM      9  H8  UNL     1      18.021 -16.122  23.138  1.00  0.00     0.203 HD
ENDROOT
BRANCH   1  10
HETATM   10  N2  UNL     1      16.042 -17.569  22.262  1.00  0.00    -0.211 N 
HETATM   11  C9  UNL     1      16.583 -16.824  21.153  1.00  0.00     0.186 C 
HETATM   12  C8  UNL     1      15.650 -16.811  19.974  1.00  0.00     0.084 C 
HETATM   13  N1  UNL     1      14.330 -16.522  20.316  1.00  0.00    -0.365 N 
HETATM   14  C23 UNL     1      13.850 -16.977  21.593  1.00  0.00     0.147 C 
HETATM   15  C22 UNL     1      14.724 -18.113  22.139  1.00  0.00     0.161 C 
BRANCH  13  16
HETATM   16  C7  UNL     1      13.321 -16.448  19.346  1.00  0.00     0.114 C 
BRANCH  16  17
HETATM   17  C6  UNL     1      12.600 -15.192  19.105  1.00  0.00     0.152 C 
BRANCH  17  18
HETATM   18  O3  UNL     1      13.189 -13.980  19.138  1.00  0.00    -0.351 OA
BRANCH  18  19
HETATM   19  C5  UNL     1      13.173 -13.296  20.336  1.00  0.00     0.199 C 
HETATM   20  C4  UNL     1      14.567 -13.368  20.993  1.00  0.00     0.185 C 
HETATM   21  C3  UNL     1      15.108 -11.968  21.041  1.00  0.00     0.227 C 
HETATM   22  C25 UNL     1      13.839 -11.140  21.170  1.00  0.00     0.304 C 
HETATM   23  C24 UNL     1      12.963 -11.839  20.135  1.00  0.00     0.276 C 
HETATM   24  F2  UNL     1      14.077  -9.825  20.833  1.00  0.00    -0.200 F 
HETATM   25  F3  UNL     1      13.332 -11.205  22.432  1.00  0.00    -0.200 F 
HETATM   26  F1  UNL     1      13.453 -11.400  18.895  1.00  0.00    -0.240 F 
BRANCH  20  27
HETATM   27  O2  UNL     1      14.379 -13.777  22.308  1.00  0.00    -0.390 OA
ATOM     28  H2  UNL     1      14.526 -14.716  22.331  1.00  0.00     0.210 HD
ENDBRANCH  20  27
BRANCH  21  29
HETATM   29  O1  UNL     1      15.766 -11.665  19.854  1.00  0.00    -0.377 OA
BRANCH  29  30
HETATM   30  C2  UNL     1      16.741 -12.623  19.573  1.00  0.00     0.164 C 
HETATM   31  C1  UNL     1      17.940 -12.497  20.456  1.00  0.00     0.033 C 
ENDBRANCH  29  30
ENDBRANCH  21  29
ENDBRANCH  18  19
ENDBRANCH  17  18
ENDBRANCH  16  17
ENDBRANCH  13  16
ENDBRANCH   1  10
BRANCH   4  32
HETATM   32  C12 UNL     1      17.006 -20.097  26.259  1.00  0.00     0.043 A 
HETATM   33  C13 UNL     1      17.847 -20.713  27.156  1.00  0.00     0.123 A 
HETATM   34  N4  UNL     1      17.169 -21.723  27.758  1.00  0.00    -0.311 N 
HETATM   35  N5  UNL     1      15.920 -21.767  27.270  1.00  0.00    -0.311 N 
ATOM     36  H4  UNL     1      17.549 -22.349  28.468  1.00  0.00     0.186 HD
HETATM   37  C14 UNL     1      15.811 -20.787  26.362  1.00  0.00     0.123 A 
ATOM     38  H5  UNL     1      15.188 -22.425  27.541  1.00  0.00     0.186 HD
ENDBRANCH   4  32
BRANCH   7  39
HETATM   39  N7  UNL     1      19.645 -16.151  25.174  1.00  0.00    -0.217 N 
HETATM   40  C16 UNL     1      19.516 -15.260  26.307  1.00  0.00     0.141 C 
HETATM   41  C17 UNL     1      20.697 -14.321  26.414  1.00  0.00     0.025 C 
HETATM   42  C18 UNL     1      21.042 -13.708  25.073  1.00  0.00    -0.007 A 
HETATM   43  C19 UNL     1      22.437 -14.046  24.593  1.00  0.00     0.011 A 
HETATM   44  C20 UNL     1      21.245 -14.703  24.002  1.00  0.00     0.009 A 
HETATM   45  C21 UNL     1      20.851 -16.103  24.406  1.00  0.00     0.146 C 
ENDBRANCH   7  39
TORSDOF 10
ENDMDL
MODEL 4
REMARK VINA RESULT: -8.687008954      1.341      1.781
REMARK  10 active torsions:
REMARK  status: ('A' for Active; 'I' for Inactive)
REMARK    1  A    between atoms: C2_2  and  O1_3 
REMARK    2  A    between atoms: O1_3  and  C3_4 
REMARK    3  A    between atoms: C4_5  and  O2_6 
REMARK    4  A    between atoms: C5_8  and  O3_9 
REMARK    5  A    between atoms: O3_9  and  C6_10 
REMARK    6  A    between atoms: C6_10  and  C7_11 
REMARK    7  A    between atoms: C7_11  and  N1_12 
REMARK    8  A    between atoms: N2_15  and  C10_16 
REMARK    9  A    between atoms: C11_19  and  C12_20 
REMARK   10  A    between atoms: C15_29  and  N7_30 
ROOT
HETATM    1  C10 UNL     1      14.613 -17.113  21.155  1.00  0.00     0.696 A 
HETATM    2  N3  UNL     1      13.814 -17.565  20.176  1.00  0.00    -0.175 N 
ATOM      3  H3  UNL     1      13.956 -18.515  19.833  1.00  0.00     0.186 HD
HETATM    4  C11 UNL     1      12.837 -16.827  19.629  1.00  0.00     0.149 A 
HETATM    5  N6  UNL     1      12.664 -15.579  20.093  1.00  0.00    -0.175 N 
ATOM      6  H6  UNL     1      11.927 -15.000  19.691  1.00  0.00     0.186 HD
HETATM    7  C15 UNL     1      13.436 -15.066  21.078  1.00  0.00     0.696 A 
HETATM    8  N8  UNL     1      14.390 -15.851  21.581  1.00  0.00    -0.022 N 
ATOM      9  H8  UNL     1      14.981 -15.478  22.324  1.00  0.00     0.203 HD
ENDROOT
BRANCH   1  10
HETATM   10  N2  UNL     1      15.634 -17.925  21.720  1.00  0.00    -0.211 N 
HETATM   11  C9  UNL     1      15.660 -18.155  23.143  1.00  0.00     0.186 C 
HETATM   12  C8  UNL     1      16.761 -19.098  23.541  1.00  0.00     0.084 C 
HETATM   13  N1  UNL     1      17.986 -18.799  22.951  1.00  0.00    -0.365 N 
HETATM   14  C23 UNL     1      17.977 -18.243  21.624  1.00  0.00     0.147 C 
HETATM   15  C22 UNL     1      16.649 -18.531  20.914  1.00  0.00     0.161 C 
BRANCH  13  16
HETATM   16  C7  UNL     1      19.134 -19.558  23.218  1.00  0.00     0.114 C 
BRANCH  16  17
HETATM   17  C6  UNL     1      20.428 -18.907  23.457  1.00  0.00     0.152 C 
BRANCH  17  18
HETATM   18  O3  UNL     1      20.581 -17.830  24.254  1.00  0.00    -0.351 OA
BRANCH  18  19
HETATM   19  C5  UNL     1      21.198 -16.721  23.715  1.00  0.00     0.199 C 
HETATM   20  C4  UNL     1      20.135 -15.772  23.125  1.00  0.00     0.185 C 
HETATM   21  C3  UNL     1      20.180 -14.502  23.925  1.00  0.00     0.227 C 
HETATM   22  C25 UNL     1      21.641 -14.441  24.344  1.00  0.00     0.304 C 
HETATM   23  C24 UNL     1      21.855 -15.894  24.760  1.00  0.00     0.276 C 
HETATM   24  F2  UNL     1      21.809 -13.576  25.404  1.00  0.00    -0.200 F 
HETATM   25  F3  UNL     1      22.438 -14.059  23.309  1.00  0.00    -0.200 F 
HETATM   26  F1  UNL     1      21.215 -16.009  26.004  1.00  0.00    -0.240 F 
BRANCH  20  27
HETATM   27  O2  UNL     1      20.540 -15.455  21.833  1.00  0.00    -0.390 OA
ATOM     28  H2  UNL     1      19.971 -15.930  21.239  1.00  0.00     0.210 HD
ENDBRANCH  20  27
BRANCH  21  29
HETATM   29  O1  UNL     1      19.358 -14.606  25.042  1.00  0.00    -0.377 OA
BRANCH  29  30
HETATM   30  C2  UNL     1      18.152 -15.222  24.709  1.00  0.00     0.164 C 
HETATM   31  C1  UNL     1      17.688 -16.180  25.758  1.00  0.00     0.033 C 
ENDBRANCH  29  30
ENDBRANCH  21  29
ENDBRANCH  18  19
ENDBRANCH  17  18
ENDBRANCH  16  17
ENDBRANCH  13  16
ENDBRANCH   1  10
BRANCH   4  32
HETATM   32  C12 UNL     1      12.017 -17.396  18.568  1.00  0.00     0.043 A 
HETATM   33  C13 UNL     1      12.316 -18.484  17.782  1.00  0.00     0.123 A 
HETATM   34  N4  UNL     1      11.289 -18.685  16.917  1.00  0.00    -0.311 N 
HETATM   35  N5  UNL     1      10.345 -17.756  17.131  1.00  0.00    -0.311 N 
ATOM     36  H4  UNL     1      11.243 -19.425  16.216  1.00  0.00     0.186 HD
HETATM   37  C14 UNL     1      10.776 -16.970  18.128  1.00  0.00     0.123 A 
ATOM     38  H5  UNL     1       9.462 -17.664  16.627  1.00  0.00     0.186 HD
ENDBRANCH   4  32
BRANCH   7  39
HETATM   39  N7  UNL     1      13.212 -13.733  21.545  1.00  0.00    -0.217 N 
HETATM   40  C16 UNL     1      11.958 -13.398  22.187  1.00  0.00     0.141 C 
HETATM   41  C17 UNL     1      11.875 -11.921  22.508  1.00  0.00     0.025 C 
HETATM   42  C18 UNL     1      12.314 -11.073  21.334  1.00  0.00    -0.007 A 
HETATM   43  C19 UNL     1      13.516 -10.202  21.630  1.00  0.00     0.011 A 
HETATM   44  C20 UNL     1      13.646 -11.431  20.809  1.00  0.00     0.009 A 
HETATM   45  C21 UNL     1      14.196 -12.705  21.400  1.00  0.00     0.146 C 
ENDBRANCH   7  39
TORSDOF 10
ENDMDL
MODEL 5
REMARK VINA RESULT: -8.468235746      3.527      8.349
REMARK  10 active torsions:
REMARK  status: ('A' for Active; 'I' for Inactive)
REMARK    1  A    between atoms: C2_2  and  O1_3 
REMARK    2  A    between atoms: O1_3  and  C3_4 
REMARK    3  A    between atoms: C4_5  and  O2_6 
REMARK    4  A    between atoms: C5_8  and  O3_9 
REMARK    5  A    between atoms: O3_9  and  C6_10 
REMARK    6  A    between atoms: C6_10  and  C7_11 
REMARK    7  A    between atoms: C7_11  and  N1_12 
REMARK    8  A    between atoms: N2_15  and  C10_16 
REMARK    9  A    between atoms: C11_19  and  C12_20 
REMARK   10  A    between atoms: C15_29  and  N7_30 
ROOT
HETATM    1  C10 UNL     1      16.859 -18.100  23.534  1.00  0.00     0.696 A 
HETATM    2  N3  UNL     1      16.646 -19.087  24.417  1.00  0.00    -0.175 N 
ATOM      3  H3  UNL     1      15.918 -19.771  24.215  1.00  0.00     0.186 HD
HETATM    4  C11 UNL     1      17.346 -19.216  25.555  1.00  0.00     0.149 A 
HETATM    5  N6  UNL     1      18.300 -18.305  25.805  1.00  0.00    -0.175 N 
ATOM      6  H6  UNL     1      18.845 -18.383  26.664  1.00  0.00     0.186 HD
HETATM    7  C15 UNL     1      18.564 -17.288  24.954  1.00  0.00     0.696 A 
HETATM    8  N8  UNL     1      17.834 -17.216  23.840  1.00  0.00    -0.022 N 
ATOM      9  H8  UNL     1      18.020 -16.455  23.187  1.00  0.00     0.203 HD
ENDROOT
BRANCH   1  10
HETATM   10  N2  UNL     1      16.106 -17.998  22.332  1.00  0.00    -0.211 N 
HETATM   11  C9  UNL     1      16.699 -17.394  21.165  1.00  0.00     0.186 C 
HETATM   12  C8  UNL     1      15.781 -17.448  19.975  1.00  0.00     0.084 C 
HETATM   13  N1  UNL     1      14.475 -17.059  20.266  1.00  0.00    -0.365 N 
HETATM   14  C23 UNL     1      13.957 -17.362  21.574  1.00  0.00     0.147 C 
HETATM   15  C22 UNL     1      14.763 -18.483  22.241  1.00  0.00     0.161 C 
BRANCH  13  16
HETATM   16  C7  UNL     1      13.482 -17.028  19.277  1.00  0.00     0.114 C 
BRANCH  16  17
HETATM   17  C6  UNL     1      12.782 -15.779  18.952  1.00  0.00     0.152 C 
BRANCH  17  18
HETATM   18  O3  UNL     1      12.867 -14.664  19.705  1.00  0.00    -0.351 OA
BRANCH  18  19
HETATM   19  C5  UNL     1      13.841 -13.745  19.376  1.00  0.00     0.199 C 
HETATM   20  C4  UNL     1      13.325 -12.319  19.659  1.00  0.00     0.185 C 
HETATM   21  C3  UNL     1      14.184 -11.744  20.749  1.00  0.00     0.227 C 
HETATM   22  C25 UNL     1      15.516 -12.436  20.504  1.00  0.00     0.304 C 
HETATM   23  C24 UNL     1      15.030 -13.862  20.261  1.00  0.00     0.276 C 
HETATM   24  F2  UNL     1      16.321 -12.354  21.620  1.00  0.00    -0.200 F 
HETATM   25  F3  UNL     1      16.162 -11.901  19.432  1.00  0.00    -0.200 F 
HETATM   26  F1  UNL     1      14.696 -14.349  21.534  1.00  0.00    -0.240 F 
BRANCH  20  27
HETATM   27  O2  UNL     1      13.559 -11.565  18.515  1.00  0.00    -0.390 OA
ATOM     28  H2  UNL     1      12.748 -11.115  18.308  1.00  0.00     0.210 HD
ENDBRANCH  20  27
BRANCH  21  29
HETATM   29  O1  UNL     1      13.677 -12.093  21.996  1.00  0.00    -0.377 OA
BRANCH  29  30
HETATM   30  C2  UNL     1      12.336 -11.727  22.102  1.00  0.00     0.164 C 
HETATM   31  C1  UNL     1      12.124 -10.594  23.054  1.00  0.00     0.033 C 
ENDBRANCH  29  30
ENDBRANCH  21  29
ENDBRANCH  18  19
ENDBRANCH  17  18
ENDBRANCH  16  17
ENDBRANCH  13  16
ENDBRANCH   1  10
BRANCH   4  32
HETATM   32  C12 UNL     1      17.046 -20.316  26.460  1.00  0.00     0.043 A 
HETATM   33  C13 UNL     1      15.846 -20.971  26.602  1.00  0.00     0.123 A 
HETATM   34  N4  UNL     1      15.988 -21.932  27.550  1.00  0.00    -0.311 N 
HETATM   35  N5  UNL     1      17.246 -21.907  28.015  1.00  0.00    -0.311 N 
ATOM     36  H4  UNL     1      15.255 -22.570  27.859  1.00  0.00     0.186 HD
HETATM   37  C14 UNL     1      17.895 -20.932  27.363  1.00  0.00     0.123 A 
ATOM     38  H5  UNL     1      17.637 -22.518  28.733  1.00  0.00     0.186 HD
ENDBRANCH   4  32
BRANCH   7  39
HETATM   39  N7  UNL     1      19.595 -16.344  25.260  1.00  0.00    -0.217 N 
HETATM   40  C16 UNL     1      19.392 -15.376  26.316  1.00  0.00     0.141 C 
HETATM   41  C17 UNL     1      20.548 -14.405  26.410  1.00  0.00     0.025 C 
HETATM   42  C18 UNL     1      20.948 -13.885  25.045  1.00  0.00    -0.007 A 
HETATM   43  C19 UNL     1      22.372 -14.224  24.659  1.00  0.00     0.011 A 
HETATM   44  C20 UNL     1      21.223 -14.950  24.062  1.00  0.00     0.009 A 
HETATM   45  C21 UNL     1      20.837 -16.325  24.550  1.00  0.00     0.146 C 
ENDBRANCH   7  39
TORSDOF 10
ENDMDL
