MODEL 1
REMARK VINA RESULT: -8.586498737      0.000      0.000
REMARK  13 active torsions:
REMARK  status: ('A' for Active; 'I' for Inactive)
REMARK    1  A    between atoms: C2_2  and  C3_4 
REMARK    2  A    between atoms: C7_10  and  C8_11 
REMARK    3  A    between atoms: C8_11  and  O4_12 
REMARK    4  A    between atoms: O4_12  and  C9_13 
REMARK    5  A    between atoms: C9_13  and  C10_15 
REMARK    6  A    between atoms: C10_15  and  C11_16 
REMARK    7  A    between atoms: C11_16  and  C12_17 
REMARK    8  A    between atoms: C12_17  and  O6_18 
REMARK    9  A    between atoms: O6_18  and  S1_19 
REMARK   10  A    between atoms: S1_19  and  C13_22 
REMARK   11  A    between atoms: C14_26  and  C15_27 
REMARK   12  A    between atoms: C18_31  and  O9_32 
REMARK   13  A    between atoms: C19_34  and  O10_36 
ROOT
HETATM    1  C3  UNL     1      14.103 -13.313  20.194  1.00  0.00     0.190 C 
HETATM    2  O2  UNL     1      14.011 -13.390  18.799  1.00  0.00    -0.331 OA
HETATM    3  C4  UNL     1      15.205 -13.815  18.289  1.00  0.00     0.160 C 
HETATM    4  C5  UNL     1      15.813 -12.732  17.380  1.00  0.00     0.078 C 
HETATM    5  C6  UNL     1      14.887 -14.939  17.291  1.00  0.00     0.078 C 
HETATM    6  O3  UNL     1      16.027 -14.206  19.310  1.00  0.00    -0.338 OA
HETATM    7  C7  UNL     1      15.404 -13.952  20.517  1.00  0.00     0.137 C 
HETATM    8  C14 UNL     1      14.947 -15.299  21.153  1.00  0.00     0.082 C 
HETATM    9  C18 UNL     1      13.568 -15.560  20.751  1.00  0.00     0.166 C 
HETATM   10  C19 UNL     1      12.983 -14.132  20.735  1.00  0.00     0.122 C 
HETATM   11  C20 UNL     1      12.556 -13.821  22.130  1.00  0.00     0.052 C 
ENDROOT
BRANCH   7  12
HETATM   12  C8  UNL     1      16.228 -13.317  21.573  1.00  0.00     0.221 C 
BRANCH  12  13
HETATM   13  O4  UNL     1      17.539 -13.650  21.756  1.00  0.00    -0.318 OA
BRANCH  13  14
HETATM   14  C9  UNL     1      18.666 -13.336  21.060  1.00  0.00     0.258 C 
HETATM   15  O5  UNL     1      18.565 -12.259  20.357  1.00  0.00    -0.265 OA
BRANCH  14  16
HETATM   16  C10 UNL     1      19.941 -14.105  21.048  1.00  0.00     0.113 C 
BRANCH  16  17
HETATM   17  C11 UNL     1      19.747 -15.550  21.462  1.00  0.00     0.037 C 
BRANCH  17  18
HETATM   18  C12 UNL     1      20.495 -15.842  22.752  1.00  0.00     0.191 C 
BRANCH  18  19
HETATM   19  O6  UNL     1      21.366 -14.772  22.925  1.00  0.00    -0.269 OA
BRANCH  19  20
HETATM   20  S1  UNL     1      21.801 -14.586  24.531  1.00  0.00     0.369 S 
HETATM   21  O7  UNL     1      23.028 -13.745  24.708  1.00  0.00    -0.189 OA
HETATM   22  O8  UNL     1      22.133 -15.984  25.032  1.00  0.00    -0.189 OA
BRANCH  20  23
HETATM   23  C13 UNL     1      20.466 -13.910  25.496  1.00  0.00     0.523 C 
HETATM   24  F1  UNL     1      20.800 -12.643  25.913  1.00  0.00    -0.155 F 
HETATM   25  F2  UNL     1      19.328 -13.845  24.729  1.00  0.00    -0.155 F 
HETATM   26  F3  UNL     1      20.226 -14.762  26.548  1.00  0.00    -0.155 F 
ENDBRANCH  20  23
ENDBRANCH  19  20
ENDBRANCH  18  19
ENDBRANCH  17  18
ENDBRANCH  16  17
ENDBRANCH  14  16
ENDBRANCH  13  14
ENDBRANCH  12  13
ENDBRANCH   7  12
BRANCH   1  27
HETATM   27  C2  UNL     1      14.018 -11.884  20.558  1.00  0.00     0.164 C 
HETATM   28  C1  UNL     1      12.786 -11.217  20.997  1.00  0.00     0.094 C 
HETATM   29  O1  UNL     1      15.024 -11.213  20.493  1.00  0.00    -0.295 OA
ENDBRANCH   1  27
BRANCH   8  30
HETATM   30  C15 UNL     1      15.964 -16.325  21.029  1.00  0.00     0.003 C 
HETATM   31  C16 UNL     1      16.200 -17.425  21.675  1.00  0.00     0.004 C 
HETATM   32  C17 UNL     1      17.355 -18.297  21.303  1.00  0.00     0.061 C 
HETATM   33 CL1  UNL     1      15.222 -17.952  23.010  1.00  0.00    -0.090 Cl
ENDBRANCH   8  30
BRANCH  10  34
HETATM   34  O10 UNL     1      11.895 -14.216  19.860  1.00  0.00    -0.384 OA
ATOM     35  H10 UNL     1      11.507 -15.082  19.832  1.00  0.00     0.210 HD
ENDBRANCH  10  34
BRANCH   9  36
HETATM   36  O9  UNL     1      12.933 -16.256  21.817  1.00  0.00    -0.392 OA
ATOM     37  H9  UNL     1      12.718 -15.620  22.488  1.00  0.00     0.210 HD
ENDBRANCH   9  36
TORSDOF 13
ENDMDL
MODEL 2
REMARK VINA RESULT: -8.560104353      1.082      1.245
REMARK  13 active torsions:
REMARK  status: ('A' for Active; 'I' for Inactive)
REMARK    1  A    between atoms: C2_2  and  C3_4 
REMARK    2  A    between atoms: C7_10  and  C8_11 
REMARK    3  A    between atoms: C8_11  and  O4_12 
REMARK    4  A    between atoms: O4_12  and  C9_13 
REMARK    5  A    between atoms: C9_13  and  C10_15 
REMARK    6  A    between atoms: C10_15  and  C11_16 
REMARK    7  A    between atoms: C11_16  and  C12_17 
REMARK    8  A    between atoms: C12_17  and  O6_18 
REMARK    9  A    between atoms: O6_18  and  S1_19 
REMARK   10  A    between atoms: S1_19  and  C13_22 
REMARK   11  A    between atoms: C14_26  and  C15_27 
REMARK   12  A    between atoms: C18_31  and  O9_32 
REMARK   13  A    between atoms: C19_34  and  O10_36 
ROOT
HETATM    1  C3  UNL     1      13.907 -13.317  19.886  1.00  0.00     0.190 C 
HETATM    2  O2  UNL     1      13.835 -13.681  18.536  1.00  0.00    -0.331 OA
HETATM    3  C4  UNL     1      15.060 -14.117  18.118  1.00  0.00     0.160 C 
HETATM    4  C5  UNL     1      15.601 -13.201  17.005  1.00  0.00     0.078 C 
HETATM    5  C6  UNL     1      14.829 -15.439  17.369  1.00  0.00     0.078 C 
HETATM    6  O3  UNL     1      15.897 -14.235  19.193  1.00  0.00    -0.338 OA
HETATM    7  C7  UNL     1      15.247 -13.786  20.326  1.00  0.00     0.137 C 
HETATM    8  C14 UNL     1      14.877 -15.004  21.224  1.00  0.00     0.082 C 
HETATM    9  C18 UNL     1      13.523 -15.436  20.889  1.00  0.00     0.166 C 
HETATM   10  C19 UNL     1      12.842 -14.085  20.587  1.00  0.00     0.122 C 
HETATM   11  C20 UNL     1      12.380 -13.529  21.892  1.00  0.00     0.052 C 
ENDROOT
BRANCH   7  12
HETATM   12  C8  UNL     1      16.014 -12.894  21.227  1.00  0.00     0.221 C 
BRANCH  12  13
HETATM   13  O4  UNL     1      17.274 -12.472  20.914  1.00  0.00    -0.318 OA
BRANCH  13  14
HETATM   14  C9  UNL     1      18.489 -13.081  21.001  1.00  0.00     0.258 C 
HETATM   15  O5  UNL     1      19.273 -12.832  20.008  1.00  0.00    -0.265 OA
BRANCH  14  16
HETATM   16  C10 UNL     1      18.953 -13.972  22.100  1.00  0.00     0.113 C 
BRANCH  16  17
HETATM   17  C11 UNL     1      20.094 -14.871  21.671  1.00  0.00     0.037 C 
BRANCH  17  18
HETATM   18  C12 UNL     1      20.239 -16.044  22.627  1.00  0.00     0.191 C 
BRANCH  18  19
HETATM   19  O6  UNL     1      21.300 -15.713  23.460  1.00  0.00    -0.269 OA
BRANCH  19  20
HETATM   20  S1  UNL     1      20.890 -15.878  25.075  1.00  0.00     0.369 S 
HETATM   21  O7  UNL     1      22.079 -16.096  25.960  1.00  0.00    -0.189 OA
HETATM   22  O8  UNL     1      20.029 -17.130  25.155  1.00  0.00    -0.189 OA
BRANCH  20  23
HETATM   23  C13 UNL     1      19.957 -14.478  25.658  1.00  0.00     0.523 C 
HETATM   24  F1  UNL     1      20.098 -14.372  27.022  1.00  0.00    -0.155 F 
HETATM   25  F2  UNL     1      20.427 -13.330  25.067  1.00  0.00    -0.155 F 
HETATM   26  F3  UNL     1      18.647 -14.649  25.279  1.00  0.00    -0.155 F 
ENDBRANCH  20  23
ENDBRANCH  19  20
ENDBRANCH  18  19
ENDBRANCH  17  18
ENDBRANCH  16  17
ENDBRANCH  14  16
ENDBRANCH  13  14
ENDBRANCH  12  13
ENDBRANCH   7  12
BRANCH   1  27
HETATM   27  C2  UNL     1      13.721 -11.854  19.953  1.00  0.00     0.164 C 
HETATM   28  C1  UNL     1      13.878 -11.057  21.177  1.00  0.00     0.094 C 
HETATM   29  O1  UNL     1      13.419 -11.265  18.939  1.00  0.00    -0.295 OA
ENDBRANCH   1  27
BRANCH   8  30
HETATM   30  C15 UNL     1      15.964 -15.960  21.306  1.00  0.00     0.003 C 
HETATM   31  C16 UNL     1      16.122 -17.166  20.856  1.00  0.00     0.004 C 
HETATM   32  C17 UNL     1      17.391 -17.915  21.109  1.00  0.00     0.061 C 
HETATM   33 CL1  UNL     1      14.891 -17.997  19.956  1.00  0.00    -0.090 Cl
ENDBRANCH   8  30
BRANCH  10  34
HETATM   34  O10 UNL     1      11.770 -14.420  19.752  1.00  0.00    -0.384 OA
ATOM     35  H10 UNL     1      11.573 -15.349  19.755  1.00  0.00     0.210 HD
ENDBRANCH  10  34
BRANCH   9  36
HETATM   36  O9  UNL     1      12.928 -15.944  22.077  1.00  0.00    -0.392 OA
ATOM     37  H9  UNL     1      12.040 -16.207  21.864  1.00  0.00     0.210 HD
ENDBRANCH   9  36
TORSDOF 13
ENDMDL
MODEL 3
REMARK VINA RESULT: -8.333275894      1.474      1.605
REMARK  13 active torsions:
REMARK  status: ('A' for Active; 'I' for Inactive)
REMARK    1  A    between atoms: C2_2  and  C3_4 
REMARK    2  A    between atoms: C7_10  and  C8_11 
REMARK    3  A    between atoms: C8_11  and  O4_12 
REMARK    4  A    between atoms: O4_12  and  C9_13 
REMARK    5  A    between atoms: C9_13  and  C10_15 
REMARK    6  A    between atoms: C10_15  and  C11_16 
REMARK    7  A    between atoms: C11_16  and  C12_17 
REMARK    8  A    between atoms: C12_17  and  O6_18 
REMARK    9  A    between atoms: O6_18  and  S1_19 
REMARK   10  A    between atoms: S1_19  and  C13_22 
REMARK   11  A    between atoms: C14_26  and  C15_27 
REMARK   12  A    between atoms: C18_31  and  O9_32 
REMARK   13  A    between atoms: C19_34  and  O10_36 
ROOT
HETATM    1  C3  UNL     1      13.905 -13.330  19.886  1.00  0.00     0.190 C 
HETATM    2  O2  UNL     1      13.846 -13.716  18.542  1.00  0.00    -0.331 OA
HETATM    3  C4  UNL     1      15.080 -14.139  18.137  1.00  0.00     0.160 C 
HETATM    4  C5  UNL     1      15.613 -13.231  17.014  1.00  0.00     0.078 C 
HETATM    5  C6  UNL     1      14.875 -15.475  17.408  1.00  0.00     0.078 C 
HETATM    6  O3  UNL     1      15.913 -14.227  19.219  1.00  0.00    -0.338 OA
HETATM    7  C7  UNL     1      15.249 -13.771  20.341  1.00  0.00     0.137 C 
HETATM    8  C14 UNL     1      14.893 -14.981  21.256  1.00  0.00     0.082 C 
HETATM    9  C18 UNL     1      13.548 -15.439  20.920  1.00  0.00     0.166 C 
HETATM   10  C19 UNL     1      12.847 -14.104  20.593  1.00  0.00     0.122 C 
HETATM   11  C20 UNL     1      12.369 -13.535  21.887  1.00  0.00     0.052 C 
ENDROOT
BRANCH   7  12
HETATM   12  C8  UNL     1      15.996 -12.852  21.233  1.00  0.00     0.221 C 
BRANCH  12  13
HETATM   13  O4  UNL     1      17.283 -12.483  20.964  1.00  0.00    -0.318 OA
BRANCH  13  14
HETATM   14  C9  UNL     1      18.472 -13.124  21.139  1.00  0.00     0.258 C 
HETATM   15  O5  UNL     1      19.315 -12.936  20.181  1.00  0.00    -0.265 OA
BRANCH  14  16
HETATM   16  C10 UNL     1      18.850 -13.984  22.294  1.00  0.00     0.113 C 
BRANCH  16  17
HETATM   17  C11 UNL     1      20.085 -14.816  22.013  1.00  0.00     0.037 C 
BRANCH  17  18
HETATM   18  C12 UNL     1      20.969 -14.892  23.247  1.00  0.00     0.191 C 
BRANCH  18  19
HETATM   19  O6  UNL     1      20.311 -14.150  24.221  1.00  0.00    -0.269 OA
BRANCH  19  20
HETATM   20  S1  UNL     1      20.145 -15.014  25.645  1.00  0.00     0.369 S 
HETATM   21  O7  UNL     1      20.313 -14.163  26.866  1.00  0.00    -0.189 OA
HETATM   22  O8  UNL     1      21.274 -16.033  25.643  1.00  0.00    -0.189 OA
BRANCH  20  23
HETATM   23  C13 UNL     1      18.580 -15.861  25.717  1.00  0.00     0.523 C 
HETATM   24  F1  UNL     1      18.276 -16.149  27.027  1.00  0.00    -0.155 F 
HETATM   25  F2  UNL     1      17.596 -15.059  25.193  1.00  0.00    -0.155 F 
HETATM   26  F3  UNL     1      18.670 -16.992  24.940  1.00  0.00    -0.155 F 
ENDBRANCH  20  23
ENDBRANCH  19  20
ENDBRANCH  18  19
ENDBRANCH  17  18
ENDBRANCH  16  17
ENDBRANCH  14  16
ENDBRANCH  13  14
ENDBRANCH  12  13
ENDBRANCH   7  12
BRANCH   1  27
HETATM   27  C2  UNL     1      13.694 -11.869  19.929  1.00  0.00     0.164 C 
HETATM   28  C1  UNL     1      13.788 -11.058  21.150  1.00  0.00     0.094 C 
HETATM   29  O1  UNL     1      13.429 -11.295  18.897  1.00  0.00    -0.295 OA
ENDBRANCH   1  27
BRANCH   8  30
HETATM   30  C15 UNL     1      15.994 -15.918  21.359  1.00  0.00     0.003 C 
HETATM   31  C16 UNL     1      16.180 -17.123  20.917  1.00  0.00     0.004 C 
HETATM   32  C17 UNL     1      17.457 -17.850  21.193  1.00  0.00     0.061 C 
HETATM   33 CL1  UNL     1      14.976 -17.979  20.003  1.00  0.00    -0.090 Cl
ENDBRANCH   8  30
BRANCH  10  34
HETATM   34  O10 UNL     1      11.786 -14.468  19.757  1.00  0.00    -0.384 OA
ATOM     35  H10 UNL     1      11.959 -15.260  19.261  1.00  0.00     0.210 HD
ENDBRANCH  10  34
BRANCH   9  36
HETATM   36  O9  UNL     1      12.954 -15.938  22.112  1.00  0.00    -0.392 OA
ATOM     37  H9  UNL     1      12.368 -15.269  22.444  1.00  0.00     0.210 HD
ENDBRANCH   9  36
TORSDOF 13
ENDMDL
MODEL 4
REMARK VINA RESULT: -8.136096997      1.473      1.743
REMARK  13 active torsions:
REMARK  status: ('A' for Active; 'I' for Inactive)
REMARK    1  A    between atoms: C2_2  and  C3_4 
REMARK    2  A    between atoms: C7_10  and  C8_11 
REMARK    3  A    between atoms: C8_11  and  O4_12 
REMARK    4  A    between atoms: O4_12  and  C9_13 
REMARK    5  A    between atoms: C9_13  and  C10_15 
REMARK    6  A    between atoms: C10_15  and  C11_16 
REMARK    7  A    between atoms: C11_16  and  C12_17 
REMARK    8  A    between atoms: C12_17  and  O6_18 
REMARK    9  A    between atoms: O6_18  and  S1_19 
REMARK   10  A    between atoms: S1_19  and  C13_22 
REMARK   11  A    between atoms: C14_26  and  C15_27 
REMARK   12  A    between atoms: C18_31  and  O9_32 
REMARK   13  A    between atoms: C19_34  and  O10_36 
ROOT
HETATM    1  C3  UNL     1      13.920 -13.333  19.907  1.00  0.00     0.190 C 
HETATM    2  O2  UNL     1      13.875 -13.687  18.554  1.00  0.00    -0.331 OA
HETATM    3  C4  UNL     1      15.113 -14.102  18.153  1.00  0.00     0.160 C 
HETATM    4  C5  UNL     1      15.659 -13.169  17.057  1.00  0.00     0.078 C 
HETATM    5  C6  UNL     1      14.913 -15.420  17.390  1.00  0.00     0.078 C 
HETATM    6  O3  UNL     1      15.934 -14.217  19.241  1.00  0.00    -0.338 OA
HETATM    7  C7  UNL     1      15.258 -13.787  20.366  1.00  0.00     0.137 C 
HETATM    8  C14 UNL     1      14.891 -15.018  21.248  1.00  0.00     0.082 C 
HETATM    9  C18 UNL     1      13.549 -15.465  20.887  1.00  0.00     0.166 C 
HETATM   10  C19 UNL     1      12.854 -14.121  20.584  1.00  0.00     0.122 C 
HETATM   11  C20 UNL     1      12.363 -13.582  21.886  1.00  0.00     0.052 C 
ENDROOT
BRANCH   7  12
HETATM   12  C8  UNL     1      15.998 -12.892  21.287  1.00  0.00     0.221 C 
BRANCH  12  13
HETATM   13  O4  UNL     1      17.282 -12.504  21.032  1.00  0.00    -0.318 OA
BRANCH  13  14
HETATM   14  C9  UNL     1      18.467 -13.172  21.098  1.00  0.00     0.258 C 
HETATM   15  O5  UNL     1      19.256 -12.937  20.105  1.00  0.00    -0.265 OA
BRANCH  14  16
HETATM   16  C10 UNL     1      18.895 -14.108  22.173  1.00  0.00     0.113 C 
BRANCH  16  17
HETATM   17  C11 UNL     1      20.362 -14.471  22.071  1.00  0.00     0.037 C 
BRANCH  17  18
HETATM   18  C12 UNL     1      20.798 -15.282  23.281  1.00  0.00     0.191 C 
BRANCH  18  19
HETATM   19  O6  UNL     1      19.856 -16.296  23.405  1.00  0.00    -0.269 OA
BRANCH  19  20
HETATM   20  S1  UNL     1      19.758 -16.857  24.979  1.00  0.00     0.369 S 
HETATM   21  O7  UNL     1      21.101 -17.114  25.591  1.00  0.00    -0.189 OA
HETATM   22  O8  UNL     1      19.034 -18.194  24.896  1.00  0.00    -0.189 OA
BRANCH  20  23
HETATM   23  C13 UNL     1      18.831 -15.744  26.014  1.00  0.00     0.523 C 
HETATM   24  F1  UNL     1      17.891 -15.089  25.252  1.00  0.00    -0.155 F 
HETATM   25  F2  UNL     1      18.192 -16.454  27.001  1.00  0.00    -0.155 F 
HETATM   26  F3  UNL     1      19.716 -14.879  26.612  1.00  0.00    -0.155 F 
ENDBRANCH  20  23
ENDBRANCH  19  20
ENDBRANCH  18  19
ENDBRANCH  17  18
ENDBRANCH  16  17
ENDBRANCH  14  16
ENDBRANCH  13  14
ENDBRANCH  12  13
ENDBRANCH   7  12
BRANCH   1  27
HETATM   27  C2  UNL     1      13.712 -11.873  19.984  1.00  0.00     0.164 C 
HETATM   28  C1  UNL     1      13.820 -11.087  21.220  1.00  0.00     0.094 C 
HETATM   29  O1  UNL     1      13.435 -11.277  18.967  1.00  0.00    -0.295 OA
ENDBRANCH   1  27
BRANCH   8  30
HETATM   30  C15 UNL     1      15.989 -15.959  21.341  1.00  0.00     0.003 C 
HETATM   31  C16 UNL     1      16.176 -17.155  20.875  1.00  0.00     0.004 C 
HETATM   32  C17 UNL     1      17.449 -17.890  21.146  1.00  0.00     0.061 C 
HETATM   33 CL1  UNL     1      14.978 -17.989  19.933  1.00  0.00    -0.090 Cl
ENDBRANCH   8  30
BRANCH  10  34
HETATM   34  O10 UNL     1      11.801 -14.464  19.729  1.00  0.00    -0.384 OA
ATOM     35  H10 UNL     1      11.147 -13.779  19.652  1.00  0.00     0.210 HD
ENDBRANCH  10  34
BRANCH   9  36
HETATM   36  O9  UNL     1      12.940 -15.992  22.061  1.00  0.00    -0.392 OA
ATOM     37  H9  UNL     1      12.404 -16.730  21.800  1.00  0.00     0.210 HD
ENDBRANCH   9  36
TORSDOF 13
ENDMDL
MODEL 5
REMARK VINA RESULT: -8.025715785      3.761      7.558
REMARK  13 active torsions:
REMARK  status: ('A' for Active; 'I' for Inactive)
REMARK    1  A    between atoms: C2_2  and  C3_4 
REMARK    2  A    between atoms: C7_10  and  C8_11 
REMARK    3  A    between atoms: C8_11  and  O4_12 
REMARK    4  A    between atoms: O4_12  and  C9_13 
REMARK    5  A    between atoms: C9_13  and  C10_15 
REMARK    6  A    between atoms: C10_15  and  C11_16 
REMARK    7  A    between atoms: C11_16  and  C12_17 
REMARK    8  A    between atoms: C12_17  and  O6_18 
REMARK    9  A    between atoms: O6_18  and  S1_19 
REMARK   10  A    between atoms: S1_19  and  C13_22 
REMARK   11  A    between atoms: C14_26  and  C15_27 
REMARK   12  A    between atoms: C18_31  and  O9_32 
REMARK   13  A    between atoms: C19_34  and  O10_36 
ROOT
HETATM    1  C3  UNL     1      18.834 -17.032  23.737  1.00  0.00     0.190 C 
HETATM    2  O2  UNL     1      19.649 -18.113  23.380  1.00  0.00    -0.331 OA
HETATM    3  C4  UNL     1      19.777 -18.155  22.021  1.00  0.00     0.160 C 
HETATM    4  C5  UNL     1      19.184 -19.465  21.470  1.00  0.00     0.078 C 
HETATM    5  C6  UNL     1      21.274 -18.322  21.720  1.00  0.00     0.078 C 
HETATM    6  O3  UNL     1      19.231 -17.027  21.473  1.00  0.00    -0.338 OA
HETATM    7  C7  UNL     1      18.653 -16.270  22.474  1.00  0.00     0.137 C 
HETATM    8  C14 UNL     1      19.530 -15.009  22.736  1.00  0.00     0.082 C 
HETATM    9  C18 UNL     1      20.469 -15.310  23.813  1.00  0.00     0.166 C 
HETATM   10  C19 UNL     1      19.612 -16.223  24.715  1.00  0.00     0.122 C 
HETATM   11  C20 UNL     1      18.818 -15.330  25.609  1.00  0.00     0.052 C 
ENDROOT
BRANCH   7  12
HETATM   12  C8  UNL     1      17.304 -15.721  22.202  1.00  0.00     0.221 C 
BRANCH  12  13
HETATM   13  O4  UNL     1      16.738 -15.793  20.962  1.00  0.00    -0.318 OA
BRANCH  13  14
HETATM   14  C9  UNL     1      15.587 -15.274  20.452  1.00  0.00     0.258 C 
HETATM   15  O5  UNL     1      14.524 -15.635  21.086  1.00  0.00    -0.265 OA
BRANCH  14  16
HETATM   16  C10 UNL     1      15.471 -14.371  19.274  1.00  0.00     0.113 C 
BRANCH  16  17
HETATM   17  C11 UNL     1      14.030 -14.109  18.887  1.00  0.00     0.037 C 
BRANCH  17  18
HETATM   18  C12 UNL     1      13.635 -12.682  19.230  1.00  0.00     0.191 C 
BRANCH  18  19
HETATM   19  O6  UNL     1      12.600 -12.797  20.151  1.00  0.00    -0.269 OA
BRANCH  19  20
HETATM   20  S1  UNL     1      13.069 -12.279  21.672  1.00  0.00     0.369 S 
HETATM   21  O7  UNL     1      14.557 -12.194  21.826  1.00  0.00    -0.189 OA
HETATM   22  O8  UNL     1      12.572 -13.342  22.641  1.00  0.00    -0.189 OA
BRANCH  20  23
HETATM   23  C13 UNL     1      12.334 -10.710  22.084  1.00  0.00     0.523 C 
HETATM   24  F1  UNL     1      11.355 -10.900  23.031  1.00  0.00    -0.155 F 
HETATM   25  F2  UNL     1      13.293  -9.869  22.593  1.00  0.00    -0.155 F 
HETATM   26  F3  UNL     1      11.843 -10.151  20.929  1.00  0.00    -0.155 F 
ENDBRANCH  20  23
ENDBRANCH  19  20
ENDBRANCH  18  19
ENDBRANCH  17  18
ENDBRANCH  16  17
ENDBRANCH  14  16
ENDBRANCH  13  14
ENDBRANCH  12  13
ENDBRANCH   7  12
BRANCH   1  27
HETATM   27  C2  UNL     1      17.587 -17.593  24.295  1.00  0.00     0.164 C 
HETATM   28  C1  UNL     1      16.486 -18.127  23.482  1.00  0.00     0.094 C 
HETATM   29  O1  UNL     1      17.455 -17.618  25.498  1.00  0.00    -0.295 OA
ENDBRANCH   1  27
BRANCH   8  30
HETATM   30  C15 UNL     1      19.985 -14.404  21.500  1.00  0.00     0.003 C 
HETATM   31  C16 UNL     1      19.543 -13.423  20.776  1.00  0.00     0.004 C 
HETATM   32  C17 UNL     1      20.249 -13.021  19.521  1.00  0.00     0.061 C 
HETATM   33 CL1  UNL     1      18.113 -12.527  21.188  1.00  0.00    -0.090 Cl
ENDBRANCH   8  30
BRANCH  10  34
HETATM   34  O10 UNL     1      20.548 -16.979  25.428  1.00  0.00    -0.384 OA
ATOM     35  H10 UNL     1      21.077 -16.455  26.018  1.00  0.00     0.210 HD
ENDBRANCH  10  34
BRANCH   9  36
HETATM   36  O9  UNL     1      20.695 -14.106  24.536  1.00  0.00    -0.392 OA
ATOM     37  H9  UNL     1      20.372 -13.387  24.007  1.00  0.00     0.210 HD
ENDBRANCH   9  36
TORSDOF 13
ENDMDL
