MODEL 1
REMARK VINA RESULT: -8.454310883      0.000      0.000
REMARK  9 active torsions:
REMARK  status: ('A' for Active; 'I' for Inactive)
REMARK    1  A    between atoms: C5_8  and  C6_9 
REMARK    2  A    between atoms: N4_12  and  C7_13 
REMARK    3  A    between atoms: C7_13  and  C8_14 
REMARK    4  A    between atoms: C8_14  and  C9_15 
REMARK    5  A    between atoms: C9_15  and  N5_16 
REMARK    6  A    between atoms: N7_27  and  C17_29 
REMARK    7  A    between atoms: C17_29  and  C18_30 
REMARK    8  A    between atoms: C19_35  and  O2_36 
REMARK    9  A    between atoms: O2_36  and  C20_37 
ROOT
HETATM    1  C6  UNL     1      14.763 -14.632  20.510  1.00  0.00     0.080 A 
HETATM    2  N3  UNL     1      14.961 -15.530  21.498  1.00  0.00    -0.295 N 
ATOM      3  H3  UNL     1      14.899 -15.312  22.492  1.00  0.00     0.187 HD
HETATM    4  N4  UNL     1      15.245 -16.728  21.016  1.00  0.00    -0.275 N 
HETATM    5  C15 UNL     1      15.230 -16.607  19.684  1.00  0.00     0.154 A 
HETATM    6  N6  UNL     1      15.444 -17.512  18.710  1.00  0.00    -0.174 N 
ATOM      7  H6  UNL     1      15.665 -18.474  18.967  1.00  0.00     0.186 HD
HETATM    8  C16 UNL     1      15.376 -17.182  17.406  1.00  0.00     0.681 A 
HETATM    9  N7  UNL     1      15.596 -18.110  16.559  1.00  0.00    -0.221 N 
ATOM     10  H7  UNL     1      15.809 -19.034  16.937  1.00  0.00     0.177 HD
HETATM   11  N8  UNL     1      15.081 -15.901  17.090  1.00  0.00    -0.169 N 
ATOM     12  H8  UNL     1      15.028 -15.651  16.103  1.00  0.00     0.186 HD
HETATM   13  C19 UNL     1      14.856 -14.946  17.992  1.00  0.00     0.176 A 
HETATM   14  C24 UNL     1      14.932 -15.308  19.327  1.00  0.00     0.090 A 
ENDROOT
BRANCH   4  15
HETATM   15  C7  UNL     1      15.511 -17.858  21.875  1.00  0.00     0.152 C 
BRANCH  15  16
HETATM   16  C8  UNL     1      16.416 -17.525  23.026  1.00  0.00     0.052 C 
BRANCH  16  17
HETATM   17  C9  UNL     1      17.766 -17.172  22.557  1.00  0.00     0.275 C 
BRANCH  17  18
HETATM   18  N5  UNL     1      18.220 -15.854  22.919  1.00  0.00     0.097 N 
HETATM   19  C10 UNL     1      18.527 -15.136  21.699  1.00  0.00     0.299 C 
HETATM   20  C11 UNL     1      20.009 -15.226  21.418  1.00  0.00     0.198 C 
HETATM   21  O1  UNL     1      20.794 -14.684  22.401  1.00  0.00    -0.387 OA
HETATM   22  C12 UNL     1      20.288 -14.737  23.674  1.00  0.00     0.203 C 
HETATM   23  C13 UNL     1      19.257 -15.827  23.890  1.00  0.00     0.242 C 
HETATM   24  C14 UNL     1      18.612 -15.517  25.246  1.00  0.00     0.045 C 
ENDBRANCH  17  18
ENDBRANCH  16  17
ENDBRANCH  15  16
ENDBRANCH   4  15
BRANCH   1  25
HETATM   25  C5  UNL     1      14.429 -13.236  20.726  1.00  0.00     0.034 A 
HETATM   26  C2  UNL     1      15.361 -12.218  20.613  1.00  0.00     0.036 A 
HETATM   27  C1  UNL     1      16.798 -12.357  20.286  1.00  0.00     0.070 C 
HETATM   28  N1  UNL     1      14.690 -11.078  20.862  1.00  0.00    -0.303 N 
HETATM   29  N2  UNL     1      13.428 -11.361  21.114  1.00  0.00    -0.307 N 
ATOM     30  H1  UNL     1      15.096 -10.142  20.856  1.00  0.00     0.186 HD
HETATM   31  C3  UNL     1      12.354 -10.432  21.430  1.00  0.00     0.177 C 
HETATM   32  C4  UNL     1      13.228 -12.692  21.039  1.00  0.00     0.125 A 
ENDBRANCH   1  25
BRANCH  13  33
HETATM   33  O2  UNL     1      14.552 -13.636  17.697  1.00  0.00    -0.300 OA
BRANCH  33  34
HETATM   34  C20 UNL     1      14.970 -12.923  16.581  1.00  0.00     0.334 C 
HETATM   35  C21 UNL     1      16.487 -12.778  16.476  1.00  0.00     0.142 C 
HETATM   36  C22 UNL     1      16.598 -11.695  15.409  1.00  0.00     0.271 C 
HETATM   37  F3  UNL     1      16.699 -12.354  14.194  1.00  0.00    -0.204 F 
HETATM   38  F4  UNL     1      17.658 -10.860  15.639  1.00  0.00    -0.204 F 
HETATM   39  C23 UNL     1      15.269 -10.957  15.504  1.00  0.00     0.314 C 
HETATM   40  N9  UNL     1      14.593 -11.506  16.661  1.00  0.00    -0.043 N 
ATOM     41  H92 UNL     1      13.589 -11.326  16.703  1.00  0.00     0.280 HD
ATOM     42  H91 UNL     1      14.807 -11.049  17.547  1.00  0.00     0.280 HD
ENDBRANCH  33  34
ENDBRANCH  13  33
BRANCH   9  43
HETATM   43  C17 UNL     1      15.575 -17.991  15.137  1.00  0.00     0.209 C 
BRANCH  43  44
HETATM   44  C18 UNL     1      16.922 -17.634  14.542  1.00  0.00     0.371 C 
HETATM   45  F1  UNL     1      17.048 -16.259  14.519  1.00  0.00    -0.213 F 
HETATM   46  F2  UNL     1      17.975 -18.151  15.248  1.00  0.00    -0.213 F 
ENDBRANCH  43  44
ENDBRANCH   9  43
TORSDOF 9
ENDMDL
MODEL 2
REMARK VINA RESULT: -8.453338425      3.837      6.639
REMARK  9 active torsions:
REMARK  status: ('A' for Active; 'I' for Inactive)
REMARK    1  A    between atoms: C5_8  and  C6_9 
REMARK    2  A    between atoms: N4_12  and  C7_13 
REMARK    3  A    between atoms: C7_13  and  C8_14 
REMARK    4  A    between atoms: C8_14  and  C9_15 
REMARK    5  A    between atoms: C9_15  and  N5_16 
REMARK    6  A    between atoms: N7_27  and  C17_29 
REMARK    7  A    between atoms: C17_29  and  C18_30 
REMARK    8  A    between atoms: C19_35  and  O2_36 
REMARK    9  A    between atoms: O2_36  and  C20_37 
ROOT
HETATM    1  C6  UNL     1      16.237 -16.445  21.456  1.00  0.00     0.080 A 
HETATM    2  N3  UNL     1      17.564 -16.196  21.459  1.00  0.00    -0.295 N 
ATOM      3  H3  UNL     1      18.284 -16.917  21.514  1.00  0.00     0.187 HD
HETATM    4  N4  UNL     1      17.815 -14.901  21.382  1.00  0.00    -0.275 N 
HETATM    5  C15 UNL     1      16.625 -14.293  21.327  1.00  0.00     0.154 A 
HETATM    6  N6  UNL     1      16.299 -12.990  21.234  1.00  0.00    -0.174 N 
ATOM      7  H6  UNL     1      17.044 -12.294  21.201  1.00  0.00     0.186 HD
HETATM    8  C16 UNL     1      15.018 -12.579  21.184  1.00  0.00     0.681 A 
HETATM    9  N7  UNL     1      14.812 -11.323  21.098  1.00  0.00    -0.221 N 
ATOM     10  H7  UNL     1      15.638 -10.725  21.075  1.00  0.00     0.177 HD
HETATM   11  N8  UNL     1      14.048 -13.520  21.229  1.00  0.00    -0.169 N 
ATOM     12  H8  UNL     1      13.077 -13.210  21.191  1.00  0.00     0.186 HD
HETATM   13  C19 UNL     1      14.285 -14.828  21.321  1.00  0.00     0.176 A 
HETATM   14  C24 UNL     1      15.610 -15.227  21.371  1.00  0.00     0.090 A 
ENDROOT
BRANCH   4  15
HETATM   15  C7  UNL     1      19.161 -14.377  21.380  1.00  0.00     0.152 C 
BRANCH  15  16
HETATM   16  C8  UNL     1      19.639 -13.974  22.746  1.00  0.00     0.052 C 
BRANCH  16  17
HETATM   17  C9  UNL     1      20.838 -14.734  23.136  1.00  0.00     0.275 C 
BRANCH  17  18
HETATM   18  N5  UNL     1      20.813 -15.286  24.466  1.00  0.00     0.097 N 
HETATM   19  C10 UNL     1      20.649 -16.720  24.352  1.00  0.00     0.299 C 
HETATM   20  C11 UNL     1      19.190 -17.079  24.516  1.00  0.00     0.198 C 
HETATM   21  O1  UNL     1      18.664 -16.719  25.728  1.00  0.00    -0.387 OA
HETATM   22  C12 UNL     1      19.215 -15.611  26.319  1.00  0.00     0.203 C 
HETATM   23  C13 UNL     1      19.895 -14.661  25.353  1.00  0.00     0.242 C 
HETATM   24  C14 UNL     1      20.689 -13.685  26.229  1.00  0.00     0.045 C 
ENDBRANCH  17  18
ENDBRANCH  16  17
ENDBRANCH  15  16
ENDBRANCH   4  15
BRANCH   1  25
HETATM   25  C5  UNL     1      15.653 -17.773  21.524  1.00  0.00     0.034 A 
HETATM   26  C2  UNL     1      15.531 -18.594  20.416  1.00  0.00     0.036 A 
HETATM   27  C1  UNL     1      15.933 -18.281  19.026  1.00  0.00     0.070 C 
HETATM   28  N1  UNL     1      14.971 -19.733  20.864  1.00  0.00    -0.303 N 
HETATM   29  N2  UNL     1      14.756 -19.633  22.161  1.00  0.00    -0.307 N 
ATOM     30  H1  UNL     1      14.746 -20.545  20.290  1.00  0.00     0.186 HD
HETATM   31  C3  UNL     1      14.172 -20.629  23.045  1.00  0.00     0.177 C 
HETATM   32  C4  UNL     1      15.168 -18.428  22.606  1.00  0.00     0.125 A 
ENDBRANCH   1  25
BRANCH  13  33
HETATM   33  O2  UNL     1      13.317 -15.806  21.366  1.00  0.00    -0.300 OA
BRANCH  33  34
HETATM   34  C20 UNL     1      12.483 -16.192  20.325  1.00  0.00     0.334 C 
HETATM   35  C21 UNL     1      12.039 -17.652  20.403  1.00  0.00     0.142 C 
HETATM   36  C22 UNL     1      11.469 -17.852  19.003  1.00  0.00     0.271 C 
HETATM   37  F3  UNL     1      10.116 -17.562  19.087  1.00  0.00    -0.204 F 
HETATM   38  F4  UNL     1      11.703 -19.116  18.534  1.00  0.00    -0.204 F 
HETATM   39  C23 UNL     1      12.187 -16.800  18.167  1.00  0.00     0.314 C 
HETATM   40  N9  UNL     1      13.187 -16.218  19.037  1.00  0.00    -0.043 N 
ATOM     41  H92 UNL     1      13.561 -15.320  18.729  1.00  0.00     0.280 HD
ATOM     42  H91 UNL     1      14.088 -16.697  19.044  1.00  0.00     0.280 HD
ENDBRANCH  33  34
ENDBRANCH  13  33
BRANCH   9  43
HETATM   43  C17 UNL     1      13.546 -10.667  21.032  1.00  0.00     0.209 C 
BRANCH  43  44
HETATM   44  C18 UNL     1      12.834 -10.593  22.367  1.00  0.00     0.371 C 
HETATM   45  F1  UNL     1      13.261  -9.465  23.038  1.00  0.00    -0.213 F 
HETATM   46  F2  UNL     1      11.471 -10.531  22.246  1.00  0.00    -0.213 F 
ENDBRANCH  43  44
ENDBRANCH   9  43
TORSDOF 9
ENDMDL
MODEL 3
REMARK VINA RESULT: -8.383522845      3.821      6.608
REMARK  9 active torsions:
REMARK  status: ('A' for Active; 'I' for Inactive)
REMARK    1  A    between atoms: C5_8  and  C6_9 
REMARK    2  A    between atoms: N4_12  and  C7_13 
REMARK    3  A    between atoms: C7_13  and  C8_14 
REMARK    4  A    between atoms: C8_14  and  C9_15 
REMARK    5  A    between atoms: C9_15  and  N5_16 
REMARK    6  A    between atoms: N7_27  and  C17_29 
REMARK    7  A    between atoms: C17_29  and  C18_30 
REMARK    8  A    between atoms: C19_35  and  O2_36 
REMARK    9  A    between atoms: O2_36  and  C20_37 
ROOT
HETATM    1  C6  UNL     1      16.091 -15.997  21.412  1.00  0.00     0.080 A 
HETATM    2  N3  UNL     1      17.392 -15.637  21.399  1.00  0.00    -0.295 N 
ATOM      3  H3  UNL     1      18.170 -16.292  21.484  1.00  0.00     0.187 HD
HETATM    4  N4  UNL     1      17.534 -14.330  21.265  1.00  0.00    -0.275 N 
HETATM    5  C15 UNL     1      16.296 -13.828  21.187  1.00  0.00     0.154 A 
HETATM    6  N6  UNL     1      15.862 -12.562  21.039  1.00  0.00    -0.174 N 
ATOM      7  H6  UNL     1      16.545 -11.808  20.973  1.00  0.00     0.186 HD
HETATM    8  C16 UNL     1      14.551 -12.263  20.976  1.00  0.00     0.681 A 
HETATM    9  N7  UNL     1      14.240 -11.034  20.836  1.00  0.00    -0.221 N 
ATOM     10  H7  UNL     1      15.013 -10.370  20.783  1.00  0.00     0.177 HD
HETATM   11  N8  UNL     1      13.663 -13.279  21.065  1.00  0.00    -0.169 N 
ATOM     12  H8  UNL     1      12.670 -13.054  21.017  1.00  0.00     0.186 HD
HETATM   13  C19 UNL     1      14.009 -14.558  21.213  1.00  0.00     0.176 A 
HETATM   14  C24 UNL     1      15.364 -14.841  21.276  1.00  0.00     0.090 A 
ENDROOT
BRANCH   4  15
HETATM   15  C7  UNL     1      18.831 -13.697  21.236  1.00  0.00     0.152 C 
BRANCH  15  16
HETATM   16  C8  UNL     1      19.963 -14.661  21.440  1.00  0.00     0.052 C 
BRANCH  16  17
HETATM   17  C9  UNL     1      20.766 -14.298  22.619  1.00  0.00     0.275 C 
BRANCH  17  18
HETATM   18  N5  UNL     1      20.501 -15.069  23.807  1.00  0.00     0.097 N 
HETATM   19  C10 UNL     1      19.847 -14.202  24.765  1.00  0.00     0.299 C 
HETATM   20  C11 UNL     1      20.870 -13.651  25.732  1.00  0.00     0.198 C 
HETATM   21  O1  UNL     1      21.524 -14.614  26.454  1.00  0.00    -0.387 OA
HETATM   22  C12 UNL     1      21.682 -15.828  25.837  1.00  0.00     0.203 C 
HETATM   23  C13 UNL     1      21.623 -15.771  24.323  1.00  0.00     0.242 C 
HETATM   24  C14 UNL     1      21.509 -17.229  23.863  1.00  0.00     0.045 C 
ENDBRANCH  17  18
ENDBRANCH  16  17
ENDBRANCH  15  16
ENDBRANCH   4  15
BRANCH   1  25
HETATM   25  C5  UNL     1      15.621 -17.365  21.540  1.00  0.00     0.034 A 
HETATM   26  C2  UNL     1      15.520 -18.225  20.460  1.00  0.00     0.036 A 
HETATM   27  C1  UNL     1      15.837 -17.923  19.046  1.00  0.00     0.070 C 
HETATM   28  N1  UNL     1      15.073 -19.392  20.962  1.00  0.00    -0.303 N 
HETATM   29  N2  UNL     1      14.906 -19.272  22.263  1.00  0.00    -0.307 N 
ATOM     30  H1  UNL     1      14.893 -20.236  20.419  1.00  0.00     0.186 HD
HETATM   31  C3  UNL     1      14.443 -20.285  23.198  1.00  0.00     0.177 C 
HETATM   32  C4  UNL     1      15.236 -18.025  22.659  1.00  0.00     0.125 A 
ENDBRANCH   1  25
BRANCH  13  33
HETATM   33  O2  UNL     1      13.127 -15.610  21.305  1.00  0.00    -0.300 OA
BRANCH  33  34
HETATM   34  C20 UNL     1      12.313 -16.097  20.289  1.00  0.00     0.334 C 
HETATM   35  C21 UNL     1      11.982 -17.582  20.426  1.00  0.00     0.142 C 
HETATM   36  C22 UNL     1      11.414 -17.877  19.043  1.00  0.00     0.271 C 
HETATM   37  F3  UNL     1      10.044 -17.687  19.136  1.00  0.00    -0.204 F 
HETATM   38  F4  UNL     1      11.738 -19.136  18.617  1.00  0.00    -0.204 F 
HETATM   39  C23 UNL     1      12.040 -16.805  18.159  1.00  0.00     0.314 C 
HETATM   40  N9  UNL     1      13.003 -16.117  18.994  1.00  0.00    -0.043 N 
ATOM     41  H92 UNL     1      13.304 -15.205  18.648  1.00  0.00     0.280 HD
ATOM     42  H91 UNL     1      13.937 -16.526  19.005  1.00  0.00     0.280 HD
ENDBRANCH  33  34
ENDBRANCH  13  33
BRANCH   9  43
HETATM   43  C17 UNL     1      12.923 -10.490  20.745  1.00  0.00     0.209 C 
BRANCH  43  44
HETATM   44  C18 UNL     1      12.288 -10.220  22.093  1.00  0.00     0.371 C 
HETATM   45  F1  UNL     1      11.568 -11.333  22.478  1.00  0.00    -0.213 F 
HETATM   46  F2  UNL     1      13.204  -9.940  23.072  1.00  0.00    -0.213 F 
ENDBRANCH  43  44
ENDBRANCH   9  43
TORSDOF 9
ENDMDL
MODEL 4
REMARK VINA RESULT: -8.251304404      0.694      1.263
REMARK  9 active torsions:
REMARK  status: ('A' for Active; 'I' for Inactive)
REMARK    1  A    between atoms: C5_8  and  C6_9 
REMARK    2  A    between atoms: N4_12  and  C7_13 
REMARK    3  A    between atoms: C7_13  and  C8_14 
REMARK    4  A    between atoms: C8_14  and  C9_15 
REMARK    5  A    between atoms: C9_15  and  N5_16 
REMARK    6  A    between atoms: N7_27  and  C17_29 
REMARK    7  A    between atoms: C17_29  and  C18_30 
REMARK    8  A    between atoms: C19_35  and  O2_36 
REMARK    9  A    between atoms: O2_36  and  C20_37 
ROOT
HETATM    1  C6  UNL     1      14.884 -14.625  20.581  1.00  0.00     0.080 A 
HETATM    2  N3  UNL     1      15.090 -15.521  21.570  1.00  0.00    -0.295 N 
ATOM      3  H3  UNL     1      15.061 -15.295  22.564  1.00  0.00     0.187 HD
HETATM    4  N4  UNL     1      15.333 -16.728  21.089  1.00  0.00    -0.275 N 
HETATM    5  C15 UNL     1      15.284 -16.615  19.757  1.00  0.00     0.154 A 
HETATM    6  N6  UNL     1      15.451 -17.531  18.784  1.00  0.00    -0.174 N 
ATOM      7  H6  UNL     1      15.657 -18.496  19.042  1.00  0.00     0.186 HD
HETATM    8  C16 UNL     1      15.353 -17.209  17.481  1.00  0.00     0.681 A 
HETATM    9  N7  UNL     1      15.529 -18.147  16.634  1.00  0.00    -0.221 N 
ATOM     10  H7  UNL     1      15.732 -19.072  17.013  1.00  0.00     0.177 HD
HETATM   11  N8  UNL     1      15.078 -15.924  17.163  1.00  0.00    -0.169 N 
ATOM     12  H8  UNL     1      15.003 -15.679  16.176  1.00  0.00     0.186 HD
HETATM   13  C19 UNL     1      14.900 -14.957  18.064  1.00  0.00     0.176 A 
HETATM   14  C24 UNL     1      15.006 -15.312  19.399  1.00  0.00     0.090 A 
ENDROOT
BRANCH   4  15
HETATM   15  C7  UNL     1      15.598 -17.858  21.948  1.00  0.00     0.152 C 
BRANCH  15  16
HETATM   16  C8  UNL     1      17.056 -18.029  22.265  1.00  0.00     0.052 C 
BRANCH  16  17
HETATM   17  C9  UNL     1      17.409 -17.360  23.528  1.00  0.00     0.275 C 
BRANCH  17  18
HETATM   18  N5  UNL     1      18.658 -16.642  23.518  1.00  0.00     0.097 N 
HETATM   19  C10 UNL     1      19.315 -16.871  24.788  1.00  0.00     0.299 C 
HETATM   20  C11 UNL     1      19.023 -15.720  25.723  1.00  0.00     0.198 C 
HETATM   21  O1  UNL     1      19.466 -14.508  25.264  1.00  0.00    -0.387 OA
HETATM   22  C12 UNL     1      19.494 -14.352  23.902  1.00  0.00     0.203 C 
HETATM   23  C13 UNL     1      18.555 -15.274  23.150  1.00  0.00     0.242 C 
HETATM   24  C14 UNL     1      18.963 -15.159  21.676  1.00  0.00     0.045 C 
ENDBRANCH  17  18
ENDBRANCH  16  17
ENDBRANCH  15  16
ENDBRANCH   4  15
BRANCH   1  25
HETATM   25  C5  UNL     1      14.588 -13.220  20.797  1.00  0.00     0.034 A 
HETATM   26  C2  UNL     1      15.540 -12.225  20.653  1.00  0.00     0.036 A 
HETATM   27  C1  UNL     1      16.965 -12.398  20.292  1.00  0.00     0.070 C 
HETATM   28  N1  UNL     1      14.901 -11.068  20.912  1.00  0.00    -0.303 N 
HETATM   29  N2  UNL     1      13.640 -11.320  21.197  1.00  0.00    -0.307 N 
ATOM     30  H1  UNL     1      15.328 -10.142  20.890  1.00  0.00     0.186 HD
HETATM   31  C3  UNL     1      12.595 -10.365  21.533  1.00  0.00     0.177 C 
HETATM   32  C4  UNL     1      13.408 -12.647  21.135  1.00  0.00     0.125 A 
ENDBRANCH   1  25
BRANCH  13  33
HETATM   33  O2  UNL     1      14.618 -13.643  17.768  1.00  0.00    -0.300 OA
BRANCH  33  34
HETATM   34  C20 UNL     1      15.017 -12.947  16.634  1.00  0.00     0.334 C 
HETATM   35  C21 UNL     1      16.531 -12.774  16.521  1.00  0.00     0.142 C 
HETATM   36  C22 UNL     1      16.616 -11.714  15.429  1.00  0.00     0.271 C 
HETATM   37  F3  UNL     1      16.727 -12.399  14.229  1.00  0.00    -0.204 F 
HETATM   38  F4  UNL     1      17.659 -10.852  15.635  1.00  0.00    -0.204 F 
HETATM   39  C23 UNL     1      15.272 -11.001  15.511  1.00  0.00     0.314 C 
HETATM   40  N9  UNL     1      14.611 -11.538  16.682  1.00  0.00    -0.043 N 
ATOM     41  H92 UNL     1      13.604 -11.378  16.724  1.00  0.00     0.280 HD
ATOM     42  H91 UNL     1      14.818 -11.055  17.557  1.00  0.00     0.280 HD
ENDBRANCH  33  34
ENDBRANCH  13  33
BRANCH   9  43
HETATM   43  C17 UNL     1      15.471 -18.037  15.212  1.00  0.00     0.209 C 
BRANCH  43  44
HETATM   44  C18 UNL     1      16.782 -17.605  14.587  1.00  0.00     0.371 C 
HETATM   45  F1  UNL     1      16.817 -16.225  14.534  1.00  0.00    -0.213 F 
HETATM   46  F2  UNL     1      17.878 -18.036  15.285  1.00  0.00    -0.213 F 
ENDBRANCH  43  44
ENDBRANCH   9  43
TORSDOF 9
ENDMDL
MODEL 5
REMARK VINA RESULT: -8.116101682      4.030      6.807
REMARK  9 active torsions:
REMARK  status: ('A' for Active; 'I' for Inactive)
REMARK    1  A    between atoms: C5_8  and  C6_9 
REMARK    2  A    between atoms: N4_12  and  C7_13 
REMARK    3  A    between atoms: C7_13  and  C8_14 
REMARK    4  A    between atoms: C8_14  and  C9_15 
REMARK    5  A    between atoms: C9_15  and  N5_16 
REMARK    6  A    between atoms: N7_27  and  C17_29 
REMARK    7  A    between atoms: C17_29  and  C18_30 
REMARK    8  A    between atoms: C19_35  and  O2_36 
REMARK    9  A    between atoms: O2_36  and  C20_37 
ROOT
HETATM    1  C6  UNL     1      16.178 -16.161  21.170  1.00  0.00     0.080 A 
HETATM    2  N3  UNL     1      17.432 -15.662  21.188  1.00  0.00    -0.295 N 
ATOM      3  H3  UNL     1      18.277 -16.230  21.126  1.00  0.00     0.187 HD
HETATM    4  N4  UNL     1      17.429 -14.344  21.295  1.00  0.00    -0.275 N 
HETATM    5  C15 UNL     1      16.144 -13.978  21.348  1.00  0.00     0.154 A 
HETATM    6  N6  UNL     1      15.572 -12.763  21.450  1.00  0.00    -0.174 N 
ATOM      7  H6  UNL     1      16.169 -11.938  21.507  1.00  0.00     0.186 HD
HETATM    8  C16 UNL     1      14.235 -12.607  21.482  1.00  0.00     0.681 A 
HETATM    9  N7  UNL     1      13.791 -11.415  21.582  1.00  0.00    -0.221 N 
ATOM     10  H7  UNL     1      14.486 -10.670  21.632  1.00  0.00     0.177 HD
HETATM   11  N8  UNL     1      13.464 -13.714  21.405  1.00  0.00    -0.169 N 
ATOM     12  H8  UNL     1      12.452 -13.597  21.428  1.00  0.00     0.186 HD
HETATM   13  C19 UNL     1      13.950 -14.952  21.302  1.00  0.00     0.176 A 
HETATM   14  C24 UNL     1      15.328 -15.089  21.273  1.00  0.00     0.090 A 
ENDROOT
BRANCH   4  15
HETATM   15  C7  UNL     1      18.649 -13.575  21.348  1.00  0.00     0.152 C 
BRANCH  15  16
HETATM   16  C8  UNL     1      19.885 -14.419  21.221  1.00  0.00     0.052 C 
BRANCH  16  17
HETATM   17  C9  UNL     1      20.693 -14.368  22.451  1.00  0.00     0.275 C 
BRANCH  17  18
HETATM   18  N5  UNL     1      20.114 -15.022  23.597  1.00  0.00     0.097 N 
HETATM   19  C10 UNL     1      20.093 -14.072  24.690  1.00  0.00     0.299 C 
HETATM   20  C11 UNL     1      21.301 -14.288  25.572  1.00  0.00     0.198 C 
HETATM   21  O1  UNL     1      21.359 -15.535  26.136  1.00  0.00    -0.387 OA
HETATM   22  C12 UNL     1      20.793 -16.552  25.410  1.00  0.00     0.203 C 
HETATM   23  C13 UNL     1      20.694 -16.277  23.923  1.00  0.00     0.242 C 
HETATM   24  C14 UNL     1      19.776 -17.371  23.364  1.00  0.00     0.045 C 
ENDBRANCH  17  18
ENDBRANCH  16  17
ENDBRANCH  15  16
ENDBRANCH   4  15
BRANCH   1  25
HETATM   25  C5  UNL     1      15.860 -17.573  21.054  1.00  0.00     0.034 A 
HETATM   26  C2  UNL     1      15.771 -18.412  22.152  1.00  0.00     0.036 A 
HETATM   27  C1  UNL     1      15.991 -18.051  23.571  1.00  0.00     0.070 C 
HETATM   28  N1  UNL     1      15.446 -19.623  21.663  1.00  0.00    -0.303 N 
HETATM   29  N2  UNL     1      15.338 -19.549  20.351  1.00  0.00    -0.307 N 
ATOM     30  H1  UNL     1      15.304 -20.466  22.220  1.00  0.00     0.186 HD
HETATM   31  C3  UNL     1      15.001 -20.618  19.425  1.00  0.00     0.177 C 
HETATM   32  C4  UNL     1      15.589 -18.290  19.937  1.00  0.00     0.125 A 
ENDBRANCH   1  25
BRANCH  13  33
HETATM   33  O2  UNL     1      13.188 -16.096  21.221  1.00  0.00    -0.300 OA
BRANCH  33  34
HETATM   34  C20 UNL     1      12.332 -16.446  20.185  1.00  0.00     0.334 C 
HETATM   35  C21 UNL     1      11.849 -17.894  20.251  1.00  0.00     0.142 C 
HETATM   36  C22 UNL     1      11.257 -18.062  18.856  1.00  0.00     0.271 C 
HETATM   37  F3  UNL     1       9.914 -17.736  18.960  1.00  0.00    -0.204 F 
HETATM   38  F4  UNL     1      11.451 -19.326  18.369  1.00  0.00    -0.204 F 
HETATM   39  C23 UNL     1      11.993 -17.019  18.024  1.00  0.00     0.314 C 
HETATM   40  N9  UNL     1      13.020 -16.475  18.889  1.00  0.00    -0.043 N 
ATOM     41  H92 UNL     1      13.414 -15.584  18.587  1.00  0.00     0.280 HD
ATOM     42  H91 UNL     1      13.907 -16.978  18.879  1.00  0.00     0.280 HD
ENDBRANCH  33  34
ENDBRANCH  13  33
BRANCH   9  43
HETATM   43  C17 UNL     1      12.422 -11.015  21.631  1.00  0.00     0.209 C 
BRANCH  43  44
HETATM   44  C18 UNL     1      11.988 -10.516  22.994  1.00  0.00     0.371 C 
HETATM   45  F1  UNL     1      11.931 -11.587  23.864  1.00  0.00    -0.213 F 
HETATM   46  F2  UNL     1      12.839  -9.580  23.520  1.00  0.00    -0.213 F 
ENDBRANCH  43  44
ENDBRANCH   9  43
TORSDOF 9
ENDMDL
