MODEL 1
REMARK VINA RESULT: -8.086910181      0.000      0.000
REMARK  17 active torsions:
REMARK  status: ('A' for Active; 'I' for Inactive)
REMARK    1  A    between atoms: C2_2  and  N1_3 
REMARK       I    between atoms: N1_3  and  C3_5 
REMARK       I    between atoms: C3_5  and  N2_7 
REMARK    2  A    between atoms: N2_7  and  C4_9 
REMARK    3  A    between atoms: C4_9  and  C5_10 
REMARK    4  A    between atoms: C5_10  and  C6_11 
REMARK    5  A    between atoms: C6_11  and  N3_12 
REMARK    6  A    between atoms: N4_15  and  C9_16 
REMARK    7  A    between atoms: C9_16  and  C10_17 
REMARK    8  A    between atoms: C10_17  and  N5_18 
REMARK    9  A    between atoms: C10_17  and  N6_21 
REMARK   10  A    between atoms: N6_21  and  C11_23 
REMARK   11  A    between atoms: C11_23  and  C12_24 
REMARK   12  A    between atoms: C12_24  and  C13_25 
REMARK   13  A    between atoms: C13_25  and  N7_26 
REMARK   14  A    between atoms: N7_26  and  C16_29 
REMARK   15  A    between atoms: C16_29  and  C17_30 
REMARK   16  A    between atoms: C21_37  and  C22_38 
REMARK   17  A    between atoms: C22_38  and  N9_39 
ROOT
HETATM    1  N3  UNL     1     -19.574  93.440  81.046  1.00  0.00    -0.001 N 
HETATM    2  C7  UNL     1     -19.229  93.550  82.472  1.00  0.00     0.280 C 
HETATM    3  C8  UNL     1     -17.995  92.922  82.927  1.00  0.00     0.278 C 
HETATM    4  N4  UNL     1     -16.873  92.798  82.017  1.00  0.00    -0.019 N 
HETATM    5  C19 UNL     1     -16.319  94.097  81.913  1.00  0.00     0.225 C 
HETATM    6  C20 UNL     1     -16.834  95.173  81.270  1.00  0.00     0.115 C 
HETATM    7  N8  UNL     1     -18.046  95.344  80.519  1.00  0.00    -0.346 N 
ATOM      8  H8  UNL     1     -18.033  96.185  79.942  1.00  0.00     0.166 HD
HETATM    9  C21 UNL     1     -19.161  94.673  80.402  1.00  0.00     0.215 C 
HETATM   10  C23 UNL     1     -17.330  92.438  80.680  1.00  0.00     0.278 C 
HETATM   11  C24 UNL     1     -18.828  92.320  80.611  1.00  0.00     0.280 C 
ENDROOT
BRANCH   4  12
HETATM   12  C9  UNL     1     -15.990  91.785  82.498  1.00  0.00     0.255 C 
BRANCH  12  13
HETATM   13  C10 UNL     1     -15.820  91.589  83.916  1.00  0.00     0.118 C 
BRANCH  13  14
HETATM   14  N5  UNL     1     -16.412  90.608  84.511  1.00  0.00    -0.385 N 
ATOM     15  H52 UNL     1     -17.065  90.043  83.968  1.00  0.00     0.157 HD
ATOM     16  H51 UNL     1     -16.223  90.416  85.495  1.00  0.00     0.157 HD
ENDBRANCH  13  14
BRANCH  13  17
HETATM   17  N6  UNL     1     -15.018  92.442  84.690  1.00  0.00    -0.376 N 
ATOM     18  H6  UNL     1     -14.007  92.351  84.598  1.00  0.00     0.161 HD
BRANCH  17  19
HETATM   19  C11 UNL     1     -15.521  93.441  85.610  1.00  0.00     0.123 C 
BRANCH  19  20
HETATM   20  C12 UNL     1     -14.667  93.561  86.835  1.00  0.00     0.047 C 
BRANCH  20  21
HETATM   21  C13 UNL     1     -14.533  94.915  87.426  1.00  0.00     0.238 C 
BRANCH  21  22
HETATM   22  N7  UNL     1     -13.436  95.163  88.290  1.00  0.00    -0.068 N 
HETATM   23  C14 UNL     1     -12.783  93.925  88.724  1.00  0.00     0.272 C 
HETATM   24  C15 UNL     1     -12.415  96.041  87.843  1.00  0.00     0.272 C 
BRANCH  22  25
HETATM   25  C16 UNL     1     -14.012  95.709  89.536  1.00  0.00     0.314 C 
BRANCH  25  26
HETATM   26  C17 UNL     1     -13.244  96.806  90.113  1.00  0.00     0.148 C 
HETATM   27  C18 UNL     1     -12.236  96.546  91.203  1.00  0.00     0.092 C 
HETATM   28  O2  UNL     1     -13.360  97.954  89.772  1.00  0.00    -0.297 OA
ENDBRANCH  25  26
ENDBRANCH  22  25
ENDBRANCH  21  22
ENDBRANCH  20  21
ENDBRANCH  19  20
ENDBRANCH  17  19
ENDBRANCH  13  17
ENDBRANCH  12  13
ENDBRANCH   4  12
BRANCH   1  29
HETATM   29  C6  UNL     1     -20.961  93.224  80.941  1.00  0.00     0.208 C 
BRANCH  29  30
HETATM   30  C5  UNL     1     -21.680  91.960  81.057  1.00  0.00     0.018 C 
BRANCH  30  31
HETATM   31  C4  UNL     1     -21.737  91.196  82.334  1.00  0.00     0.153 C 
BRANCH  31  32
HETATM   32  N2  UNL     1     -22.850  90.245  82.348  1.00  0.00    -0.340 N 
HETATM   33  C3  UNL     1     -24.098  90.614  82.862  1.00  0.00     0.316 C 
HETATM   34  N1  UNL     1     -25.157  89.661  82.873  1.00  0.00    -0.343 N 
HETATM   35  O1  UNL     1     -24.351  91.772  83.327  1.00  0.00    -0.247 OA
ATOM     36  H1  UNL     1     -24.989  88.723  82.510  1.00  0.00     0.164 HD
ATOM     37  H2  UNL     1     -22.714  89.304  81.979  1.00  0.00     0.164 HD
BRANCH  34  38
HETATM   38  C2  UNL     1     -26.476  89.996  83.393  1.00  0.00     0.120 C 
HETATM   39  C1  UNL     1     -27.579  89.650  82.424  1.00  0.00     0.026 C 
ENDBRANCH  34  38
ENDBRANCH  31  32
ENDBRANCH  30  31
ENDBRANCH  29  30
ENDBRANCH   1  29
BRANCH   9  40
HETATM   40  C22 UNL     1     -20.078  95.320  79.454  1.00  0.00     0.314 C 
BRANCH  40  41
HETATM   41  N9  UNL     1     -19.562  95.579  78.149  1.00  0.00    -0.073 N 
ATOM     42  H93 UNL     1     -19.194  94.717  77.747  1.00  0.00     0.274 HD
ATOM     43  H92 UNL     1     -20.332  95.770  77.507  1.00  0.00     0.274 HD
ATOM     44  H91 UNL     1     -18.863  96.319  78.076  1.00  0.00     0.274 HD
ENDBRANCH  40  41
ENDBRANCH   9  40
TORSDOF 17
ENDMDL
MODEL 2
REMARK VINA RESULT: -7.892976477      1.395      1.546
REMARK  17 active torsions:
REMARK  status: ('A' for Active; 'I' for Inactive)
REMARK    1  A    between atoms: C2_2  and  N1_3 
REMARK       I    between atoms: N1_3  and  C3_5 
REMARK       I    between atoms: C3_5  and  N2_7 
REMARK    2  A    between atoms: N2_7  and  C4_9 
REMARK    3  A    between atoms: C4_9  and  C5_10 
REMARK    4  A    between atoms: C5_10  and  C6_11 
REMARK    5  A    between atoms: C6_11  and  N3_12 
REMARK    6  A    between atoms: N4_15  and  C9_16 
REMARK    7  A    between atoms: C9_16  and  C10_17 
REMARK    8  A    between atoms: C10_17  and  N5_18 
REMARK    9  A    between atoms: C10_17  and  N6_21 
REMARK   10  A    between atoms: N6_21  and  C11_23 
REMARK   11  A    between atoms: C11_23  and  C12_24 
REMARK   12  A    between atoms: C12_24  and  C13_25 
REMARK   13  A    between atoms: C13_25  and  N7_26 
REMARK   14  A    between atoms: N7_26  and  C16_29 
REMARK   15  A    between atoms: C16_29  and  C17_30 
REMARK   16  A    between atoms: C21_37  and  C22_38 
REMARK   17  A    between atoms: C22_38  and  N9_39 
ROOT
HETATM    1  N3  UNL     1     -19.680  93.244  81.300  1.00  0.00    -0.001 N 
HETATM    2  C7  UNL     1     -19.221  93.444  82.684  1.00  0.00     0.280 C 
HETATM    3  C8  UNL     1     -17.922  92.897  83.059  1.00  0.00     0.278 C 
HETATM    4  N4  UNL     1     -16.878  92.777  82.061  1.00  0.00    -0.019 N 
HETATM    5  C19 UNL     1     -16.400  94.093  81.846  1.00  0.00     0.225 C 
HETATM    6  C20 UNL     1     -17.020  95.109  81.200  1.00  0.00     0.115 C 
HETATM    7  N8  UNL     1     -18.299  95.185  80.551  1.00  0.00    -0.346 N 
ATOM      8  H8  UNL     1     -18.378  95.995  79.935  1.00  0.00     0.166 HD
HETATM    9  C21 UNL     1     -19.385  94.459  80.564  1.00  0.00     0.215 C 
HETATM   10  C23 UNL     1     -17.429  92.327  80.788  1.00  0.00     0.278 C 
HETATM   11  C24 UNL     1     -18.919  92.138  80.856  1.00  0.00     0.280 C 
ENDROOT
BRANCH   4  12
HETATM   12  C9  UNL     1     -15.908  91.832  82.511  1.00  0.00     0.255 C 
BRANCH  12  13
HETATM   13  C10 UNL     1     -15.719  91.607  83.922  1.00  0.00     0.118 C 
BRANCH  13  14
HETATM   14  N5  UNL     1     -16.390  90.686  84.528  1.00  0.00    -0.385 N 
ATOM     15  H52 UNL     1     -17.121  90.975  85.177  1.00  0.00     0.157 HD
ATOM     16  H51 UNL     1     -16.184  89.702  84.353  1.00  0.00     0.157 HD
ENDBRANCH  13  14
BRANCH  13  17
HETATM   17  N6  UNL     1     -14.813  92.368  84.678  1.00  0.00    -0.376 N 
ATOM     18  H6  UNL     1     -13.828  92.321  84.420  1.00  0.00     0.161 HD
BRANCH  17  19
HETATM   19  C11 UNL     1     -15.175  93.214  85.797  1.00  0.00     0.123 C 
BRANCH  19  20
HETATM   20  C12 UNL     1     -14.170  93.143  86.905  1.00  0.00     0.047 C 
BRANCH  20  21
HETATM   21  C13 UNL     1     -14.267  94.181  87.962  1.00  0.00     0.238 C 
BRANCH  21  22
HETATM   22  N7  UNL     1     -13.075  94.831  88.371  1.00  0.00    -0.068 N 
HETATM   23  C14 UNL     1     -12.962  94.913  89.830  1.00  0.00     0.272 C 
HETATM   24  C15 UNL     1     -11.838  94.335  87.882  1.00  0.00     0.272 C 
BRANCH  22  25
HETATM   25  C16 UNL     1     -13.214  96.240  87.952  1.00  0.00     0.314 C 
BRANCH  25  26
HETATM   26  C17 UNL     1     -14.254  96.972  88.665  1.00  0.00     0.148 C 
HETATM   27  C18 UNL     1     -13.892  97.981  89.725  1.00  0.00     0.092 C 
HETATM   28  O2  UNL     1     -15.431  96.826  88.464  1.00  0.00    -0.297 OA
ENDBRANCH  25  26
ENDBRANCH  22  25
ENDBRANCH  21  22
ENDBRANCH  20  21
ENDBRANCH  19  20
ENDBRANCH  17  19
ENDBRANCH  13  17
ENDBRANCH  12  13
ENDBRANCH   4  12
BRANCH   1  29
HETATM   29  C6  UNL     1     -21.059  92.961  81.328  1.00  0.00     0.208 C 
BRANCH  29  30
HETATM   30  C5  UNL     1     -21.731  91.860  82.010  1.00  0.00     0.018 C 
BRANCH  30  31
HETATM   31  C4  UNL     1     -23.199  91.860  82.259  1.00  0.00     0.153 C 
BRANCH  31  32
HETATM   32  N2  UNL     1     -23.774  90.522  82.112  1.00  0.00    -0.340 N 
HETATM   33  C3  UNL     1     -24.735  90.263  81.128  1.00  0.00     0.316 C 
HETATM   34  N1  UNL     1     -25.286  88.953  81.019  1.00  0.00    -0.343 N 
HETATM   35  O1  UNL     1     -25.155  91.141  80.308  1.00  0.00    -0.247 OA
ATOM     36  H1  UNL     1     -24.974  88.225  81.662  1.00  0.00     0.164 HD
ATOM     37  H2  UNL     1     -23.472  89.771  82.732  1.00  0.00     0.164 HD
BRANCH  34  38
HETATM   38  C2  UNL     1     -26.286  88.630  80.010  1.00  0.00     0.120 C 
HETATM   39  C1  UNL     1     -25.832  87.529  79.086  1.00  0.00     0.026 C 
ENDBRANCH  34  38
ENDBRANCH  31  32
ENDBRANCH  30  31
ENDBRANCH  29  30
ENDBRANCH   1  29
BRANCH   9  40
HETATM   40  C22 UNL     1     -20.410  95.013  79.671  1.00  0.00     0.314 C 
BRANCH  40  41
HETATM   41  N9  UNL     1     -19.970  95.425  78.377  1.00  0.00    -0.073 N 
ATOM     42  H93 UNL     1     -19.024  95.081  78.211  1.00  0.00     0.274 HD
ATOM     43  H92 UNL     1     -20.483  94.913  77.660  1.00  0.00     0.274 HD
ATOM     44  H91 UNL     1     -20.011  96.426  78.181  1.00  0.00     0.274 HD
ENDBRANCH  40  41
ENDBRANCH   9  40
TORSDOF 17
ENDMDL
MODEL 3
REMARK VINA RESULT: -7.797887826      1.906     10.208
REMARK  17 active torsions:
REMARK  status: ('A' for Active; 'I' for Inactive)
REMARK    1  A    between atoms: C2_2  and  N1_3 
REMARK       I    between atoms: N1_3  and  C3_5 
REMARK       I    between atoms: C3_5  and  N2_7 
REMARK    2  A    between atoms: N2_7  and  C4_9 
REMARK    3  A    between atoms: C4_9  and  C5_10 
REMARK    4  A    between atoms: C5_10  and  C6_11 
REMARK    5  A    between atoms: C6_11  and  N3_12 
REMARK    6  A    between atoms: N4_15  and  C9_16 
REMARK    7  A    between atoms: C9_16  and  C10_17 
REMARK    8  A    between atoms: C10_17  and  N5_18 
REMARK    9  A    between atoms: C10_17  and  N6_21 
REMARK   10  A    between atoms: N6_21  and  C11_23 
REMARK   11  A    between atoms: C11_23  and  C12_24 
REMARK   12  A    between atoms: C12_24  and  C13_25 
REMARK   13  A    between atoms: C13_25  and  N7_26 
REMARK   14  A    between atoms: N7_26  and  C16_29 
REMARK   15  A    between atoms: C16_29  and  C17_30 
REMARK   16  A    between atoms: C21_37  and  C22_38 
REMARK   17  A    between atoms: C22_38  and  N9_39 
ROOT
HETATM    1  N3  UNL     1     -17.771  93.089  81.328  1.00  0.00    -0.001 N 
HETATM    2  C7  UNL     1     -18.501  92.505  80.191  1.00  0.00     0.280 C 
HETATM    3  C8  UNL     1     -19.954  92.430  80.278  1.00  0.00     0.278 C 
HETATM    4  N4  UNL     1     -20.680  93.418  81.049  1.00  0.00    -0.019 N 
HETATM    5  C19 UNL     1     -20.666  94.601  80.269  1.00  0.00     0.225 C 
HETATM    6  C20 UNL     1     -19.619  95.428  80.032  1.00  0.00     0.115 C 
HETATM    7  N8  UNL     1     -18.252  95.385  80.470  1.00  0.00    -0.346 N 
ATOM      8  H8  UNL     1     -17.773  96.276  80.343  1.00  0.00     0.166 HD
HETATM    9  C21 UNL     1     -17.480  94.470  80.994  1.00  0.00     0.215 C 
HETATM   10  C23 UNL     1     -19.972  93.732  82.284  1.00  0.00     0.278 C 
HETATM   11  C24 UNL     1     -18.682  92.968  82.402  1.00  0.00     0.280 C 
ENDROOT
BRANCH   4  12
HETATM   12  C9  UNL     1     -21.973  92.905  81.369  1.00  0.00     0.255 C 
BRANCH  12  13
HETATM   13  C10 UNL     1     -22.184  91.482  81.455  1.00  0.00     0.118 C 
BRANCH  13  14
HETATM   14  N5  UNL     1     -21.651  90.803  82.414  1.00  0.00    -0.385 N 
ATOM     15  H52 UNL     1     -21.157  91.314  83.146  1.00  0.00     0.157 HD
ATOM     16  H51 UNL     1     -21.728  89.785  82.428  1.00  0.00     0.157 HD
ENDBRANCH  13  14
BRANCH  13  17
HETATM   17  N6  UNL     1     -22.964  90.792  80.514  1.00  0.00    -0.376 N 
ATOM     18  H6  UNL     1     -22.848  89.781  80.455  1.00  0.00     0.161 HD
BRANCH  17  19
HETATM   19  C11 UNL     1     -23.923  91.410  79.620  1.00  0.00     0.123 C 
BRANCH  19  20
HETATM   20  C12 UNL     1     -25.220  90.661  79.579  1.00  0.00     0.047 C 
BRANCH  20  21
HETATM   21  C13 UNL     1     -25.526  89.793  80.742  1.00  0.00     0.238 C 
BRANCH  21  22
HETATM   22  N7  UNL     1     -26.844  89.817  81.266  1.00  0.00    -0.068 N 
HETATM   23  C14 UNL     1     -27.580  91.016  80.857  1.00  0.00     0.272 C 
HETATM   24  C15 UNL     1     -27.686  88.702  81.014  1.00  0.00     0.272 C 
BRANCH  22  25
HETATM   25  C16 UNL     1     -26.700  89.976  82.727  1.00  0.00     0.314 C 
BRANCH  25  26
HETATM   26  C17 UNL     1     -25.399  90.486  83.143  1.00  0.00     0.148 C 
HETATM   27  C18 UNL     1     -25.205  91.955  83.419  1.00  0.00     0.092 C 
HETATM   28  O2  UNL     1     -24.426  89.794  83.289  1.00  0.00    -0.297 OA
ENDBRANCH  25  26
ENDBRANCH  22  25
ENDBRANCH  21  22
ENDBRANCH  20  21
ENDBRANCH  19  20
ENDBRANCH  17  19
ENDBRANCH  13  17
ENDBRANCH  12  13
ENDBRANCH   4  12
BRANCH   1  29
HETATM   29  C6  UNL     1     -16.602  92.334  81.537  1.00  0.00     0.208 C 
BRANCH  29  30
HETATM   30  C5  UNL     1     -16.127  91.752  82.788  1.00  0.00     0.018 C 
BRANCH  30  31
HETATM   31  C4  UNL     1     -16.157  92.503  84.074  1.00  0.00     0.153 C 
BRANCH  31  32
HETATM   32  N2  UNL     1     -15.015  92.166  84.925  1.00  0.00    -0.340 N 
HETATM   33  C3  UNL     1     -14.766  92.882  86.101  1.00  0.00     0.316 C 
HETATM   34  N1  UNL     1     -13.638  92.538  86.902  1.00  0.00    -0.343 N 
HETATM   35  O1  UNL     1     -15.501  93.839  86.509  1.00  0.00    -0.247 OA
ATOM     36  H1  UNL     1     -13.027  91.778  86.604  1.00  0.00     0.164 HD
ATOM     37  H2  UNL     1     -14.394  91.403  84.659  1.00  0.00     0.164 HD
BRANCH  34  38
HETATM   38  C2  UNL     1     -13.337  93.250  88.137  1.00  0.00     0.120 C 
HETATM   39  C1  UNL     1     -12.217  94.245  87.966  1.00  0.00     0.026 C 
ENDBRANCH  34  38
ENDBRANCH  31  32
ENDBRANCH  30  31
ENDBRANCH  29  30
ENDBRANCH   1  29
BRANCH   9  40
HETATM   40  C22 UNL     1     -16.136  94.997  81.265  1.00  0.00     0.314 C 
BRANCH  40  41
HETATM   41  N9  UNL     1     -15.771  96.192  80.575  1.00  0.00    -0.073 N 
ATOM     42  H93 UNL     1     -15.528  95.970  79.609  1.00  0.00     0.274 HD
ATOM     43  H92 UNL     1     -16.598  96.771  80.430  1.00  0.00     0.274 HD
ATOM     44  H91 UNL     1     -15.029  96.751  80.997  1.00  0.00     0.274 HD
ENDBRANCH  40  41
ENDBRANCH   9  40
TORSDOF 17
ENDMDL
MODEL 4
REMARK VINA RESULT: -7.783112721      2.066      9.773
REMARK  17 active torsions:
REMARK  status: ('A' for Active; 'I' for Inactive)
REMARK    1  A    between atoms: C2_2  and  N1_3 
REMARK       I    between atoms: N1_3  and  C3_5 
REMARK       I    between atoms: C3_5  and  N2_7 
REMARK    2  A    between atoms: N2_7  and  C4_9 
REMARK    3  A    between atoms: C4_9  and  C5_10 
REMARK    4  A    between atoms: C5_10  and  C6_11 
REMARK    5  A    between atoms: C6_11  and  N3_12 
REMARK    6  A    between atoms: N4_15  and  C9_16 
REMARK    7  A    between atoms: C9_16  and  C10_17 
REMARK    8  A    between atoms: C10_17  and  N5_18 
REMARK    9  A    between atoms: C10_17  and  N6_21 
REMARK   10  A    between atoms: N6_21  and  C11_23 
REMARK   11  A    between atoms: C11_23  and  C12_24 
REMARK   12  A    between atoms: C12_24  and  C13_25 
REMARK   13  A    between atoms: C13_25  and  N7_26 
REMARK   14  A    between atoms: N7_26  and  C16_29 
REMARK   15  A    between atoms: C16_29  and  C17_30 
REMARK   16  A    between atoms: C21_37  and  C22_38 
REMARK   17  A    between atoms: C22_38  and  N9_39 
ROOT
HETATM    1  N3  UNL     1     -16.745  93.503  81.376  1.00  0.00    -0.001 N 
HETATM    2  C7  UNL     1     -17.323  92.282  80.792  1.00  0.00     0.280 C 
HETATM    3  C8  UNL     1     -18.775  92.184  80.711  1.00  0.00     0.278 C 
HETATM    4  N4  UNL     1     -19.569  93.388  80.564  1.00  0.00    -0.019 N 
HETATM    5  C19 UNL     1     -19.399  93.798  79.219  1.00  0.00     0.225 C 
HETATM    6  C20 UNL     1     -18.300  94.350  78.650  1.00  0.00     0.115 C 
HETATM    7  N8  UNL     1     -17.013  94.686  79.193  1.00  0.00    -0.346 N 
ATOM      8  H8  UNL     1     -16.488  95.320  78.590  1.00  0.00     0.166 HD
HETATM    9  C21 UNL     1     -16.358  94.369  80.278  1.00  0.00     0.215 C 
HETATM   10  C23 UNL     1     -19.037  94.463  81.392  1.00  0.00     0.278 C 
HETATM   11  C24 UNL     1     -17.806  94.036  82.144  1.00  0.00     0.280 C 
ENDROOT
BRANCH   4  12
HETATM   12  C9  UNL     1     -20.913  93.113  80.961  1.00  0.00     0.255 C 
BRANCH  12  13
HETATM   13  C10 UNL     1     -21.298  91.773  81.326  1.00  0.00     0.118 C 
BRANCH  13  14
HETATM   14  N5  UNL     1     -21.117  91.351  82.532  1.00  0.00    -0.385 N 
ATOM     15  H52 UNL     1     -21.860  91.511  83.212  1.00  0.00     0.157 HD
ATOM     16  H51 UNL     1     -20.251  90.875  82.785  1.00  0.00     0.157 HD
ENDBRANCH  13  14
BRANCH  13  17
HETATM   17  N6  UNL     1     -21.875  90.891  80.399  1.00  0.00    -0.376 N 
ATOM     18  H6  UNL     1     -22.036  89.930  80.699  1.00  0.00     0.161 HD
BRANCH  17  19
HETATM   19  C11 UNL     1     -22.261  91.245  79.048  1.00  0.00     0.123 C 
BRANCH  19  20
HETATM   20  C12 UNL     1     -23.729  91.064  78.814  1.00  0.00     0.047 C 
BRANCH  20  21
HETATM   21  C13 UNL     1     -24.643  91.897  79.634  1.00  0.00     0.238 C 
BRANCH  21  22
HETATM   22  N7  UNL     1     -25.488  91.244  80.567  1.00  0.00    -0.068 N 
HETATM   23  C14 UNL     1     -26.861  91.752  80.522  1.00  0.00     0.272 C 
HETATM   24  C15 UNL     1     -25.563  89.826  80.525  1.00  0.00     0.272 C 
BRANCH  22  25
HETATM   25  C16 UNL     1     -25.009  91.648  81.905  1.00  0.00     0.314 C 
BRANCH  25  26
HETATM   26  C17 UNL     1     -24.775  90.532  82.814  1.00  0.00     0.148 C 
HETATM   27  C18 UNL     1     -25.792  90.175  83.868  1.00  0.00     0.092 C 
HETATM   28  O2  UNL     1     -23.788  89.845  82.787  1.00  0.00    -0.297 OA
ENDBRANCH  25  26
ENDBRANCH  22  25
ENDBRANCH  21  22
ENDBRANCH  20  21
ENDBRANCH  19  20
ENDBRANCH  17  19
ENDBRANCH  13  17
ENDBRANCH  12  13
ENDBRANCH   4  12
BRANCH   1  29
HETATM   29  C6  UNL     1     -15.646  93.135  82.175  1.00  0.00     0.208 C 
BRANCH  29  30
HETATM   30  C5  UNL     1     -15.455  91.889  82.910  1.00  0.00     0.018 C 
BRANCH  30  31
HETATM   31  C4  UNL     1     -15.980  91.695  84.291  1.00  0.00     0.153 C 
BRANCH  31  32
HETATM   32  N2  UNL     1     -15.055  92.214  85.300  1.00  0.00    -0.340 N 
HETATM   33  C3  UNL     1     -15.288  93.450  85.912  1.00  0.00     0.316 C 
HETATM   34  N1  UNL     1     -14.361  93.933  86.882  1.00  0.00    -0.343 N 
HETATM   35  O1  UNL     1     -16.296  94.183  85.654  1.00  0.00    -0.247 OA
ATOM     36  H1  UNL     1     -13.542  93.372  87.113  1.00  0.00     0.164 HD
ATOM     37  H2  UNL     1     -14.234  91.669  85.560  1.00  0.00     0.164 HD
BRANCH  34  38
HETATM   38  C2  UNL     1     -14.560  95.212  87.552  1.00  0.00     0.120 C 
HETATM   39  C1  UNL     1     -13.926  95.246  88.920  1.00  0.00     0.026 C 
ENDBRANCH  34  38
ENDBRANCH  31  32
ENDBRANCH  30  31
ENDBRANCH  29  30
ENDBRANCH   1  29
BRANCH   9  40
HETATM   40  C22 UNL     1     -15.050  95.035  80.327  1.00  0.00     0.314 C 
BRANCH  40  41
HETATM   41  N9  UNL     1     -14.524  95.492  79.082  1.00  0.00    -0.073 N 
ATOM     42  H93 UNL     1     -13.946  96.319  79.236  1.00  0.00     0.274 HD
ATOM     43  H92 UNL     1     -13.820  94.835  78.744  1.00  0.00     0.274 HD
ATOM     44  H91 UNL     1     -15.202  95.679  78.343  1.00  0.00     0.274 HD
ENDBRANCH  40  41
ENDBRANCH   9  40
TORSDOF 17
ENDMDL
MODEL 5
REMARK VINA RESULT: -7.718464005      2.119     10.314
REMARK  17 active torsions:
REMARK  status: ('A' for Active; 'I' for Inactive)
REMARK    1  A    between atoms: C2_2  and  N1_3 
REMARK       I    between atoms: N1_3  and  C3_5 
REMARK       I    between atoms: C3_5  and  N2_7 
REMARK    2  A    between atoms: N2_7  and  C4_9 
REMARK    3  A    between atoms: C4_9  and  C5_10 
REMARK    4  A    between atoms: C5_10  and  C6_11 
REMARK    5  A    between atoms: C6_11  and  N3_12 
REMARK    6  A    between atoms: N4_15  and  C9_16 
REMARK    7  A    between atoms: C9_16  and  C10_17 
REMARK    8  A    between atoms: C10_17  and  N5_18 
REMARK    9  A    between atoms: C10_17  and  N6_21 
REMARK   10  A    between atoms: N6_21  and  C11_23 
REMARK   11  A    between atoms: C11_23  and  C12_24 
REMARK   12  A    between atoms: C12_24  and  C13_25 
REMARK   13  A    between atoms: C13_25  and  N7_26 
REMARK   14  A    between atoms: N7_26  and  C16_29 
REMARK   15  A    between atoms: C16_29  and  C17_30 
REMARK   16  A    between atoms: C21_37  and  C22_38 
REMARK   17  A    between atoms: C22_38  and  N9_39 
ROOT
HETATM    1  N3  UNL     1     -17.838  93.399  80.999  1.00  0.00    -0.001 N 
HETATM    2  C7  UNL     1     -18.250  92.685  79.780  1.00  0.00     0.280 C 
HETATM    3  C8  UNL     1     -19.676  92.587  79.495  1.00  0.00     0.278 C 
HETATM    4  N4  UNL     1     -20.572  93.633  79.943  1.00  0.00    -0.019 N 
HETATM    5  C19 UNL     1     -20.349  94.729  79.073  1.00  0.00     0.225 C 
HETATM    6  C20 UNL     1     -19.272  95.550  79.029  1.00  0.00     0.115 C 
HETATM    7  N8  UNL     1     -18.067  95.583  79.809  1.00  0.00    -0.346 N 
ATOM      8  H8  UNL     1     -17.565  96.467  79.717  1.00  0.00     0.166 HD
HETATM    9  C21 UNL     1     -17.462  94.745  80.609  1.00  0.00     0.215 C 
HETATM   10  C23 UNL     1     -20.208  94.089  81.279  1.00  0.00     0.278 C 
HETATM   11  C24 UNL     1     -18.997  93.369  81.807  1.00  0.00     0.280 C 
ENDROOT
BRANCH   4  12
HETATM   12  C9  UNL     1     -21.907  93.127  79.969  1.00  0.00     0.255 C 
BRANCH  12  13
HETATM   13  C10 UNL     1     -22.144  91.710  79.853  1.00  0.00     0.118 C 
BRANCH  13  14
HETATM   14  N5  UNL     1     -22.604  91.216  78.753  1.00  0.00    -0.385 N 
ATOM     15  H52 UNL     1     -23.615  91.196  78.623  1.00  0.00     0.157 HD
ATOM     16  H51 UNL     1     -21.963  90.860  78.044  1.00  0.00     0.157 HD
ENDBRANCH  13  14
BRANCH  13  17
HETATM   17  N6  UNL     1     -21.888  90.828  80.915  1.00  0.00    -0.376 N 
ATOM     18  H6  UNL     1     -21.362  89.980  80.707  1.00  0.00     0.161 HD
BRANCH  17  19
HETATM   19  C11 UNL     1     -22.316  91.034  82.284  1.00  0.00     0.123 C 
BRANCH  19  20
HETATM   20  C12 UNL     1     -23.426  90.108  82.673  1.00  0.00     0.047 C 
BRANCH  20  21
HETATM   21  C13 UNL     1     -24.374  89.715  81.601  1.00  0.00     0.238 C 
BRANCH  21  22
HETATM   22  N7  UNL     1     -25.637  90.359  81.556  1.00  0.00    -0.068 N 
HETATM   23  C14 UNL     1     -26.316  90.338  82.855  1.00  0.00     0.272 C 
HETATM   24  C15 UNL     1     -25.693  91.694  81.076  1.00  0.00     0.272 C 
BRANCH  22  25
HETATM   25  C16 UNL     1     -26.495  89.516  80.700  1.00  0.00     0.314 C 
BRANCH  25  26
HETATM   26  C17 UNL     1     -25.806  88.942  79.550  1.00  0.00     0.148 C 
HETATM   27  C18 UNL     1     -25.820  87.454  79.312  1.00  0.00     0.092 C 
HETATM   28  O2  UNL     1     -25.198  89.594  78.742  1.00  0.00    -0.297 OA
ENDBRANCH  25  26
ENDBRANCH  22  25
ENDBRANCH  21  22
ENDBRANCH  20  21
ENDBRANCH  19  20
ENDBRANCH  17  19
ENDBRANCH  13  17
ENDBRANCH  12  13
ENDBRANCH   4  12
BRANCH   1  29
HETATM   29  C6  UNL     1     -16.767  92.696  81.584  1.00  0.00     0.208 C 
BRANCH  29  30
HETATM   30  C5  UNL     1     -16.682  92.166  82.940  1.00  0.00     0.018 C 
BRANCH  30  31
HETATM   31  C4  UNL     1     -16.441  93.042  84.120  1.00  0.00     0.153 C 
BRANCH  31  32
HETATM   32  N2  UNL     1     -15.293  92.589  84.907  1.00  0.00    -0.340 N 
HETATM   33  C3  UNL     1     -14.951  93.229  86.103  1.00  0.00     0.316 C 
HETATM   34  N1  UNL     1     -13.819  92.772  86.840  1.00  0.00    -0.343 N 
HETATM   35  O1  UNL     1     -15.601  94.212  86.584  1.00  0.00    -0.247 OA
ATOM     36  H1  UNL     1     -13.274  91.987  86.482  1.00  0.00     0.164 HD
ATOM     37  H2  UNL     1     -14.738  91.799  84.581  1.00  0.00     0.164 HD
BRANCH  34  38
HETATM   38  C2  UNL     1     -13.423  93.402  88.092  1.00  0.00     0.120 C 
HETATM   39  C1  UNL     1     -12.222  94.299  87.927  1.00  0.00     0.026 C 
ENDBRANCH  34  38
ENDBRANCH  31  32
ENDBRANCH  30  31
ENDBRANCH  29  30
ENDBRANCH   1  29
BRANCH   9  40
HETATM   40  C22 UNL     1     -16.232  95.327  81.162  1.00  0.00     0.314 C 
BRANCH  40  41
HETATM   41  N9  UNL     1     -15.652  96.403  80.426  1.00  0.00    -0.073 N 
ATOM     42  H93 UNL     1     -14.635  96.357  80.495  1.00  0.00     0.274 HD
ATOM     43  H92 UNL     1     -15.778  96.243  79.427  1.00  0.00     0.274 HD
ATOM     44  H91 UNL     1     -15.971  97.342  80.667  1.00  0.00     0.274 HD
ENDBRANCH  40  41
ENDBRANCH   9  40
TORSDOF 17
ENDMDL
