MODEL 1
REMARK VINA RESULT: -8.669918567      0.000      0.000
REMARK  16 active torsions:
REMARK  status: ('A' for Active; 'I' for Inactive)
REMARK    1  A    between atoms: C4_6  and  N2_8 
REMARK    2  A    between atoms: N3_10  and  N4_12 
REMARK    3  A    between atoms: N4_12  and  N5_14 
REMARK    4  A    between atoms: C9_23  and  C10_24 
REMARK    5  A    between atoms: C10_24  and  C11_25 
REMARK       I    between atoms: C11_25  and  N8_27 
REMARK    6  A    between atoms: N8_27  and  C12_29 
REMARK    7  A    between atoms: C12_29  and  C13_30 
REMARK    8  A    between atoms: C13_30  and  C14_31 
REMARK    9  A    between atoms: C14_31  and  C15_32 
REMARK   10  A    between atoms: C15_32  and  C16_33 
REMARK   11  A    between atoms: C16_33  and  C17_34 
REMARK   12  A    between atoms: C17_34  and  C18_35 
REMARK   13  A    between atoms: C18_35  and  C19_36 
REMARK   14  A    between atoms: C19_36  and  C20_37 
REMARK   15  A    between atoms: C20_37  and  C21_38 
REMARK   16  A    between atoms: C21_38  and  C22_39 
ROOT
HETATM    1  N2  UNL     1     -20.252  92.846  80.895  1.00  0.00    -0.160 N 
HETATM    2  C6  UNL     1     -20.101  93.993  80.073  1.00  0.00     0.708 C 
HETATM    3  N3  UNL     1     -21.004  94.830  79.772  1.00  0.00    -0.117 N 
ATOM      4  H3  UNL     1     -20.677  95.581  79.164  1.00  0.00     0.207 HD
HETATM    5  N6  UNL     1     -18.779  94.268  79.515  1.00  0.00    -0.136 N 
HETATM    6  C7  UNL     1     -18.551  95.405  78.676  1.00  0.00     0.180 C 
HETATM    7  C8  UNL     1     -17.734  93.373  79.835  1.00  0.00     0.338 C 
HETATM    8  O1  UNL     1     -16.553  93.519  79.404  1.00  0.00    -0.246 OA
HETATM    9  N7  UNL     1     -18.009  92.260  80.672  1.00  0.00    -0.320 N 
ATOM     10  H7  UNL     1     -17.488  91.387  80.597  1.00  0.00     0.166 HD
HETATM   11  C9  UNL     1     -19.088  92.438  81.655  1.00  0.00     0.220 C 
ENDROOT
BRANCH  11  12
HETATM   12  C10 UNL     1     -18.708  93.367  82.756  1.00  0.00     0.150 C 
BRANCH  12  13
HETATM   13  C11 UNL     1     -17.273  93.181  83.074  1.00  0.00     0.221 C 
HETATM   14  O2  UNL     1     -16.445  94.069  82.762  1.00  0.00    -0.273 OA
HETATM   15  N8  UNL     1     -16.763  92.015  83.737  1.00  0.00    -0.361 N 
ATOM     16  H8  UNL     1     -17.408  91.272  84.006  1.00  0.00     0.162 HD
BRANCH  15  17
HETATM   17  C12 UNL     1     -15.383  91.875  84.025  1.00  0.00     0.122 C 
BRANCH  17  18
HETATM   18  C13 UNL     1     -14.903  92.097  85.393  1.00  0.00     0.020 C 
BRANCH  18  19
HETATM   19  C14 UNL     1     -15.071  93.427  86.036  1.00  0.00     0.002 C 
BRANCH  19  20
HETATM   20  C15 UNL     1     -14.681  93.477  87.444  1.00  0.00     0.000 C 
BRANCH  20  21
HETATM   21  C16 UNL     1     -13.188  93.406  87.691  1.00  0.00     0.000 C 
BRANCH  21  22
HETATM   22  C17 UNL     1     -12.468  94.691  87.484  1.00  0.00     0.000 C 
BRANCH  22  23
HETATM   23  C18 UNL     1     -11.406  94.948  88.530  1.00  0.00     0.000 C 
BRANCH  23  24
HETATM   24  C19 UNL     1     -12.006  95.029  89.892  1.00  0.00     0.000 C 
BRANCH  24  25
HETATM   25  C20 UNL     1     -12.297  96.420  90.365  1.00  0.00     0.009 C 
BRANCH  25  26
HETATM   26  C21 UNL     1     -13.808  96.655  90.490  1.00  0.00     0.099 C 
BRANCH  26  27
HETATM   27  C22 UNL     1     -14.247  97.309  89.214  1.00  0.00     0.231 C 
HETATM   28  N9  UNL     1     -15.330  96.767  88.447  1.00  0.00    -0.062 NA
HETATM   29  O3  UNL     1     -13.699  98.343  88.764  1.00  0.00    -0.277 OA
ENDBRANCH  26  27
ENDBRANCH  25  26
ENDBRANCH  24  25
ENDBRANCH  23  24
ENDBRANCH  22  23
ENDBRANCH  21  22
ENDBRANCH  20  21
ENDBRANCH  19  20
ENDBRANCH  18  19
ENDBRANCH  17  18
ENDBRANCH  15  17
ENDBRANCH  12  13
ENDBRANCH  11  12
BRANCH   1  30
HETATM   30  C4  UNL     1     -21.477  92.159  80.930  1.00  0.00     0.071 C 
HETATM   31  C3  UNL     1     -22.065  91.653  79.854  1.00  0.00     0.131 A 
HETATM   32  N1  UNL     1     -23.165  90.963  79.541  1.00  0.00    -0.328 N 
HETATM   33  N10 UNL     1     -21.753  91.631  78.528  1.00  0.00    -0.328 N 
HETATM   34  C2  UNL     1     -22.862  90.941  78.246  1.00  0.00     0.098 A 
ATOM     35  H1  UNL     1     -23.943  90.594  80.087  1.00  0.00     0.169 HD
HETATM   36  C1  UNL     1     -23.415  90.450  77.159  1.00  0.00     0.063 C 
ATOM     37  H10 UNL     1     -20.979  91.995  77.972  1.00  0.00     0.169 HD
HETATM   38  C5  UNL     1     -22.165  91.954  82.225  1.00  0.00     0.073 C 
ENDBRANCH   1  30
BRANCH   3  39
HETATM   39  N4  UNL     1     -22.320  94.927  80.097  1.00  0.00    -0.235 N 
ATOM     40  H4  UNL     1     -22.629  94.894  81.069  1.00  0.00     0.208 HD
BRANCH  39  41
HETATM   41  N5  UNL     1     -23.162  95.063  79.135  1.00  0.00    -0.330 N 
ATOM     42  H52 UNL     1     -22.897  94.818  78.181  1.00  0.00     0.178 HD
ATOM     43  H51 UNL     1     -24.089  95.422  79.366  1.00  0.00     0.178 HD
ENDBRANCH  39  41
ENDBRANCH   3  39
TORSDOF 16
ENDMDL
MODEL 2
REMARK VINA RESULT: -8.644263948      3.244      5.679
REMARK  16 active torsions:
REMARK  status: ('A' for Active; 'I' for Inactive)
REMARK    1  A    between atoms: C4_6  and  N2_8 
REMARK    2  A    between atoms: N3_10  and  N4_12 
REMARK    3  A    between atoms: N4_12  and  N5_14 
REMARK    4  A    between atoms: C9_23  and  C10_24 
REMARK    5  A    between atoms: C10_24  and  C11_25 
REMARK       I    between atoms: C11_25  and  N8_27 
REMARK    6  A    between atoms: N8_27  and  C12_29 
REMARK    7  A    between atoms: C12_29  and  C13_30 
REMARK    8  A    between atoms: C13_30  and  C14_31 
REMARK    9  A    between atoms: C14_31  and  C15_32 
REMARK   10  A    between atoms: C15_32  and  C16_33 
REMARK   11  A    between atoms: C16_33  and  C17_34 
REMARK   12  A    between atoms: C17_34  and  C18_35 
REMARK   13  A    between atoms: C18_35  and  C19_36 
REMARK   14  A    between atoms: C19_36  and  C20_37 
REMARK   15  A    between atoms: C20_37  and  C21_38 
REMARK   16  A    between atoms: C21_38  and  C22_39 
ROOT
HETATM    1  N2  UNL     1     -24.569  90.740  80.424  1.00  0.00    -0.160 N 
HETATM    2  C6  UNL     1     -25.354  90.050  81.384  1.00  0.00     0.708 C 
HETATM    3  N3  UNL     1     -25.998  88.974  81.200  1.00  0.00    -0.117 N 
ATOM      4  H3  UNL     1     -26.498  88.651  82.029  1.00  0.00     0.207 HD
HETATM    5  N6  UNL     1     -25.432  90.606  82.733  1.00  0.00    -0.136 N 
HETATM    6  C7  UNL     1     -26.205  89.966  83.755  1.00  0.00     0.180 C 
HETATM    7  C8  UNL     1     -24.718  91.796  82.993  1.00  0.00     0.338 C 
HETATM    8  O1  UNL     1     -24.720  92.360  84.127  1.00  0.00    -0.246 OA
HETATM    9  N7  UNL     1     -23.964  92.393  81.949  1.00  0.00    -0.320 N 
ATOM     10  H7  UNL     1     -23.803  93.399  81.907  1.00  0.00     0.166 HD
HETATM   11  C9  UNL     1     -23.430  91.478  80.930  1.00  0.00     0.220 C 
ENDROOT
BRANCH  11  12
HETATM   12  C10 UNL     1     -22.322  90.630  81.451  1.00  0.00     0.150 C 
BRANCH  12  13
HETATM   13  C11 UNL     1     -21.228  91.503  81.935  1.00  0.00     0.221 C 
HETATM   14  O2  UNL     1     -21.265  91.961  83.101  1.00  0.00    -0.273 OA
HETATM   15  N8  UNL     1     -20.099  91.864  81.126  1.00  0.00    -0.361 N 
ATOM     16  H8  UNL     1     -20.035  91.510  80.172  1.00  0.00     0.162 HD
BRANCH  15  17
HETATM   17  C12 UNL     1     -19.072  92.702  81.626  1.00  0.00     0.122 C 
BRANCH  17  18
HETATM   18  C13 UNL     1     -17.695  92.516  81.157  1.00  0.00     0.020 C 
BRANCH  18  19
HETATM   19  C14 UNL     1     -16.783  91.581  81.868  1.00  0.00     0.002 C 
BRANCH  19  20
HETATM   20  C15 UNL     1     -15.862  92.222  82.804  1.00  0.00     0.000 C 
BRANCH  20  21
HETATM   21  C16 UNL     1     -16.012  91.777  84.245  1.00  0.00     0.000 C 
BRANCH  21  22
HETATM   22  C17 UNL     1     -14.917  92.228  85.146  1.00  0.00     0.000 C 
BRANCH  22  23
HETATM   23  C18 UNL     1     -15.253  93.497  85.895  1.00  0.00     0.000 C 
BRANCH  23  24
HETATM   24  C19 UNL     1     -14.640  93.494  87.254  1.00  0.00     0.000 C 
BRANCH  24  25
HETATM   25  C20 UNL     1     -13.213  93.943  87.298  1.00  0.00     0.009 C 
BRANCH  25  26
HETATM   26  C21 UNL     1     -12.756  94.192  88.741  1.00  0.00     0.099 C 
BRANCH  26  27
HETATM   27  C22 UNL     1     -12.327  95.626  88.814  1.00  0.00     0.231 C 
HETATM   28  N9  UNL     1     -12.144  96.399  87.621  1.00  0.00    -0.062 NA
HETATM   29  O3  UNL     1     -12.111  96.210  89.902  1.00  0.00    -0.277 OA
ENDBRANCH  26  27
ENDBRANCH  25  26
ENDBRANCH  24  25
ENDBRANCH  23  24
ENDBRANCH  22  23
ENDBRANCH  21  22
ENDBRANCH  20  21
ENDBRANCH  19  20
ENDBRANCH  18  19
ENDBRANCH  17  18
ENDBRANCH  15  17
ENDBRANCH  12  13
ENDBRANCH  11  12
BRANCH   1  30
HETATM   30  C4  UNL     1     -24.922  90.700  79.064  1.00  0.00     0.071 C 
HETATM   31  C3  UNL     1     -26.042  91.222  78.581  1.00  0.00     0.131 A 
HETATM   32  N1  UNL     1     -26.656  91.370  77.404  1.00  0.00    -0.328 N 
HETATM   33  N10 UNL     1     -27.101  91.872  79.141  1.00  0.00    -0.328 N 
HETATM   34  C2  UNL     1     -27.690  92.005  77.949  1.00  0.00     0.098 A 
ATOM     35  H1  UNL     1     -26.421  91.099  76.450  1.00  0.00     0.169 HD
HETATM   36  C1  UNL     1     -28.808  92.535  77.505  1.00  0.00     0.063 C 
ATOM     37  H10 UNL     1     -27.345  92.148  80.092  1.00  0.00     0.169 HD
HETATM   38  C5  UNL     1     -24.006  90.065  78.089  1.00  0.00     0.073 C 
ENDBRANCH   1  30
BRANCH   3  39
HETATM   39  N4  UNL     1     -26.157  88.164  80.120  1.00  0.00    -0.235 N 
ATOM     40  H4  UNL     1     -26.799  88.409  79.366  1.00  0.00     0.208 HD
BRANCH  39  41
HETATM   41  N5  UNL     1     -25.469  87.079  80.084  1.00  0.00    -0.330 N 
ATOM     42  H52 UNL     1     -24.479  87.089  80.330  1.00  0.00     0.178 HD
ATOM     43  H51 UNL     1     -25.950  86.224  79.803  1.00  0.00     0.178 HD
ENDBRANCH  39  41
ENDBRANCH   3  39
TORSDOF 16
ENDMDL
MODEL 3
REMARK VINA RESULT: -8.447381062      2.990      5.023
REMARK  16 active torsions:
REMARK  status: ('A' for Active; 'I' for Inactive)
REMARK    1  A    between atoms: C4_6  and  N2_8 
REMARK    2  A    between atoms: N3_10  and  N4_12 
REMARK    3  A    between atoms: N4_12  and  N5_14 
REMARK    4  A    between atoms: C9_23  and  C10_24 
REMARK    5  A    between atoms: C10_24  and  C11_25 
REMARK       I    between atoms: C11_25  and  N8_27 
REMARK    6  A    between atoms: N8_27  and  C12_29 
REMARK    7  A    between atoms: C12_29  and  C13_30 
REMARK    8  A    between atoms: C13_30  and  C14_31 
REMARK    9  A    between atoms: C14_31  and  C15_32 
REMARK   10  A    between atoms: C15_32  and  C16_33 
REMARK   11  A    between atoms: C16_33  and  C17_34 
REMARK   12  A    between atoms: C17_34  and  C18_35 
REMARK   13  A    between atoms: C18_35  and  C19_36 
REMARK   14  A    between atoms: C19_36  and  C20_37 
REMARK   15  A    between atoms: C20_37  and  C21_38 
REMARK   16  A    between atoms: C21_38  and  C22_39 
ROOT
HETATM    1  N2  UNL     1     -23.457  92.313  80.723  1.00  0.00    -0.160 N 
HETATM    2  C6  UNL     1     -24.116  91.172  80.199  1.00  0.00     0.708 C 
HETATM    3  N3  UNL     1     -24.123  90.793  78.989  1.00  0.00    -0.117 N 
ATOM      4  H3  UNL     1     -24.664  89.943  78.831  1.00  0.00     0.207 HD
HETATM    5  N6  UNL     1     -24.858  90.321  81.127  1.00  0.00    -0.136 N 
HETATM    6  C7  UNL     1     -25.550  89.153  80.671  1.00  0.00     0.180 C 
HETATM    7  C8  UNL     1     -24.867  90.692  82.490  1.00  0.00     0.338 C 
HETATM    8  O1  UNL     1     -25.479  90.025  83.375  1.00  0.00    -0.246 OA
HETATM    9  N7  UNL     1     -24.166  91.858  82.894  1.00  0.00    -0.320 N 
ATOM     10  H7  UNL     1     -24.461  92.414  83.696  1.00  0.00     0.166 HD
HETATM   11  C9  UNL     1     -22.989  92.218  82.090  1.00  0.00     0.220 C 
ENDROOT
BRANCH  11  12
HETATM   12  C10 UNL     1     -21.851  91.278  82.294  1.00  0.00     0.150 C 
BRANCH  12  13
HETATM   13  C11 UNL     1     -20.577  92.025  82.183  1.00  0.00     0.221 C 
HETATM   14  O2  UNL     1     -20.296  92.906  83.029  1.00  0.00    -0.273 OA
HETATM   15  N8  UNL     1     -19.622  91.792  81.139  1.00  0.00    -0.361 N 
ATOM     16  H8  UNL     1     -19.817  91.082  80.432  1.00  0.00     0.162 HD
BRANCH  15  17
HETATM   17  C12 UNL     1     -18.413  92.528  81.067  1.00  0.00     0.122 C 
BRANCH  17  18
HETATM   18  C13 UNL     1     -17.134  91.838  81.267  1.00  0.00     0.020 C 
BRANCH  18  19
HETATM   19  C14 UNL     1     -16.421  91.947  82.567  1.00  0.00     0.002 C 
BRANCH  19  20
HETATM   20  C15 UNL     1     -16.805  93.101  83.378  1.00  0.00     0.000 C 
BRANCH  20  21
HETATM   21  C16 UNL     1     -15.995  93.283  84.645  1.00  0.00     0.000 C 
BRANCH  21  22
HETATM   22  C17 UNL     1     -15.013  92.197  84.909  1.00  0.00     0.000 C 
BRANCH  22  23
HETATM   23  C18 UNL     1     -14.311  92.346  86.240  1.00  0.00     0.000 C 
BRANCH  23  24
HETATM   24  C19 UNL     1     -14.542  93.701  86.817  1.00  0.00     0.000 C 
BRANCH  24  25
HETATM   25  C20 UNL     1     -13.485  94.163  87.771  1.00  0.00     0.009 C 
BRANCH  25  26
HETATM   26  C21 UNL     1     -14.036  95.220  88.736  1.00  0.00     0.099 C 
BRANCH  26  27
HETATM   27  C22 UNL     1     -13.339  96.505  88.408  1.00  0.00     0.231 C 
HETATM   28  N9  UNL     1     -13.655  97.713  89.114  1.00  0.00    -0.062 NA
HETATM   29  O3  UNL     1     -12.461  96.588  87.517  1.00  0.00    -0.277 OA
ENDBRANCH  26  27
ENDBRANCH  25  26
ENDBRANCH  24  25
ENDBRANCH  23  24
ENDBRANCH  22  23
ENDBRANCH  21  22
ENDBRANCH  20  21
ENDBRANCH  19  20
ENDBRANCH  18  19
ENDBRANCH  17  18
ENDBRANCH  15  17
ENDBRANCH  12  13
ENDBRANCH  11  12
BRANCH   1  30
HETATM   30  C4  UNL     1     -23.302  93.465  79.932  1.00  0.00     0.071 C 
HETATM   31  C3  UNL     1     -24.274  94.338  79.708  1.00  0.00     0.131 A 
HETATM   32  N1  UNL     1     -24.462  95.487  79.054  1.00  0.00    -0.328 N 
HETATM   33  N10 UNL     1     -25.580  94.418  80.091  1.00  0.00    -0.328 N 
HETATM   34  C2  UNL     1     -25.737  95.567  79.427  1.00  0.00     0.098 A 
ATOM     35  H1  UNL     1     -23.858  96.079  78.484  1.00  0.00     0.169 HD
HETATM   36  C1  UNL     1     -26.723  96.413  79.229  1.00  0.00     0.063 C 
ATOM     37  H10 UNL     1     -26.193  93.834  80.660  1.00  0.00     0.169 HD
HETATM   38  C5  UNL     1     -21.987  93.757  79.316  1.00  0.00     0.073 C 
ENDBRANCH   1  30
BRANCH   3  39
HETATM   39  N4  UNL     1     -23.554  91.293  77.860  1.00  0.00    -0.235 N 
ATOM     40  H4  UNL     1     -23.922  92.131  77.409  1.00  0.00     0.208 HD
BRANCH  39  41
HETATM   41  N5  UNL     1     -22.537  90.671  77.381  1.00  0.00    -0.330 N 
ATOM     42  H52 UNL     1     -22.204  90.878  76.439  1.00  0.00     0.178 HD
ATOM     43  H51 UNL     1     -22.086  89.974  77.975  1.00  0.00     0.178 HD
ENDBRANCH  39  41
ENDBRANCH   3  39
TORSDOF 16
ENDMDL
MODEL 4
REMARK VINA RESULT: -8.359938819      2.753      5.192
REMARK  16 active torsions:
REMARK  status: ('A' for Active; 'I' for Inactive)
REMARK    1  A    between atoms: C4_6  and  N2_8 
REMARK    2  A    between atoms: N3_10  and  N4_12 
REMARK    3  A    between atoms: N4_12  and  N5_14 
REMARK    4  A    between atoms: C9_23  and  C10_24 
REMARK    5  A    between atoms: C10_24  and  C11_25 
REMARK       I    between atoms: C11_25  and  N8_27 
REMARK    6  A    between atoms: N8_27  and  C12_29 
REMARK    7  A    between atoms: C12_29  and  C13_30 
REMARK    8  A    between atoms: C13_30  and  C14_31 
REMARK    9  A    between atoms: C14_31  and  C15_32 
REMARK   10  A    between atoms: C15_32  and  C16_33 
REMARK   11  A    between atoms: C16_33  and  C17_34 
REMARK   12  A    between atoms: C17_34  and  C18_35 
REMARK   13  A    between atoms: C18_35  and  C19_36 
REMARK   14  A    between atoms: C19_36  and  C20_37 
REMARK   15  A    between atoms: C20_37  and  C21_38 
REMARK   16  A    between atoms: C21_38  and  C22_39 
ROOT
HETATM    1  N2  UNL     1     -24.372  91.112  79.962  1.00  0.00    -0.160 N 
HETATM    2  C6  UNL     1     -24.904  90.250  80.956  1.00  0.00     0.708 C 
HETATM    3  N3  UNL     1     -25.383  89.091  80.773  1.00  0.00    -0.117 N 
ATOM      4  H3  UNL     1     -25.713  88.646  81.629  1.00  0.00     0.207 HD
HETATM    5  N6  UNL     1     -24.899  90.715  82.342  1.00  0.00    -0.136 N 
HETATM    6  C7  UNL     1     -25.420  89.901  83.398  1.00  0.00     0.180 C 
HETATM    7  C8  UNL     1     -24.360  91.995  82.601  1.00  0.00     0.338 C 
HETATM    8  O1  UNL     1     -24.308  92.492  83.764  1.00  0.00    -0.246 OA
HETATM    9  N7  UNL     1     -23.854  92.763  81.520  1.00  0.00    -0.320 N 
ATOM     10  H7  UNL     1     -23.865  93.783  81.532  1.00  0.00     0.166 HD
HETATM   11  C9  UNL     1     -23.313  92.006  80.382  1.00  0.00     0.220 C 
ENDROOT
BRANCH  11  12
HETATM   12  C10 UNL     1     -22.024  91.334  80.707  1.00  0.00     0.150 C 
BRANCH  12  13
HETATM   13  C11 UNL     1     -21.080  92.334  81.258  1.00  0.00     0.221 C 
HETATM   14  O2  UNL     1     -21.188  93.539  80.932  1.00  0.00    -0.273 OA
HETATM   15  N8  UNL     1     -20.022  91.994  82.166  1.00  0.00    -0.361 N 
ATOM     16  H8  UNL     1     -19.904  91.022  82.453  1.00  0.00     0.162 HD
BRANCH  15  17
HETATM   17  C12 UNL     1     -19.139  92.980  82.671  1.00  0.00     0.122 C 
BRANCH  17  18
HETATM   18  C13 UNL     1     -17.797  93.113  82.093  1.00  0.00     0.020 C 
BRANCH  18  19
HETATM   19  C14 UNL     1     -16.808  92.013  82.240  1.00  0.00     0.002 C 
BRANCH  19  20
HETATM   20  C15 UNL     1     -16.478  91.671  83.623  1.00  0.00     0.000 C 
BRANCH  20  21
HETATM   21  C16 UNL     1     -15.781  92.771  84.398  1.00  0.00     0.000 C 
BRANCH  21  22
HETATM   22  C17 UNL     1     -14.704  92.296  85.307  1.00  0.00     0.000 C 
BRANCH  22  23
HETATM   23  C18 UNL     1     -14.521  93.181  86.519  1.00  0.00     0.000 C 
BRANCH  23  24
HETATM   24  C19 UNL     1     -15.505  94.301  86.516  1.00  0.00     0.000 C 
BRANCH  24  25
HETATM   25  C20 UNL     1     -15.188  95.415  87.465  1.00  0.00     0.009 C 
BRANCH  25  26
HETATM   26  C21 UNL     1     -14.065  95.015  88.430  1.00  0.00     0.099 C 
BRANCH  26  27
HETATM   27  C22 UNL     1     -13.073  96.138  88.423  1.00  0.00     0.231 C 
HETATM   28  N9  UNL     1     -11.916  96.090  87.578  1.00  0.00    -0.062 NA
HETATM   29  O3  UNL     1     -13.203  97.156  89.142  1.00  0.00    -0.277 OA
ENDBRANCH  26  27
ENDBRANCH  25  26
ENDBRANCH  24  25
ENDBRANCH  23  24
ENDBRANCH  22  23
ENDBRANCH  21  22
ENDBRANCH  20  21
ENDBRANCH  19  20
ENDBRANCH  18  19
ENDBRANCH  17  18
ENDBRANCH  15  17
ENDBRANCH  12  13
ENDBRANCH  11  12
BRANCH   1  30
HETATM   30  C4  UNL     1     -24.886  91.082  78.654  1.00  0.00     0.071 C 
HETATM   31  C3  UNL     1     -24.173  90.726  77.594  1.00  0.00     0.131 A 
HETATM   32  N1  UNL     1     -24.337  90.577  76.277  1.00  0.00    -0.328 N 
HETATM   33  N10 UNL     1     -22.881  90.334  77.411  1.00  0.00    -0.328 N 
HETATM   34  C2  UNL     1     -23.076  90.195  76.096  1.00  0.00     0.098 A 
ATOM     35  H1  UNL     1     -25.129  90.707  75.648  1.00  0.00     0.169 HD
HETATM   36  C1  UNL     1     -22.341  89.834  75.069  1.00  0.00     0.063 C 
ATOM     37  H10 UNL     1     -22.082  90.200  78.032  1.00  0.00     0.169 HD
HETATM   38  C5  UNL     1     -26.302  91.444  78.417  1.00  0.00     0.073 C 
ENDBRANCH   1  30
BRANCH   3  39
HETATM   39  N4  UNL     1     -25.545  88.322  79.664  1.00  0.00    -0.235 N 
ATOM     40  H4  UNL     1     -25.509  88.728  78.729  1.00  0.00     0.208 HD
BRANCH  39  41
HETATM   41  N5  UNL     1     -25.746  87.064  79.836  1.00  0.00    -0.330 N 
ATOM     42  H52 UNL     1     -25.899  86.691  80.773  1.00  0.00     0.178 HD
ATOM     43  H51 UNL     1     -25.744  86.468  79.008  1.00  0.00     0.178 HD
ENDBRANCH  39  41
ENDBRANCH   3  39
TORSDOF 16
ENDMDL
MODEL 5
REMARK VINA RESULT: -8.347499822      2.013      3.722
REMARK  16 active torsions:
REMARK  status: ('A' for Active; 'I' for Inactive)
REMARK    1  A    between atoms: C4_6  and  N2_8 
REMARK    2  A    between atoms: N3_10  and  N4_12 
REMARK    3  A    between atoms: N4_12  and  N5_14 
REMARK    4  A    between atoms: C9_23  and  C10_24 
REMARK    5  A    between atoms: C10_24  and  C11_25 
REMARK       I    between atoms: C11_25  and  N8_27 
REMARK    6  A    between atoms: N8_27  and  C12_29 
REMARK    7  A    between atoms: C12_29  and  C13_30 
REMARK    8  A    between atoms: C13_30  and  C14_31 
REMARK    9  A    between atoms: C14_31  and  C15_32 
REMARK   10  A    between atoms: C15_32  and  C16_33 
REMARK   11  A    between atoms: C16_33  and  C17_34 
REMARK   12  A    between atoms: C17_34  and  C18_35 
REMARK   13  A    between atoms: C18_35  and  C19_36 
REMARK   14  A    between atoms: C19_36  and  C20_37 
REMARK   15  A    between atoms: C20_37  and  C21_38 
REMARK   16  A    between atoms: C21_38  and  C22_39 
ROOT
HETATM    1  N2  UNL     1     -20.382  94.460  80.055  1.00  0.00    -0.160 N 
HETATM    2  C6  UNL     1     -21.361  93.442  79.927  1.00  0.00     0.708 C 
HETATM    3  N3  UNL     1     -22.108  93.234  78.925  1.00  0.00    -0.117 N 
ATOM      4  H3  UNL     1     -22.745  92.446  79.047  1.00  0.00     0.207 HD
HETATM    5  N6  UNL     1     -21.539  92.517  81.045  1.00  0.00    -0.136 N 
HETATM    6  C7  UNL     1     -22.508  91.465  80.990  1.00  0.00     0.180 C 
HETATM    7  C8  UNL     1     -20.718  92.697  82.180  1.00  0.00     0.338 C 
HETATM    8  O1  UNL     1     -20.791  91.952  83.201  1.00  0.00    -0.246 OA
HETATM    9  N7  UNL     1     -19.770  93.753  82.187  1.00  0.00    -0.320 N 
ATOM     10  H7  UNL     1     -19.478  94.210  83.051  1.00  0.00     0.166 HD
HETATM   11  C9  UNL     1     -19.231  94.151  80.879  1.00  0.00     0.220 C 
ENDROOT
BRANCH  11  12
HETATM   12  C10 UNL     1     -18.314  93.127  80.306  1.00  0.00     0.150 C 
BRANCH  12  13
HETATM   13  C11 UNL     1     -17.190  92.901  81.245  1.00  0.00     0.221 C 
HETATM   14  O2  UNL     1     -16.406  93.840  81.515  1.00  0.00    -0.273 OA
HETATM   15  N8  UNL     1     -16.942  91.639  81.878  1.00  0.00    -0.361 N 
ATOM     16  H8  UNL     1     -17.560  90.851  81.682  1.00  0.00     0.162 HD
BRANCH  15  17
HETATM   17  C12 UNL     1     -15.856  91.463  82.772  1.00  0.00     0.122 C 
BRANCH  17  18
HETATM   18  C13 UNL     1     -16.082  91.577  84.216  1.00  0.00     0.020 C 
BRANCH  18  19
HETATM   19  C14 UNL     1     -15.037  92.170  85.092  1.00  0.00     0.002 C 
BRANCH  19  20
HETATM   20  C15 UNL     1     -15.343  93.514  85.580  1.00  0.00     0.000 C 
BRANCH  20  21
HETATM   21  C16 UNL     1     -14.919  93.780  87.010  1.00  0.00     0.000 C 
BRANCH  21  22
HETATM   22  C17 UNL     1     -13.718  93.018  87.448  1.00  0.00     0.000 C 
BRANCH  22  23
HETATM   23  C18 UNL     1     -12.670  93.892  88.100  1.00  0.00     0.000 C 
BRANCH  23  24
HETATM   24  C19 UNL     1     -12.872  95.325  87.741  1.00  0.00     0.000 C 
BRANCH  24  25
HETATM   25  C20 UNL     1     -12.975  96.254  88.911  1.00  0.00     0.009 C 
BRANCH  25  26
HETATM   26  C21 UNL     1     -13.172  95.475  90.217  1.00  0.00     0.099 C 
BRANCH  26  27
HETATM   27  C22 UNL     1     -13.036  96.467  91.333  1.00  0.00     0.231 C 
HETATM   28  N9  UNL     1     -13.519  96.164  92.648  1.00  0.00    -0.062 NA
HETATM   29  O3  UNL     1     -12.503  97.591  91.173  1.00  0.00    -0.277 OA
ENDBRANCH  26  27
ENDBRANCH  25  26
ENDBRANCH  24  25
ENDBRANCH  23  24
ENDBRANCH  22  23
ENDBRANCH  21  22
ENDBRANCH  20  21
ENDBRANCH  19  20
ENDBRANCH  18  19
ENDBRANCH  17  18
ENDBRANCH  15  17
ENDBRANCH  12  13
ENDBRANCH  11  12
BRANCH   1  30
HETATM   30  C4  UNL     1     -20.563  95.698  79.414  1.00  0.00     0.071 C 
HETATM   31  C3  UNL     1     -19.854  96.093  78.366  1.00  0.00     0.131 A 
HETATM   32  N1  UNL     1     -19.774  97.142  77.544  1.00  0.00    -0.328 N 
HETATM   33  N10 UNL     1     -18.838  95.537  77.648  1.00  0.00    -0.328 N 
HETATM   34  C2  UNL     1     -18.782  96.601  76.841  1.00  0.00     0.098 A 
ATOM     35  H1  UNL     1     -20.282  98.024  77.478  1.00  0.00     0.169 HD
HETATM   36  C1  UNL     1     -18.062  96.959  75.802  1.00  0.00     0.063 C 
ATOM     37  H10 UNL     1     -18.324  94.657  77.703  1.00  0.00     0.169 HD
HETATM   38  C5  UNL     1     -21.609  96.626  79.900  1.00  0.00     0.073 C 
ENDBRANCH   1  30
BRANCH   3  39
HETATM   39  N4  UNL     1     -22.231  93.849  77.719  1.00  0.00    -0.235 N 
ATOM     40  H4  UNL     1     -21.453  93.883  77.061  1.00  0.00     0.208 HD
BRANCH  39  41
HETATM   41  N5  UNL     1     -23.364  94.389  77.439  1.00  0.00    -0.330 N 
ATOM     42  H52 UNL     1     -23.923  94.036  76.663  1.00  0.00     0.178 HD
ATOM     43  H51 UNL     1     -23.670  95.171  78.018  1.00  0.00     0.178 HD
ENDBRANCH  39  41
ENDBRANCH   3  39
TORSDOF 16
ENDMDL
