MODEL 1
REMARK VINA RESULT: -9.312871212      0.000      0.000
REMARK  17 active torsions:
REMARK  status: ('A' for Active; 'I' for Inactive)
REMARK    1  A    between atoms: C2_2  and  C3_3 
REMARK    2  A    between atoms: C5_5  and  C6_6 
REMARK    3  A    between atoms: C7_7  and  O1_8 
REMARK    4  A    between atoms: C7_7  and  N1_10 
REMARK    5  A    between atoms: N1_10  and  C9_12 
REMARK    6  A    between atoms: C9_12  and  C10_13 
REMARK    7  A    between atoms: C11_18  and  C12_19 
REMARK    8  A    between atoms: C12_19  and  N4_20 
REMARK    9  A    between atoms: N4_20  and  C13_22 
REMARK   10  A    between atoms: C13_22  and  C14_23 
REMARK   11  A    between atoms: C14_23  and  C15_24 
REMARK   12  A    between atoms: C15_24  and  C16_25 
REMARK   13  A    between atoms: C16_25  and  C17_26 
REMARK   14  A    between atoms: C17_26  and  C18_27 
REMARK   15  A    between atoms: C20_31  and  C21_32 
REMARK   16  A    between atoms: C21_32  and  N6_33 
REMARK   17  A    between atoms: C24_41  and  O4_42 
ROOT
HETATM    1  C13 UNL     1     -16.949  93.029  83.408  1.00  0.00     0.119 C 
ENDROOT
BRANCH   1   2
HETATM    2  N4  UNL     1     -18.137  92.298  83.025  1.00  0.00    -0.397 N 
ATOM      3  H4  UNL     1     -18.116  91.280  83.090  1.00  0.00     0.158 HD
BRANCH   2   4
HETATM    4  C12 UNL     1     -19.312  92.903  82.569  1.00  0.00     0.113 C 
BRANCH   4   5
HETATM    5  C11 UNL     1     -19.762  92.814  81.334  1.00  0.00     0.058 A 
HETATM    6  C3  UNL     1     -19.260  93.380  80.205  1.00  0.00    -0.007 A 
HETATM    7  C4  UNL     1     -20.112  92.943  79.163  1.00  0.00     0.043 A 
HETATM    8  C5  UNL     1     -21.099  92.138  79.648  1.00  0.00     0.037 A 
HETATM    9  N3  UNL     1     -20.856  92.080  80.981  1.00  0.00    -0.354 N 
ATOM     10  H3  UNL     1     -21.423  91.550  81.642  1.00  0.00     0.166 HD
BRANCH   6  11
HETATM   11  C2  UNL     1     -18.107  94.244  80.001  1.00  0.00     0.003 C 
HETATM   12  C1  UNL     1     -16.909  93.717  79.694  1.00  0.00     0.012 C 
ENDBRANCH   6  11
BRANCH   8  13
HETATM   13  C6  UNL     1     -22.087  91.524  79.041  1.00  0.00     0.085 C 
HETATM   14  C7  UNL     1     -23.379  91.064  79.311  1.00  0.00     0.140 C 
BRANCH  14  15
HETATM   15  O1  UNL     1     -23.907  90.472  78.179  1.00  0.00    -0.346 OA
ATOM     16  H1  UNL     1     -23.983  91.118  77.487  1.00  0.00     0.219 HD
ENDBRANCH  14  15
BRANCH  14  17
HETATM   17  N1  UNL     1     -24.305  91.003  80.337  1.00  0.00    -0.358 N 
HETATM   18  C8  UNL     1     -25.537  91.692  80.477  1.00  0.00     0.152 C 
BRANCH  17  19
HETATM   19  C9  UNL     1     -24.011  90.091  81.496  1.00  0.00     0.223 C 
BRANCH  19  20
HETATM   20  C10 UNL     1     -23.971  90.925  82.726  1.00  0.00     0.248 C 
HETATM   21  N2  UNL     1     -22.960  91.881  82.970  1.00  0.00    -0.061 NA
HETATM   22  O2  UNL     1     -24.855  90.807  83.616  1.00  0.00    -0.275 OA
ENDBRANCH  19  20
ENDBRANCH  17  19
ENDBRANCH  14  17
ENDBRANCH   8  13
ENDBRANCH   4   5
ENDBRANCH   2   4
ENDBRANCH   1   2
BRANCH   1  23
HETATM   23  C14 UNL     1     -15.716  92.242  83.091  1.00  0.00     0.020 C 
BRANCH  23  24
HETATM   24  C15 UNL     1     -14.969  91.965  84.371  1.00  0.00     0.002 C 
BRANCH  24  25
HETATM   25  C16 UNL     1     -15.147  93.102  85.359  1.00  0.00     0.005 C 
BRANCH  25  26
HETATM   26  C17 UNL     1     -14.418  92.712  86.629  1.00  0.00     0.043 C 
BRANCH  26  27
HETATM   27  C18 UNL     1     -13.946  93.924  87.347  1.00  0.00    -0.008 A 
HETATM   28  C19 UNL     1     -12.653  94.207  87.784  1.00  0.00     0.098 A 
HETATM   29  N5  UNL     1     -12.656  95.406  88.387  1.00  0.00    -0.365 N 
HETATM   30  C20 UNL     1     -13.906  95.929  88.368  1.00  0.00     0.063 A 
ATOM     31  H5  UNL     1     -11.840  95.857  88.799  1.00  0.00     0.165 HD
HETATM   32  C24 UNL     1     -14.702  95.008  87.723  1.00  0.00     0.097 A 
BRANCH  30  33
HETATM   33  C21 UNL     1     -14.319  97.245  88.937  1.00  0.00     0.210 C 
BRANCH  33  34
HETATM   34  N6  UNL     1     -13.659  97.512  90.199  1.00  0.00    -0.278 N 
HETATM   35  C22 UNL     1     -13.596  96.595  91.207  1.00  0.00     0.205 A 
HETATM   36  N7  UNL     1     -12.930  97.119  92.244  1.00  0.00    -0.302 N 
HETATM   37  C23 UNL     1     -12.586  98.357  91.871  1.00  0.00     0.340 A 
ATOM     38  H7  UNL     1     -12.727  96.667  93.135  1.00  0.00     0.171 HD
HETATM   39  O3  UNL     1     -11.941  99.149  92.608  1.00  0.00    -0.245 OA
HETATM   40  N8  UNL     1     -13.043  98.589  90.605  1.00  0.00    -0.248 N 
ATOM     41  H8  UNL     1     -12.923  99.451  90.072  1.00  0.00     0.192 HD
ENDBRANCH  33  34
ENDBRANCH  30  33
BRANCH  32  42
HETATM   42  O4  UNL     1     -16.062  95.189  87.505  1.00  0.00    -0.358 OA
ATOM     43  H4  UNL     1     -16.592  95.922  87.796  1.00  0.00     0.217 HD
ENDBRANCH  32  42
ENDBRANCH  26  27
ENDBRANCH  25  26
ENDBRANCH  24  25
ENDBRANCH  23  24
ENDBRANCH   1  23
TORSDOF 17
ENDMDL
MODEL 2
REMARK VINA RESULT: -9.140883864      1.945      2.815
REMARK  17 active torsions:
REMARK  status: ('A' for Active; 'I' for Inactive)
REMARK    1  A    between atoms: C2_2  and  C3_3 
REMARK    2  A    between atoms: C5_5  and  C6_6 
REMARK    3  A    between atoms: C7_7  and  O1_8 
REMARK    4  A    between atoms: C7_7  and  N1_10 
REMARK    5  A    between atoms: N1_10  and  C9_12 
REMARK    6  A    between atoms: C9_12  and  C10_13 
REMARK    7  A    between atoms: C11_18  and  C12_19 
REMARK    8  A    between atoms: C12_19  and  N4_20 
REMARK    9  A    between atoms: N4_20  and  C13_22 
REMARK   10  A    between atoms: C13_22  and  C14_23 
REMARK   11  A    between atoms: C14_23  and  C15_24 
REMARK   12  A    between atoms: C15_24  and  C16_25 
REMARK   13  A    between atoms: C16_25  and  C17_26 
REMARK   14  A    between atoms: C17_26  and  C18_27 
REMARK   15  A    between atoms: C20_31  and  C21_32 
REMARK   16  A    between atoms: C21_32  and  N6_33 
REMARK   17  A    between atoms: C24_41  and  O4_42 
ROOT
HETATM    1  C13 UNL     1     -16.533  94.228  80.191  1.00  0.00     0.119 C 
ENDROOT
BRANCH   1   2
HETATM    2  N4  UNL     1     -17.317  93.062  79.846  1.00  0.00    -0.397 N 
ATOM      3  H4  UNL     1     -16.875  92.146  79.923  1.00  0.00     0.158 HD
BRANCH   2   4
HETATM    4  C12 UNL     1     -18.645  93.116  79.412  1.00  0.00     0.113 C 
BRANCH   4   5
HETATM    5  C11 UNL     1     -19.690  92.982  80.202  1.00  0.00     0.058 A 
HETATM    6  C3  UNL     1     -20.491  93.950  80.720  1.00  0.00    -0.007 A 
HETATM    7  C4  UNL     1     -21.466  93.257  81.477  1.00  0.00     0.043 A 
HETATM    8  C5  UNL     1     -21.258  91.911  81.419  1.00  0.00     0.037 A 
HETATM    9  N3  UNL     1     -20.162  91.777  80.630  1.00  0.00    -0.354 N 
ATOM     10  H3  UNL     1     -19.741  90.881  80.387  1.00  0.00     0.166 HD
BRANCH   6  11
HETATM   11  C2  UNL     1     -20.453  95.398  80.579  1.00  0.00     0.003 C 
HETATM   12  C1  UNL     1     -21.423  96.160  81.115  1.00  0.00     0.012 C 
ENDBRANCH   6  11
BRANCH   8  13
HETATM   13  C6  UNL     1     -21.914  90.914  81.963  1.00  0.00     0.085 C 
HETATM   14  C7  UNL     1     -23.213  90.401  82.019  1.00  0.00     0.140 C 
BRANCH  14  15
HETATM   15  O1  UNL     1     -23.231  89.268  82.811  1.00  0.00    -0.346 OA
ATOM     16  H1  UNL     1     -22.550  88.669  82.528  1.00  0.00     0.219 HD
ENDBRANCH  14  15
BRANCH  14  17
HETATM   17  N1  UNL     1     -24.489  90.652  81.545  1.00  0.00    -0.358 N 
HETATM   18  C8  UNL     1     -25.224  89.970  80.542  1.00  0.00     0.152 C 
BRANCH  17  19
HETATM   19  C9  UNL     1     -25.247  91.803  82.145  1.00  0.00     0.223 C 
BRANCH  19  20
HETATM   20  C10 UNL     1     -26.199  91.244  83.142  1.00  0.00     0.248 C 
HETATM   21  N2  UNL     1     -27.599  91.255  82.953  1.00  0.00    -0.061 NA
HETATM   22  O2  UNL     1     -25.784  90.730  84.214  1.00  0.00    -0.275 OA
ENDBRANCH  19  20
ENDBRANCH  17  19
ENDBRANCH  14  17
ENDBRANCH   8  13
ENDBRANCH   4   5
ENDBRANCH   2   4
ENDBRANCH   1   2
BRANCH   1  23
HETATM   23  C14 UNL     1     -16.189  94.223  81.648  1.00  0.00     0.020 C 
BRANCH  23  24
HETATM   24  C15 UNL     1     -16.477  92.856  82.215  1.00  0.00     0.002 C 
BRANCH  24  25
HETATM   25  C16 UNL     1     -15.298  92.342  83.020  1.00  0.00     0.005 C 
BRANCH  25  26
HETATM   26  C17 UNL     1     -15.836  91.872  84.356  1.00  0.00     0.043 C 
BRANCH  26  27
HETATM   27  C18 UNL     1     -15.322  92.734  85.452  1.00  0.00    -0.008 A 
HETATM   28  C19 UNL     1     -14.282  92.457  86.338  1.00  0.00     0.098 A 
HETATM   29  N5  UNL     1     -14.140  93.500  87.171  1.00  0.00    -0.365 N 
HETATM   30  C20 UNL     1     -15.048  94.459  86.870  1.00  0.00     0.063 A 
ATOM     31  H5  UNL     1     -13.450  93.562  87.920  1.00  0.00     0.165 HD
HETATM   32  C24 UNL     1     -15.779  93.980  85.804  1.00  0.00     0.097 A 
BRANCH  30  33
HETATM   33  C21 UNL     1     -15.209  95.769  87.567  1.00  0.00     0.210 C 
BRANCH  33  34
HETATM   34  N6  UNL     1     -14.262  95.916  88.654  1.00  0.00    -0.278 N 
HETATM   35  C22 UNL     1     -12.945  96.211  88.449  1.00  0.00     0.205 A 
HETATM   36  N7  UNL     1     -12.318  96.284  89.630  1.00  0.00    -0.302 N 
HETATM   37  C23 UNL     1     -13.250  96.033  90.557  1.00  0.00     0.340 A 
ATOM     38  H7  UNL     1     -11.332  96.488  89.790  1.00  0.00     0.171 HD
HETATM   39  O3  UNL     1     -13.012  96.020  91.793  1.00  0.00    -0.245 OA
HETATM   40  N8  UNL     1     -14.448  95.807  89.941  1.00  0.00    -0.248 N 
ATOM     41  H8  UNL     1     -15.331  95.591  90.404  1.00  0.00     0.192 HD
ENDBRANCH  33  34
ENDBRANCH  30  33
BRANCH  32  42
HETATM   42  O4  UNL     1     -16.814  94.687  85.206  1.00  0.00    -0.358 OA
ATOM     43  H4  UNL     1     -16.957  95.626  85.241  1.00  0.00     0.217 HD
ENDBRANCH  32  42
ENDBRANCH  26  27
ENDBRANCH  25  26
ENDBRANCH  24  25
ENDBRANCH  23  24
ENDBRANCH   1  23
TORSDOF 17
ENDMDL
MODEL 3
REMARK VINA RESULT: -9.020886356      1.473      1.927
REMARK  17 active torsions:
REMARK  status: ('A' for Active; 'I' for Inactive)
REMARK    1  A    between atoms: C2_2  and  C3_3 
REMARK    2  A    between atoms: C5_5  and  C6_6 
REMARK    3  A    between atoms: C7_7  and  O1_8 
REMARK    4  A    between atoms: C7_7  and  N1_10 
REMARK    5  A    between atoms: N1_10  and  C9_12 
REMARK    6  A    between atoms: C9_12  and  C10_13 
REMARK    7  A    between atoms: C11_18  and  C12_19 
REMARK    8  A    between atoms: C12_19  and  N4_20 
REMARK    9  A    between atoms: N4_20  and  C13_22 
REMARK   10  A    between atoms: C13_22  and  C14_23 
REMARK   11  A    between atoms: C14_23  and  C15_24 
REMARK   12  A    between atoms: C15_24  and  C16_25 
REMARK   13  A    between atoms: C16_25  and  C17_26 
REMARK   14  A    between atoms: C17_26  and  C18_27 
REMARK   15  A    between atoms: C20_31  and  C21_32 
REMARK   16  A    between atoms: C21_32  and  N6_33 
REMARK   17  A    between atoms: C24_41  and  O4_42 
ROOT
HETATM    1  C13 UNL     1     -16.696  92.955  82.775  1.00  0.00     0.119 C 
ENDROOT
BRANCH   1   2
HETATM    2  N4  UNL     1     -17.389  92.781  81.517  1.00  0.00    -0.397 N 
ATOM      3  H4  UNL     1     -17.065  92.047  80.887  1.00  0.00     0.158 HD
BRANCH   2   4
HETATM    4  C12 UNL     1     -18.477  93.561  81.112  1.00  0.00     0.113 C 
BRANCH   4   5
HETATM    5  C11 UNL     1     -19.731  93.162  81.150  1.00  0.00     0.058 A 
HETATM    6  C3  UNL     1     -20.827  93.753  80.606  1.00  0.00    -0.007 A 
HETATM    7  C4  UNL     1     -21.907  92.897  80.928  1.00  0.00     0.043 A 
HETATM    8  C5  UNL     1     -21.476  91.821  81.646  1.00  0.00     0.037 A 
HETATM    9  N3  UNL     1     -20.139  92.015  81.764  1.00  0.00    -0.354 N 
ATOM     10  H3  UNL     1     -19.512  91.378  82.255  1.00  0.00     0.166 HD
BRANCH   6  11
HETATM   11  C2  UNL     1     -20.967  94.981  79.836  1.00  0.00     0.003 C 
HETATM   12  C1  UNL     1     -21.029  96.171  80.459  1.00  0.00     0.012 C 
ENDBRANCH   6  11
BRANCH   8  13
HETATM   13  C6  UNL     1     -22.130  90.797  82.140  1.00  0.00     0.085 C 
HETATM   14  C7  UNL     1     -23.391  90.199  82.053  1.00  0.00     0.140 C 
BRANCH  14  15
HETATM   15  O1  UNL     1     -23.437  89.090  82.877  1.00  0.00    -0.346 OA
ATOM     16  H1  UNL     1     -23.425  89.367  83.785  1.00  0.00     0.219 HD
ENDBRANCH  14  15
BRANCH  14  17
HETATM   17  N1  UNL     1     -24.609  90.349  81.415  1.00  0.00    -0.358 N 
HETATM   18  C8  UNL     1     -25.229  89.511  80.453  1.00  0.00     0.152 C 
BRANCH  17  19
HETATM   19  C9  UNL     1     -25.435  91.559  81.753  1.00  0.00     0.223 C 
BRANCH  19  20
HETATM   20  C10 UNL     1     -26.299  91.206  82.910  1.00  0.00     0.248 C 
HETATM   21  N2  UNL     1     -25.781  90.739  84.138  1.00  0.00    -0.061 NA
HETATM   22  O2  UNL     1     -27.552  91.312  82.836  1.00  0.00    -0.275 OA
ENDBRANCH  19  20
ENDBRANCH  17  19
ENDBRANCH  14  17
ENDBRANCH   8  13
ENDBRANCH   4   5
ENDBRANCH   2   4
ENDBRANCH   1   2
BRANCH   1  23
HETATM   23  C14 UNL     1     -15.841  91.763  83.078  1.00  0.00     0.020 C 
BRANCH  23  24
HETATM   24  C15 UNL     1     -15.669  91.653  84.571  1.00  0.00     0.002 C 
BRANCH  24  25
HETATM   25  C16 UNL     1     -14.937  92.862  85.125  1.00  0.00     0.005 C 
BRANCH  25  26
HETATM   26  C17 UNL     1     -14.372  92.467  86.473  1.00  0.00     0.043 C 
BRANCH  26  27
HETATM   27  C18 UNL     1     -13.978  93.676  87.243  1.00  0.00    -0.008 A 
HETATM   28  C19 UNL     1     -12.721  93.986  87.758  1.00  0.00     0.098 A 
HETATM   29  N5  UNL     1     -12.795  95.172  88.385  1.00  0.00    -0.365 N 
HETATM   30  C20 UNL     1     -14.056  95.658  88.305  1.00  0.00     0.063 A 
ATOM     31  H5  UNL     1     -12.017  95.637  88.852  1.00  0.00     0.165 HD
HETATM   32  C24 UNL     1     -14.787  94.729  87.596  1.00  0.00     0.097 A 
BRANCH  30  33
HETATM   33  C21 UNL     1     -14.541  96.949  88.877  1.00  0.00     0.210 C 
BRANCH  33  34
HETATM   34  N6  UNL     1     -13.816  97.305  90.080  1.00  0.00    -0.278 N 
HETATM   35  C22 UNL     1     -13.594  96.422  91.096  1.00  0.00     0.205 A 
HETATM   36  N7  UNL     1     -12.904  97.030  92.070  1.00  0.00    -0.302 N 
HETATM   37  C23 UNL     1     -12.704  98.285  91.650  1.00  0.00     0.340 A 
ATOM     38  H7  UNL     1     -12.594  96.620  92.951  1.00  0.00     0.171 HD
HETATM   39  O3  UNL     1     -12.082  99.149  92.322  1.00  0.00    -0.245 OA
HETATM   40  N8  UNL     1     -13.273  98.443  90.419  1.00  0.00    -0.248 N 
ATOM     41  H8  UNL     1     -13.274  99.299  89.863  1.00  0.00     0.192 HD
ENDBRANCH  33  34
ENDBRANCH  30  33
BRANCH  32  42
HETATM   42  O4  UNL     1     -16.137  94.875  87.306  1.00  0.00    -0.358 OA
ATOM     43  H4  UNL     1     -16.838  95.041  87.925  1.00  0.00     0.217 HD
ENDBRANCH  32  42
ENDBRANCH  26  27
ENDBRANCH  25  26
ENDBRANCH  24  25
ENDBRANCH  23  24
ENDBRANCH   1  23
TORSDOF 17
ENDMDL
MODEL 4
REMARK VINA RESULT: -8.918269880      2.138      3.518
REMARK  17 active torsions:
REMARK  status: ('A' for Active; 'I' for Inactive)
REMARK    1  A    between atoms: C2_2  and  C3_3 
REMARK    2  A    between atoms: C5_5  and  C6_6 
REMARK    3  A    between atoms: C7_7  and  O1_8 
REMARK    4  A    between atoms: C7_7  and  N1_10 
REMARK    5  A    between atoms: N1_10  and  C9_12 
REMARK    6  A    between atoms: C9_12  and  C10_13 
REMARK    7  A    between atoms: C11_18  and  C12_19 
REMARK    8  A    between atoms: C12_19  and  N4_20 
REMARK    9  A    between atoms: N4_20  and  C13_22 
REMARK   10  A    between atoms: C13_22  and  C14_23 
REMARK   11  A    between atoms: C14_23  and  C15_24 
REMARK   12  A    between atoms: C15_24  and  C16_25 
REMARK   13  A    between atoms: C16_25  and  C17_26 
REMARK   14  A    between atoms: C17_26  and  C18_27 
REMARK   15  A    between atoms: C20_31  and  C21_32 
REMARK   16  A    between atoms: C21_32  and  N6_33 
REMARK   17  A    between atoms: C24_41  and  O4_42 
ROOT
HETATM    1  C13 UNL     1     -17.119  93.629  79.741  1.00  0.00     0.119 C 
ENDROOT
BRANCH   1   2
HETATM    2  N4  UNL     1     -18.321  92.827  79.672  1.00  0.00    -0.397 N 
ATOM      3  H4  UNL     1     -18.248  91.833  79.885  1.00  0.00     0.158 HD
BRANCH   2   4
HETATM    4  C12 UNL     1     -19.578  93.335  79.331  1.00  0.00     0.113 C 
BRANCH   4   5
HETATM    5  C11 UNL     1     -20.720  92.751  79.627  1.00  0.00     0.058 A 
HETATM    6  C3  UNL     1     -21.937  92.920  79.045  1.00  0.00    -0.007 A 
HETATM    7  C4  UNL     1     -22.802  92.037  79.734  1.00  0.00     0.043 A 
HETATM    8  C5  UNL     1     -22.128  91.355  80.703  1.00  0.00     0.037 A 
HETATM    9  N3  UNL     1     -20.856  91.816  80.611  1.00  0.00    -0.354 N 
ATOM     10  H3  UNL     1     -20.091  91.502  81.207  1.00  0.00     0.166 HD
BRANCH   6  11
HETATM   11  C2  UNL     1     -22.359  93.778  77.948  1.00  0.00     0.003 C 
HETATM   12  C1  UNL     1     -23.245  93.334  77.040  1.00  0.00     0.012 C 
ENDBRANCH   6  11
BRANCH   8  13
HETATM   13  C6  UNL     1     -22.536  90.451  81.562  1.00  0.00     0.085 C 
HETATM   14  C7  UNL     1     -23.548  90.264  82.509  1.00  0.00     0.140 C 
BRANCH  14  15
HETATM   15  O1  UNL     1     -23.403  89.026  83.105  1.00  0.00    -0.346 OA
ATOM     16  H1  UNL     1     -23.346  89.130  84.047  1.00  0.00     0.219 HD
ENDBRANCH  14  15
BRANCH  14  17
HETATM   17  N1  UNL     1     -24.647  90.909  83.047  1.00  0.00    -0.358 N 
HETATM   18  C8  UNL     1     -24.901  92.298  83.174  1.00  0.00     0.152 C 
BRANCH  17  19
HETATM   19  C9  UNL     1     -25.762  90.060  83.592  1.00  0.00     0.223 C 
BRANCH  19  20
HETATM   20  C10 UNL     1     -26.863  90.067  82.593  1.00  0.00     0.248 C 
HETATM   21  N2  UNL     1     -26.764  89.421  81.341  1.00  0.00    -0.061 NA
HETATM   22  O2  UNL     1     -27.948  90.662  82.831  1.00  0.00    -0.275 OA
ENDBRANCH  19  20
ENDBRANCH  17  19
ENDBRANCH  14  17
ENDBRANCH   8  13
ENDBRANCH   4   5
ENDBRANCH   2   4
ENDBRANCH   1   2
BRANCH   1  23
HETATM   23  C14 UNL     1     -16.546  93.608  81.125  1.00  0.00     0.020 C 
BRANCH  23  24
HETATM   24  C15 UNL     1     -16.761  92.242  81.723  1.00  0.00     0.002 C 
BRANCH  24  25
HETATM   25  C16 UNL     1     -17.343  92.347  83.121  1.00  0.00     0.005 C 
BRANCH  25  26
HETATM   26  C17 UNL     1     -16.780  93.605  83.749  1.00  0.00     0.043 C 
BRANCH  26  27
HETATM   27  C18 UNL     1     -15.834  93.257  84.841  1.00  0.00    -0.008 A 
HETATM   28  C19 UNL     1     -14.922  92.203  84.875  1.00  0.00     0.098 A 
HETATM   29  N5  UNL     1     -14.260  92.247  86.043  1.00  0.00    -0.365 N 
HETATM   30  C20 UNL     1     -14.701  93.291  86.785  1.00  0.00     0.063 A 
ATOM     31  H5  UNL     1     -13.533  91.592  86.330  1.00  0.00     0.165 HD
HETATM   32  C24 UNL     1     -15.676  93.914  86.037  1.00  0.00     0.097 A 
BRANCH  30  33
HETATM   33  C21 UNL     1     -14.214  93.675  88.142  1.00  0.00     0.210 C 
BRANCH  33  34
HETATM   34  N6  UNL     1     -14.046  95.110  88.264  1.00  0.00    -0.278 N 
HETATM   35  C22 UNL     1     -13.032  95.787  87.652  1.00  0.00     0.205 A 
HETATM   36  N7  UNL     1     -13.130  97.091  87.944  1.00  0.00    -0.302 N 
HETATM   37  C23 UNL     1     -14.203  97.211  88.733  1.00  0.00     0.340 A 
ATOM     38  H7  UNL     1     -12.513  97.839  87.628  1.00  0.00     0.171 HD
HETATM   39  O3  UNL     1     -14.599  98.310  89.203  1.00  0.00    -0.245 OA
HETATM   40  N8  UNL     1     -14.761  95.979  88.925  1.00  0.00    -0.248 N 
ATOM     41  H8  UNL     1     -15.589  95.774  89.484  1.00  0.00     0.192 HD
ENDBRANCH  33  34
ENDBRANCH  30  33
BRANCH  32  42
HETATM   42  O4  UNL     1     -16.371  95.038  86.466  1.00  0.00    -0.358 OA
ATOM     43  H4  UNL     1     -16.011  95.789  86.924  1.00  0.00     0.217 HD
ENDBRANCH  32  42
ENDBRANCH  26  27
ENDBRANCH  25  26
ENDBRANCH  24  25
ENDBRANCH  23  24
ENDBRANCH   1  23
TORSDOF 17
ENDMDL
MODEL 5
REMARK VINA RESULT: -8.912357440      1.986     11.842
REMARK  17 active torsions:
REMARK  status: ('A' for Active; 'I' for Inactive)
REMARK    1  A    between atoms: C2_2  and  C3_3 
REMARK    2  A    between atoms: C5_5  and  C6_6 
REMARK    3  A    between atoms: C7_7  and  O1_8 
REMARK    4  A    between atoms: C7_7  and  N1_10 
REMARK    5  A    between atoms: N1_10  and  C9_12 
REMARK    6  A    between atoms: C9_12  and  C10_13 
REMARK    7  A    between atoms: C11_18  and  C12_19 
REMARK    8  A    between atoms: C12_19  and  N4_20 
REMARK    9  A    between atoms: N4_20  and  C13_22 
REMARK   10  A    between atoms: C13_22  and  C14_23 
REMARK   11  A    between atoms: C14_23  and  C15_24 
REMARK   12  A    between atoms: C15_24  and  C16_25 
REMARK   13  A    between atoms: C16_25  and  C17_26 
REMARK   14  A    between atoms: C17_26  and  C18_27 
REMARK   15  A    between atoms: C20_31  and  C21_32 
REMARK   16  A    between atoms: C21_32  and  N6_33 
REMARK   17  A    between atoms: C24_41  and  O4_42 
ROOT
HETATM    1  C13 UNL     1     -16.115  93.656  81.661  1.00  0.00     0.119 C 
ENDROOT
BRANCH   1   2
HETATM    2  N4  UNL     1     -16.859  94.490  82.579  1.00  0.00    -0.397 N 
ATOM      3  H4  UNL     1     -17.109  95.432  82.277  1.00  0.00     0.158 HD
BRANCH   2   4
HETATM    4  C12 UNL     1     -17.256  94.082  83.856  1.00  0.00     0.113 C 
BRANCH   4   5
HETATM    5  C11 UNL     1     -16.482  94.120  84.920  1.00  0.00     0.058 A 
HETATM    6  C3  UNL     1     -15.549  93.217  85.325  1.00  0.00    -0.007 A 
HETATM    7  C4  UNL     1     -15.002  93.757  86.513  1.00  0.00     0.043 A 
HETATM    8  C5  UNL     1     -15.589  94.950  86.818  1.00  0.00     0.037 A 
HETATM    9  N3  UNL     1     -16.490  95.142  85.823  1.00  0.00    -0.354 N 
ATOM     10  H3  UNL     1     -17.102  95.955  85.757  1.00  0.00     0.166 HD
BRANCH   6  11
HETATM   11  C2  UNL     1     -15.122  91.957  84.735  1.00  0.00     0.003 C 
HETATM   12  C1  UNL     1     -16.027  91.019  84.405  1.00  0.00     0.012 C 
ENDBRANCH   6  11
BRANCH   8  13
HETATM   13  C6  UNL     1     -15.387  95.779  87.815  1.00  0.00     0.085 C 
HETATM   14  C7  UNL     1     -14.534  95.934  88.912  1.00  0.00     0.140 C 
BRANCH  14  15
HETATM   15  O1  UNL     1     -14.874  97.081  89.605  1.00  0.00    -0.346 OA
ATOM     16  H1  UNL     1     -15.696  96.946  90.062  1.00  0.00     0.219 HD
ENDBRANCH  14  15
BRANCH  14  17
HETATM   17  N1  UNL     1     -13.462  95.320  89.535  1.00  0.00    -0.358 N 
HETATM   18  C8  UNL     1     -12.995  95.462  90.866  1.00  0.00     0.152 C 
BRANCH  17  19
HETATM   19  C9  UNL     1     -12.641  94.353  88.728  1.00  0.00     0.223 C 
BRANCH  19  20
HETATM   20  C10 UNL     1     -11.662  95.145  87.937  1.00  0.00     0.248 C 
HETATM   21  N2  UNL     1     -10.333  94.721  87.718  1.00  0.00    -0.061 NA
HETATM   22  O2  UNL     1     -11.989  96.247  87.421  1.00  0.00    -0.275 OA
ENDBRANCH  19  20
ENDBRANCH  17  19
ENDBRANCH  14  17
ENDBRANCH   8  13
ENDBRANCH   4   5
ENDBRANCH   2   4
ENDBRANCH   1   2
BRANCH   1  23
HETATM   23  C14 UNL     1     -17.029  92.716  80.937  1.00  0.00     0.020 C 
BRANCH  23  24
HETATM   24  C15 UNL     1     -17.780  93.483  79.879  1.00  0.00     0.002 C 
BRANCH  24  25
HETATM   25  C16 UNL     1     -18.968  92.687  79.371  1.00  0.00     0.005 C 
BRANCH  25  26
HETATM   26  C17 UNL     1     -20.215  93.312  79.962  1.00  0.00     0.043 C 
BRANCH  26  27
HETATM   27  C18 UNL     1     -20.838  92.389  80.946  1.00  0.00    -0.008 A 
HETATM   28  C19 UNL     1     -20.440  92.151  82.261  1.00  0.00     0.098 A 
HETATM   29  N5  UNL     1     -21.273  91.248  82.804  1.00  0.00    -0.365 N 
HETATM   30  C20 UNL     1     -22.209  90.879  81.896  1.00  0.00     0.063 A 
ATOM     31  H5  UNL     1     -21.211  90.893  83.758  1.00  0.00     0.165 HD
HETATM   32  C24 UNL     1     -21.935  91.589  80.747  1.00  0.00     0.097 A 
BRANCH  30  33
HETATM   33  C21 UNL     1     -23.310  89.897  82.117  1.00  0.00     0.210 C 
BRANCH  33  34
HETATM   34  N6  UNL     1     -24.577  90.560  82.358  1.00  0.00    -0.278 N 
HETATM   35  C22 UNL     1     -25.253  90.452  83.538  1.00  0.00     0.205 A 
HETATM   36  N7  UNL     1     -26.383  91.167  83.469  1.00  0.00    -0.302 N 
HETATM   37  C23 UNL     1     -26.399  91.712  82.247  1.00  0.00     0.340 A 
ATOM     38  H7  UNL     1     -27.088  91.274  84.198  1.00  0.00     0.171 HD
HETATM   39  O3  UNL     1     -27.326  92.456  81.832  1.00  0.00    -0.245 OA
HETATM   40  N8  UNL     1     -25.277  91.329  81.569  1.00  0.00    -0.248 N 
ATOM     41  H8  UNL     1     -25.030  91.597  80.616  1.00  0.00     0.192 HD
ENDBRANCH  33  34
ENDBRANCH  30  33
BRANCH  32  42
HETATM   42  O4  UNL     1     -22.685  91.480  79.583  1.00  0.00    -0.358 OA
ATOM     43  H4  UNL     1     -23.626  91.581  79.500  1.00  0.00     0.217 HD
ENDBRANCH  32  42
ENDBRANCH  26  27
ENDBRANCH  25  26
ENDBRANCH  24  25
ENDBRANCH  23  24
ENDBRANCH   1  23
TORSDOF 17
ENDMDL
