MODEL 1
REMARK VINA RESULT: -9.827175225      0.000      0.000
REMARK  9 active torsions:
REMARK  status: ('A' for Active; 'I' for Inactive)
REMARK    1  A    between atoms: C3_3  and  C4_4 
REMARK    2  A    between atoms: C6_6  and  C7_7 
REMARK    3  A    between atoms: C8_8  and  C9_9 
REMARK    4  A    between atoms: C11_11  and  C12_12 
REMARK    5  A    between atoms: C12_12  and  C13_13 
REMARK    6  A    between atoms: C12_12  and  C19_21 
REMARK    7  A    between atoms: C13_13  and  N1_14 
REMARK       I    between atoms: C19_21  and  N3_23 
REMARK    8  A    between atoms: N3_23  and  C20_25 
REMARK    9  A    between atoms: C30_35  and  C31_36 
ROOT
HETATM    1  C1  UNL     1      55.458  -1.364  10.378  1.00  0.00     0.112 C 
HETATM    2  C2  UNL     1      56.511  -0.490  10.903  1.00  0.00    -0.106 C 
HETATM    3  C3  UNL     1      57.385   0.239  11.324  1.00  0.00    -0.072 C 
ENDROOT
BRANCH   3   4
HETATM    4  C4  UNL     1      58.431   1.096  11.803  1.00  0.00    -0.001 C 
HETATM    5  C5  UNL     1      59.810   1.063  11.215  1.00  0.00     0.059 C 
HETATM    6  C6  UNL     1      58.189   1.936  12.782  1.00  0.00     0.080 C 
BRANCH   6   7
HETATM    7  C7  UNL     1      59.196   2.817  13.301  1.00  0.00    -0.072 C 
HETATM    8  C8  UNL     1      60.045   3.577  13.760  1.00  0.00    -0.061 C 
BRANCH   8   9
HETATM    9  C9  UNL     1      61.065   4.444  14.284  1.00  0.00     0.035 A 
HETATM   10  C10 UNL     1      62.359   4.397  13.737  1.00  0.00     0.029 A 
HETATM   11  C11 UNL     1      63.344   5.215  14.223  1.00  0.00    -0.042 A 
HETATM   12  C28 UNL     1      63.069   6.096  15.258  1.00  0.00     0.009 A 
HETATM   13  C29 UNL     1      61.811   6.155  15.801  1.00  0.00     0.020 A 
HETATM   14  C30 UNL     1      60.794   5.316  15.306  1.00  0.00     0.059 A 
BRANCH  11  15
HETATM   15  C12 UNL     1      64.718   5.181  13.660  1.00  0.00     0.139 C 
BRANCH  15  16
HETATM   16  C13 UNL     1      65.664   4.927  14.798  1.00  0.00     0.291 C 
BRANCH  16  17
HETATM   17  N1  UNL     1      66.824   5.829  14.747  1.00  0.00     0.093 N 
HETATM   18  C14 UNL     1      66.437   6.952  13.960  1.00  0.00     0.302 C 
HETATM   19  C15 UNL     1      67.566   7.621  13.235  1.00  0.00     0.302 C 
HETATM   20  N2  UNL     1      68.436   6.682  12.566  1.00  0.00     0.087 N 
HETATM   21  C16 UNL     1      67.767   5.951  11.529  1.00  0.00     0.310 C 
HETATM   22  C17 UNL     1      69.010   5.829  13.584  1.00  0.00     0.302 C 
HETATM   23  C18 UNL     1      67.922   5.069  14.253  1.00  0.00     0.302 C 
ENDBRANCH  16  17
ENDBRANCH  15  16
BRANCH  15  24
HETATM   24  C19 UNL     1      64.855   4.193  12.576  1.00  0.00     0.228 C 
HETATM   25  O1  UNL     1      65.455   3.118  12.838  1.00  0.00    -0.273 OA
HETATM   26  N3  UNL     1      64.360   4.374  11.271  1.00  0.00    -0.356 N 
ATOM     27  H3  UNL     1      63.873   5.242  11.048  1.00  0.00     0.162 HD
BRANCH  26  28
HETATM   28  C20 UNL     1      64.515   3.377  10.236  1.00  0.00     0.084 C 
HETATM   29  C21 UNL     1      64.427   4.065   8.925  1.00  0.00     0.025 C 
HETATM   30  C22 UNL     1      65.117   3.467   7.767  1.00  0.00     0.002 C 
HETATM   31  C23 UNL     1      65.741   2.134   7.920  1.00  0.00     0.000 C 
HETATM   32  C24 UNL     1      64.770   0.977   7.652  1.00  0.00     0.000 C 
HETATM   33  C25 UNL     1      64.029   0.560   8.893  1.00  0.00     0.000 C 
HETATM   34  C26 UNL     1      62.997   1.607   9.281  1.00  0.00     0.002 C 
HETATM   35  C27 UNL     1      63.448   2.350  10.484  1.00  0.00     0.025 C 
ENDBRANCH  26  28
ENDBRANCH  15  24
ENDBRANCH  11  15
BRANCH  14  36
HETATM   36  C31 UNL     1      59.476   5.401  15.901  1.00  0.00     0.210 C 
HETATM   37  O2  UNL     1      58.836   6.496  15.807  1.00  0.00    -0.644 OA
HETATM   38  O3  UNL     1      58.837   4.391  16.573  1.00  0.00    -0.644 OA
ENDBRANCH  14  36
ENDBRANCH   8   9
ENDBRANCH   6   7
ENDBRANCH   3   4
TORSDOF 9
ENDMDL
MODEL 2
REMARK VINA RESULT: -9.753315973      0.985      1.309
REMARK  9 active torsions:
REMARK  status: ('A' for Active; 'I' for Inactive)
REMARK    1  A    between atoms: C3_3  and  C4_4 
REMARK    2  A    between atoms: C6_6  and  C7_7 
REMARK    3  A    between atoms: C8_8  and  C9_9 
REMARK    4  A    between atoms: C11_11  and  C12_12 
REMARK    5  A    between atoms: C12_12  and  C13_13 
REMARK    6  A    between atoms: C12_12  and  C19_21 
REMARK    7  A    between atoms: C13_13  and  N1_14 
REMARK       I    between atoms: C19_21  and  N3_23 
REMARK    8  A    between atoms: N3_23  and  C20_25 
REMARK    9  A    between atoms: C30_35  and  C31_36 
ROOT
HETATM    1  C1  UNL     1      55.436  -1.347  10.418  1.00  0.00     0.112 C 
HETATM    2  C2  UNL     1      56.492  -0.466  10.924  1.00  0.00    -0.106 C 
HETATM    3  C3  UNL     1      57.369   0.269  11.330  1.00  0.00    -0.072 C 
ENDROOT
BRANCH   3   4
HETATM    4  C4  UNL     1      58.419   1.131  11.791  1.00  0.00    -0.001 C 
HETATM    5  C5  UNL     1      59.790   1.099  11.184  1.00  0.00     0.059 C 
HETATM    6  C6  UNL     1      58.187   1.976  12.769  1.00  0.00     0.080 C 
BRANCH   6   7
HETATM    7  C7  UNL     1      59.198   2.862  13.270  1.00  0.00    -0.072 C 
HETATM    8  C8  UNL     1      60.052   3.623  13.717  1.00  0.00    -0.061 C 
BRANCH   8   9
HETATM    9  C9  UNL     1      61.079   4.496  14.218  1.00  0.00     0.035 A 
HETATM   10  C10 UNL     1      62.356   4.468  13.633  1.00  0.00     0.029 A 
HETATM   11  C11 UNL     1      63.346   5.293  14.098  1.00  0.00    -0.042 A 
HETATM   12  C28 UNL     1      63.092   6.162  15.148  1.00  0.00     0.009 A 
HETATM   13  C29 UNL     1      61.851   6.202  15.728  1.00  0.00     0.020 A 
HETATM   14  C30 UNL     1      60.828   5.356  15.256  1.00  0.00     0.059 A 
BRANCH  11  15
HETATM   15  C12 UNL     1      64.704   5.279  13.494  1.00  0.00     0.139 C 
BRANCH  15  16
HETATM   16  C13 UNL     1      65.666   4.847  14.562  1.00  0.00     0.291 C 
BRANCH  16  17
HETATM   17  N1  UNL     1      66.829   5.743  14.634  1.00  0.00     0.093 N 
HETATM   18  C14 UNL     1      66.494   6.912  13.892  1.00  0.00     0.302 C 
HETATM   19  C15 UNL     1      67.667   7.615  13.277  1.00  0.00     0.302 C 
HETATM   20  N2  UNL     1      68.574   6.711  12.609  1.00  0.00     0.087 N 
HETATM   21  C16 UNL     1      67.967   6.046  11.492  1.00  0.00     0.310 C 
HETATM   22  C17 UNL     1      69.083   5.797  13.608  1.00  0.00     0.302 C 
HETATM   23  C18 UNL     1      67.953   5.006  14.164  1.00  0.00     0.302 C 
ENDBRANCH  16  17
ENDBRANCH  15  16
BRANCH  15  24
HETATM   24  C19 UNL     1      64.773   4.432  12.291  1.00  0.00     0.228 C 
HETATM   25  O1  UNL     1      64.677   5.000  11.171  1.00  0.00    -0.273 OA
HETATM   26  N3  UNL     1      64.937   3.035  12.312  1.00  0.00    -0.356 N 
ATOM     27  H3  UNL     1      65.014   2.564  13.214  1.00  0.00     0.162 HD
BRANCH  26  28
HETATM   28  C20 UNL     1      65.001   2.241  11.106  1.00  0.00     0.084 C 
HETATM   29  C21 UNL     1      63.637   1.733  10.822  1.00  0.00     0.025 C 
HETATM   30  C22 UNL     1      63.273   1.431   9.425  1.00  0.00     0.002 C 
HETATM   31  C23 UNL     1      64.323   1.500   8.385  1.00  0.00     0.000 C 
HETATM   32  C24 UNL     1      65.106   0.190   8.227  1.00  0.00     0.000 C 
HETATM   33  C25 UNL     1      66.293   0.126   9.148  1.00  0.00     0.000 C 
HETATM   34  C26 UNL     1      65.847  -0.076  10.587  1.00  0.00     0.002 C 
HETATM   35  C27 UNL     1      66.030   1.178  11.361  1.00  0.00     0.025 C 
ENDBRANCH  26  28
ENDBRANCH  15  24
ENDBRANCH  11  15
BRANCH  14  36
HETATM   36  C31 UNL     1      59.528   5.421  15.890  1.00  0.00     0.210 C 
HETATM   37  O2  UNL     1      58.851   6.493  15.782  1.00  0.00    -0.644 OA
HETATM   38  O3  UNL     1      58.942   4.416  16.614  1.00  0.00    -0.644 OA
ENDBRANCH  14  36
ENDBRANCH   8   9
ENDBRANCH   6   7
ENDBRANCH   3   4
TORSDOF 9
ENDMDL
MODEL 3
REMARK VINA RESULT: -9.585650738      1.490      2.126
REMARK  9 active torsions:
REMARK  status: ('A' for Active; 'I' for Inactive)
REMARK    1  A    between atoms: C3_3  and  C4_4 
REMARK    2  A    between atoms: C6_6  and  C7_7 
REMARK    3  A    between atoms: C8_8  and  C9_9 
REMARK    4  A    between atoms: C11_11  and  C12_12 
REMARK    5  A    between atoms: C12_12  and  C13_13 
REMARK    6  A    between atoms: C12_12  and  C19_21 
REMARK    7  A    between atoms: C13_13  and  N1_14 
REMARK       I    between atoms: C19_21  and  N3_23 
REMARK    8  A    between atoms: N3_23  and  C20_25 
REMARK    9  A    between atoms: C30_35  and  C31_36 
ROOT
HETATM    1  C1  UNL     1      55.403  -2.985   9.089  1.00  0.00     0.112 C 
HETATM    2  C2  UNL     1      56.327  -2.018   9.689  1.00  0.00    -0.106 C 
HETATM    3  C3  UNL     1      57.083  -1.216  10.197  1.00  0.00    -0.072 C 
ENDROOT
BRANCH   3   4
HETATM    4  C4  UNL     1      57.958  -0.254  10.802  1.00  0.00    -0.001 C 
HETATM    5  C5  UNL     1      59.349  -0.021  10.291  1.00  0.00     0.059 C 
HETATM    6  C6  UNL     1      57.544   0.450  11.830  1.00  0.00     0.080 C 
BRANCH   6   7
HETATM    7  C7  UNL     1      58.375   1.426  12.474  1.00  0.00    -0.072 C 
HETATM    8  C8  UNL     1      59.069   2.273  13.029  1.00  0.00    -0.061 C 
BRANCH   8   9
HETATM    9  C9  UNL     1      59.907   3.239  13.688  1.00  0.00     0.035 A 
HETATM   10  C10 UNL     1      61.094   3.661  13.065  1.00  0.00     0.029 A 
HETATM   11  C11 UNL     1      61.905   4.580  13.676  1.00  0.00    -0.042 A 
HETATM   12  C28 UNL     1      61.559   5.099  14.914  1.00  0.00     0.009 A 
HETATM   13  C29 UNL     1      60.403   4.698  15.534  1.00  0.00     0.020 A 
HETATM   14  C30 UNL     1      59.565   3.753  14.911  1.00  0.00     0.059 A 
BRANCH  11  15
HETATM   15  C12 UNL     1      63.165   5.039  13.036  1.00  0.00     0.139 C 
BRANCH  15  16
HETATM   16  C13 UNL     1      64.242   4.993  14.079  1.00  0.00     0.291 C 
BRANCH  16  17
HETATM   17  N1  UNL     1      64.869   6.310  14.266  1.00  0.00     0.093 N 
HETATM   18  C14 UNL     1      65.402   6.694  13.002  1.00  0.00     0.302 C 
HETATM   19  C15 UNL     1      66.599   7.594  13.079  1.00  0.00     0.302 C 
HETATM   20  N2  UNL     1      67.579   7.141  14.039  1.00  0.00     0.087 N 
HETATM   21  C16 UNL     1      68.146   5.869  13.689  1.00  0.00     0.310 C 
HETATM   22  C17 UNL     1      66.941   7.143  15.337  1.00  0.00     0.302 C 
HETATM   23  C18 UNL     1      65.811   6.178  15.326  1.00  0.00     0.302 C 
ENDBRANCH  16  17
ENDBRANCH  15  16
BRANCH  15  24
HETATM   24  C19 UNL     1      63.502   4.254  11.836  1.00  0.00     0.228 C 
HETATM   25  O1  UNL     1      63.250   4.765  10.714  1.00  0.00    -0.273 OA
HETATM   26  N3  UNL     1      64.085   2.973  11.864  1.00  0.00    -0.356 N 
ATOM     27  H3  UNL     1      64.292   2.548  12.768  1.00  0.00     0.162 HD
BRANCH  26  28
HETATM   28  C20 UNL     1      64.401   2.237  10.661  1.00  0.00     0.084 C 
HETATM   29  C21 UNL     1      63.189   1.484  10.256  1.00  0.00     0.025 C 
HETATM   30  C22 UNL     1      63.007   1.152   8.831  1.00  0.00     0.002 C 
HETATM   31  C23 UNL     1      64.106   1.448   7.886  1.00  0.00     0.000 C 
HETATM   32  C24 UNL     1      65.138   0.317   7.784  1.00  0.00     0.000 C 
HETATM   33  C25 UNL     1      66.235   0.459   8.804  1.00  0.00     0.000 C 
HETATM   34  C26 UNL     1      65.719   0.140  10.197  1.00  0.00     0.002 C 
HETATM   35  C27 UNL     1      65.591   1.385  10.995  1.00  0.00     0.025 C 
ENDBRANCH  26  28
ENDBRANCH  15  24
ENDBRANCH  11  15
BRANCH  14  36
HETATM   36  C31 UNL     1      58.352   3.349  15.591  1.00  0.00     0.210 C 
HETATM   37  O2  UNL     1      57.719   4.217  16.273  1.00  0.00    -0.644 OA
HETATM   38  O3  UNL     1      57.807   2.092  15.572  1.00  0.00    -0.644 OA
ENDBRANCH  14  36
ENDBRANCH   8   9
ENDBRANCH   6   7
ENDBRANCH   3   4
TORSDOF 9
ENDMDL
MODEL 4
REMARK VINA RESULT: -9.291625805      3.388      9.764
REMARK  9 active torsions:
REMARK  status: ('A' for Active; 'I' for Inactive)
REMARK    1  A    between atoms: C3_3  and  C4_4 
REMARK    2  A    between atoms: C6_6  and  C7_7 
REMARK    3  A    between atoms: C8_8  and  C9_9 
REMARK    4  A    between atoms: C11_11  and  C12_12 
REMARK    5  A    between atoms: C12_12  and  C13_13 
REMARK    6  A    between atoms: C12_12  and  C19_21 
REMARK    7  A    between atoms: C13_13  and  N1_14 
REMARK       I    between atoms: C19_21  and  N3_23 
REMARK    8  A    between atoms: N3_23  and  C20_25 
REMARK    9  A    between atoms: C30_35  and  C31_36 
ROOT
HETATM    1  C1  UNL     1      70.519   1.777  15.203  1.00  0.00     0.112 C 
HETATM    2  C2  UNL     1      69.233   1.508  14.554  1.00  0.00    -0.106 C 
HETATM    3  C3  UNL     1      68.162   1.298  14.021  1.00  0.00    -0.072 C 
ENDROOT
BRANCH   3   4
HETATM    4  C4  UNL     1      66.886   1.056  13.413  1.00  0.00    -0.001 C 
HETATM    5  C5  UNL     1      66.087  -0.175  13.718  1.00  0.00     0.059 C 
HETATM    6  C6  UNL     1      66.392   1.929  12.565  1.00  0.00     0.080 C 
BRANCH   6   7
HETATM    7  C7  UNL     1      65.120   1.739  11.927  1.00  0.00    -0.072 C 
HETATM    8  C8  UNL     1      64.030   1.599  11.379  1.00  0.00    -0.061 C 
BRANCH   8   9
HETATM    9  C9  UNL     1      62.765   1.400  10.726  1.00  0.00     0.035 A 
HETATM   10  C10 UNL     1      61.576   1.576  11.455  1.00  0.00     0.029 A 
HETATM   11  C11 UNL     1      60.362   1.390  10.849  1.00  0.00    -0.042 A 
HETATM   12  C28 UNL     1      60.298   1.029   9.512  1.00  0.00     0.009 A 
HETATM   13  C29 UNL     1      61.450   0.855   8.787  1.00  0.00     0.020 A 
HETATM   14  C30 UNL     1      62.702   1.043   9.404  1.00  0.00     0.059 A 
BRANCH  11  15
HETATM   15  C12 UNL     1      59.093   1.570  11.601  1.00  0.00     0.139 C 
BRANCH  15  16
HETATM   16  C13 UNL     1      58.796   0.275  12.298  1.00  0.00     0.291 C 
BRANCH  16  17
HETATM   17  N1  UNL     1      57.376  -0.088  12.181  1.00  0.00     0.093 N 
HETATM   18  C14 UNL     1      57.196  -1.291  12.922  1.00  0.00     0.302 C 
HETATM   19  C15 UNL     1      56.089  -2.170  12.423  1.00  0.00     0.302 C 
HETATM   20  N2  UNL     1      56.112  -2.338  10.988  1.00  0.00     0.087 N 
HETATM   21  C16 UNL     1      57.295  -3.008  10.530  1.00  0.00     0.310 C 
HETATM   22  C17 UNL     1      55.935  -1.028  10.399  1.00  0.00     0.302 C 
HETATM   23  C18 UNL     1      57.077  -0.161  10.791  1.00  0.00     0.302 C 
ENDBRANCH  16  17
ENDBRANCH  15  16
BRANCH  15  24
HETATM   24  C19 UNL     1      59.149   2.714  12.527  1.00  0.00     0.228 C 
HETATM   25  O1  UNL     1      58.063   3.124  13.015  1.00  0.00    -0.273 OA
HETATM   26  N3  UNL     1      60.333   3.376  12.900  1.00  0.00    -0.356 N 
ATOM     27  H3  UNL     1      61.219   3.054  12.510  1.00  0.00     0.162 HD
BRANCH  26  28
HETATM   28  C20 UNL     1      60.343   4.496  13.814  1.00  0.00     0.084 C 
HETATM   29  C21 UNL     1      61.420   5.422  13.388  1.00  0.00     0.025 C 
HETATM   30  C22 UNL     1      61.290   6.854  13.716  1.00  0.00     0.002 C 
HETATM   31  C23 UNL     1      60.173   7.287  14.583  1.00  0.00     0.000 C 
HETATM   32  C24 UNL     1      60.501   7.207  16.080  1.00  0.00     0.000 C 
HETATM   33  C25 UNL     1      60.173   5.858  16.659  1.00  0.00     0.000 C 
HETATM   34  C26 UNL     1      61.163   4.810  16.176  1.00  0.00     0.002 C 
HETATM   35  C27 UNL     1      60.518   3.912  15.186  1.00  0.00     0.025 C 
ENDBRANCH  26  28
ENDBRANCH  15  24
ENDBRANCH  11  15
BRANCH  14  36
HETATM   36  C31 UNL     1      63.899   0.851   8.612  1.00  0.00     0.210 C 
HETATM   37  O2  UNL     1      64.276   1.790   7.842  1.00  0.00    -0.644 OA
HETATM   38  O3  UNL     1      64.684  -0.273   8.612  1.00  0.00    -0.644 OA
ENDBRANCH  14  36
ENDBRANCH   8   9
ENDBRANCH   6   7
ENDBRANCH   3   4
TORSDOF 9
ENDMDL
MODEL 5
REMARK VINA RESULT: -9.282814210      3.532      6.185
REMARK  9 active torsions:
REMARK  status: ('A' for Active; 'I' for Inactive)
REMARK    1  A    between atoms: C3_3  and  C4_4 
REMARK    2  A    between atoms: C6_6  and  C7_7 
REMARK    3  A    between atoms: C8_8  and  C9_9 
REMARK    4  A    between atoms: C11_11  and  C12_12 
REMARK    5  A    between atoms: C12_12  and  C13_13 
REMARK    6  A    between atoms: C12_12  and  C19_21 
REMARK    7  A    between atoms: C13_13  and  N1_14 
REMARK       I    between atoms: C19_21  and  N3_23 
REMARK    8  A    between atoms: N3_23  and  C20_25 
REMARK    9  A    between atoms: C30_35  and  C31_36 
ROOT
HETATM    1  C1  UNL     1      54.228  -3.554   9.694  1.00  0.00     0.112 C 
HETATM    2  C2  UNL     1      55.344  -2.623   9.884  1.00  0.00    -0.106 C 
HETATM    3  C3  UNL     1      56.273  -1.859  10.054  1.00  0.00    -0.072 C 
ENDROOT
BRANCH   3   4
HETATM    4  C4  UNL     1      57.365  -0.957  10.277  1.00  0.00    -0.001 C 
HETATM    5  C5  UNL     1      57.292   0.131  11.307  1.00  0.00     0.059 C 
HETATM    6  C6  UNL     1      58.464  -1.076   9.568  1.00  0.00     0.080 C 
BRANCH   6   7
HETATM    7  C7  UNL     1      59.589  -0.202   9.749  1.00  0.00    -0.072 C 
HETATM    8  C8  UNL     1      60.542   0.552   9.922  1.00  0.00    -0.061 C 
BRANCH   8   9
HETATM    9  C9  UNL     1      61.680   1.412  10.105  1.00  0.00     0.035 A 
HETATM   10  C10 UNL     1      62.821   1.225   9.306  1.00  0.00     0.029 A 
HETATM   11  C11 UNL     1      63.915   2.034   9.465  1.00  0.00    -0.042 A 
HETATM   12  C28 UNL     1      63.902   3.043  10.416  1.00  0.00     0.009 A 
HETATM   13  C29 UNL     1      62.795   3.238  11.202  1.00  0.00     0.020 A 
HETATM   14  C30 UNL     1      61.667   2.410  11.044  1.00  0.00     0.059 A 
BRANCH  11  15
HETATM   15  C12 UNL     1      65.132   1.854   8.632  1.00  0.00     0.139 C 
BRANCH  15  16
HETATM   16  C13 UNL     1      64.772   0.931   7.504  1.00  0.00     0.291 C 
BRANCH  16  17
HETATM   17  N1  UNL     1      65.691  -0.214   7.429  1.00  0.00     0.093 N 
HETATM   18  C14 UNL     1      65.049  -1.300   8.090  1.00  0.00     0.302 C 
HETATM   19  C15 UNL     1      65.987  -2.291   8.713  1.00  0.00     0.302 C 
HETATM   20  N2  UNL     1      67.046  -1.661   9.467  1.00  0.00     0.087 N 
HETATM   21  C16 UNL     1      66.556  -0.920  10.594  1.00  0.00     0.310 C 
HETATM   22  C17 UNL     1      67.810  -0.852   8.542  1.00  0.00     0.302 C 
HETATM   23  C18 UNL     1      66.932   0.210   7.985  1.00  0.00     0.302 C 
ENDBRANCH  16  17
ENDBRANCH  15  16
BRANCH  15  24
HETATM   24  C19 UNL     1      65.684   3.136   8.163  1.00  0.00     0.228 C 
HETATM   25  O1  UNL     1      65.237   3.604   7.083  1.00  0.00    -0.273 OA
HETATM   26  N3  UNL     1      66.676   3.869   8.841  1.00  0.00    -0.356 N 
ATOM     27  H3  UNL     1      67.047   3.498   9.716  1.00  0.00     0.162 HD
BRANCH  26  28
HETATM   28  C20 UNL     1      67.190   5.125   8.345  1.00  0.00     0.084 C 
HETATM   29  C21 UNL     1      68.626   5.206   8.709  1.00  0.00     0.025 C 
HETATM   30  C22 UNL     1      69.522   6.020   7.868  1.00  0.00     0.002 C 
HETATM   31  C23 UNL     1      68.933   6.843   6.789  1.00  0.00     0.000 C 
HETATM   32  C24 UNL     1      68.486   8.232   7.263  1.00  0.00     0.000 C 
HETATM   33  C25 UNL     1      67.069   8.229   7.770  1.00  0.00     0.000 C 
HETATM   34  C26 UNL     1      66.980   7.517   9.110  1.00  0.00     0.002 C 
HETATM   35  C27 UNL     1      66.325   6.195   8.947  1.00  0.00     0.025 C 
ENDBRANCH  26  28
ENDBRANCH  15  24
ENDBRANCH  11  15
BRANCH  14  36
HETATM   36  C31 UNL     1      60.514   2.640  11.890  1.00  0.00     0.210 C 
HETATM   37  O2  UNL     1      59.832   3.699  11.712  1.00  0.00    -0.644 OA
HETATM   38  O3  UNL     1      60.078   1.808  12.888  1.00  0.00    -0.644 OA
ENDBRANCH  14  36
ENDBRANCH   8   9
ENDBRANCH   6   7
ENDBRANCH   3   4
TORSDOF 9
ENDMDL
