MODEL 1
REMARK VINA RESULT: -7.357637744      0.000      0.000
REMARK  7 active torsions:
REMARK  status: ('A' for Active; 'I' for Inactive)
REMARK    1  A    between atoms: C1_2  and  C2_4 
REMARK    2  A    between atoms: C2_4  and  N2_5 
REMARK    3  A    between atoms: C10_16  and  C11_17 
REMARK    4  A    between atoms: C11_17  and  C12_18 
REMARK    5  A    between atoms: C12_18  and  C13_19 
REMARK    6  A    between atoms: C13_19  and  C14_20 
REMARK    7  A    between atoms: C14_20  and  O3_21 
ROOT
HETATM    1  N2  UNL     1      26.730  16.810  30.571  1.00  0.00    -0.340 N 
HETATM    2  C3  UNL     1      27.353  16.340  31.786  1.00  0.00     0.126 C 
HETATM    3  C4  UNL     1      27.191  14.840  31.960  1.00  0.00     0.020 C 
HETATM    4  C5  UNL     1      25.812  14.357  31.577  1.00  0.00     0.002 C 
HETATM    5  C6  UNL     1      25.574  13.048  32.245  1.00  0.00     0.002 C 
HETATM    6  C7  UNL     1      24.149  12.831  32.687  1.00  0.00     0.020 C 
HETATM    7  C8  UNL     1      23.543  14.019  33.346  1.00  0.00     0.122 C 
HETATM    8  N3  UNL     1      22.480  14.575  32.521  1.00  0.00    -0.359 N 
ATOM      9  H3  UNL     1      22.179  14.046  31.702  1.00  0.00     0.162 HD
HETATM   10  C9  UNL     1      21.843  15.806  32.794  1.00  0.00     0.248 C 
HETATM   11  O2  UNL     1      20.644  15.974  32.447  1.00  0.00    -0.271 OA
HETATM   12  C10 UNL     1      22.504  16.949  33.479  1.00  0.00     0.277 C 
HETATM   13  N4  UNL     1      22.984  17.844  32.469  1.00  0.00    -0.054 N 
ATOM     14  H41 UNL     1      22.441  18.707  32.449  1.00  0.00     0.279 HD
ATOM     15  H42 UNL     1      22.768  17.497  31.535  1.00  0.00     0.279 HD
HETATM   16  C15 UNL     1      24.429  18.121  32.619  1.00  0.00     0.221 C 
HETATM   17  C16 UNL     1      24.497  19.158  33.723  1.00  0.00     0.038 C 
HETATM   18  C17 UNL     1      25.843  19.733  33.935  1.00  0.00     0.003 C 
HETATM   19  C18 UNL     1      26.656  19.972  32.720  1.00  0.00     0.004 C 
HETATM   20  C19 UNL     1      25.831  19.891  31.490  1.00  0.00     0.042 C 
HETATM   21  C20 UNL     1      25.018  18.627  31.332  1.00  0.00     0.018 C 
HETATM   22  C21 UNL     1      25.582  17.617  30.440  1.00  0.00     0.248 C 
HETATM   23  O4  UNL     1      24.958  17.384  29.325  1.00  0.00    -0.268 OA
ENDROOT
BRANCH  12  24
HETATM   24  C11 UNL     1      21.494  17.576  34.403  1.00  0.00     0.043 C 
BRANCH  24  25
HETATM   25  C12 UNL     1      20.796  18.682  33.657  1.00  0.00     0.004 C 
BRANCH  25  26
HETATM   26  C13 UNL     1      19.488  19.010  34.345  1.00  0.00     0.026 C 
BRANCH  26  27
HETATM   27  C14 UNL     1      18.360  19.146  33.368  1.00  0.00     0.164 C 
BRANCH  27  28
HETATM   28  O3  UNL     1      17.257  19.651  34.087  1.00  0.00    -0.401 OA
ATOM     29  H3  UNL     1      16.908  20.375  33.581  1.00  0.00     0.209 HD
ENDBRANCH  27  28
ENDBRANCH  26  27
ENDBRANCH  25  26
ENDBRANCH  24  25
ENDBRANCH  12  24
BRANCH   1  30
HETATM   30  C2  UNL     1      27.430  16.342  29.353  1.00  0.00     0.225 C 
BRANCH  30  31
HETATM   31  C1  UNL     1      28.110  17.518  28.754  1.00  0.00     0.249 C 
HETATM   32  N1  UNL     1      29.202  18.170  29.367  1.00  0.00    -0.061 NA
HETATM   33  O1  UNL     1      27.743  18.013  27.636  1.00  0.00    -0.275 OA
ENDBRANCH  30  31
ENDBRANCH   1  30
TORSDOF 7
ENDMDL
MODEL 2
REMARK VINA RESULT: -6.770858757      1.235      1.267
REMARK  7 active torsions:
REMARK  status: ('A' for Active; 'I' for Inactive)
REMARK    1  A    between atoms: C1_2  and  C2_4 
REMARK    2  A    between atoms: C2_4  and  N2_5 
REMARK    3  A    between atoms: C10_16  and  C11_17 
REMARK    4  A    between atoms: C11_17  and  C12_18 
REMARK    5  A    between atoms: C12_18  and  C13_19 
REMARK    6  A    between atoms: C13_19  and  C14_20 
REMARK    7  A    between atoms: C14_20  and  O3_21 
ROOT
HETATM    1  N2  UNL     1      27.037  17.334  31.512  1.00  0.00    -0.340 N 
HETATM    2  C3  UNL     1      27.436  16.686  32.739  1.00  0.00     0.126 C 
HETATM    3  C4  UNL     1      27.329  15.175  32.639  1.00  0.00     0.020 C 
HETATM    4  C5  UNL     1      26.082  14.727  31.914  1.00  0.00     0.002 C 
HETATM    5  C6  UNL     1      25.793  13.321  32.307  1.00  0.00     0.002 C 
HETATM    6  C7  UNL     1      24.325  12.998  32.413  1.00  0.00     0.020 C 
HETATM    7  C8  UNL     1      23.534  14.046  33.113  1.00  0.00     0.122 C 
HETATM    8  N3  UNL     1      22.623  14.703  32.187  1.00  0.00    -0.359 N 
ATOM      9  H3  UNL     1      22.519  14.310  31.252  1.00  0.00     0.162 HD
HETATM   10  C9  UNL     1      21.875  15.857  32.515  1.00  0.00     0.248 C 
HETATM   11  O2  UNL     1      20.760  16.049  31.963  1.00  0.00    -0.271 OA
HETATM   12  C10 UNL     1      22.323  16.887  33.490  1.00  0.00     0.277 C 
HETATM   13  N4  UNL     1      22.939  17.947  32.751  1.00  0.00    -0.054 N 
ATOM     14  H41 UNL     1      22.362  18.789  32.757  1.00  0.00     0.279 HD
ATOM     15  H42 UNL     1      22.930  17.755  31.750  1.00  0.00     0.279 HD
HETATM   16  C15 UNL     1      24.308  18.232  33.232  1.00  0.00     0.221 C 
HETATM   17  C16 UNL     1      24.100  19.075  34.475  1.00  0.00     0.038 C 
HETATM   18  C17 UNL     1      25.343  19.639  35.042  1.00  0.00     0.003 C 
HETATM   19  C18 UNL     1      26.363  20.096  34.070  1.00  0.00     0.004 C 
HETATM   20  C19 UNL     1      25.800  20.198  32.701  1.00  0.00     0.042 C 
HETATM   21  C20 UNL     1      25.108  18.958  32.186  1.00  0.00     0.018 C 
HETATM   22  C21 UNL     1      25.893  18.124  31.280  1.00  0.00     0.248 C 
HETATM   23  O4  UNL     1      25.513  18.062  30.039  1.00  0.00    -0.268 OA
ENDROOT
BRANCH  12  24
HETATM   24  C11 UNL     1      21.117  17.327  34.277  1.00  0.00     0.043 C 
BRANCH  24  25
HETATM   25  C12 UNL     1      20.665  18.659  33.740  1.00  0.00     0.004 C 
BRANCH  25  26
HETATM   26  C13 UNL     1      19.161  18.647  33.557  1.00  0.00     0.026 C 
BRANCH  26  27
HETATM   27  C14 UNL     1      18.561  20.004  33.765  1.00  0.00     0.164 C 
BRANCH  27  28
HETATM   28  O3  UNL     1      18.772  20.340  35.118  1.00  0.00    -0.401 OA
ATOM     29  H3  UNL     1      17.924  20.576  35.478  1.00  0.00     0.209 HD
ENDBRANCH  27  28
ENDBRANCH  26  27
ENDBRANCH  25  26
ENDBRANCH  24  25
ENDBRANCH  12  24
BRANCH   1  30
HETATM   30  C2  UNL     1      27.987  17.091  30.403  1.00  0.00     0.225 C 
BRANCH  30  31
HETATM   31  C1  UNL     1      29.174  17.951  30.640  1.00  0.00     0.249 C 
HETATM   32  N1  UNL     1      29.109  19.361  30.666  1.00  0.00    -0.061 NA
HETATM   33  O1  UNL     1      30.335  17.461  30.837  1.00  0.00    -0.275 OA
ENDBRANCH  30  31
ENDBRANCH   1  30
TORSDOF 7
ENDMDL
MODEL 3
REMARK VINA RESULT: -6.606022603      3.039      5.167
REMARK  7 active torsions:
REMARK  status: ('A' for Active; 'I' for Inactive)
REMARK    1  A    between atoms: C1_2  and  C2_4 
REMARK    2  A    between atoms: C2_4  and  N2_5 
REMARK    3  A    between atoms: C10_16  and  C11_17 
REMARK    4  A    between atoms: C11_17  and  C12_18 
REMARK    5  A    between atoms: C12_18  and  C13_19 
REMARK    6  A    between atoms: C13_19  and  C14_20 
REMARK    7  A    between atoms: C14_20  and  O3_21 
ROOT
HETATM    1  N2  UNL     1      27.469  20.504  33.108  1.00  0.00    -0.340 N 
HETATM    2  C3  UNL     1      28.271  19.381  32.681  1.00  0.00     0.126 C 
HETATM    3  C4  UNL     1      28.167  19.151  31.184  1.00  0.00     0.020 C 
HETATM    4  C5  UNL     1      26.759  19.321  30.665  1.00  0.00     0.002 C 
HETATM    5  C6  UNL     1      26.647  18.596  29.370  1.00  0.00     0.002 C 
HETATM    6  C7  UNL     1      25.306  17.947  29.139  1.00  0.00     0.020 C 
HETATM    7  C8  UNL     1      24.776  17.235  30.332  1.00  0.00     0.122 C 
HETATM    8  N3  UNL     1      23.593  17.911  30.847  1.00  0.00    -0.359 N 
ATOM      9  H3  UNL     1      23.189  18.666  30.292  1.00  0.00     0.162 HD
HETATM   10  C9  UNL     1      22.975  17.577  32.073  1.00  0.00     0.248 C 
HETATM   11  O2  UNL     1      21.735  17.751  32.210  1.00  0.00    -0.271 OA
HETATM   12  C10 UNL     1      23.703  17.021  33.245  1.00  0.00     0.277 C 
HETATM   13  N4  UNL     1      24.013  18.109  34.122  1.00  0.00    -0.054 N 
ATOM     14  H41 UNL     1      23.454  18.070  34.974  1.00  0.00     0.279 HD
ATOM     15  H42 UNL     1      23.673  18.995  33.748  1.00  0.00     0.279 HD
HETATM   16  C15 UNL     1      25.458  18.175  34.429  1.00  0.00     0.221 C 
HETATM   17  C16 UNL     1      25.662  17.117  35.496  1.00  0.00     0.038 C 
HETATM   18  C17 UNL     1      27.012  17.114  36.099  1.00  0.00     0.003 C 
HETATM   19  C18 UNL     1      27.636  18.438  36.322  1.00  0.00     0.004 C 
HETATM   20  C19 UNL     1      26.645  19.534  36.195  1.00  0.00     0.042 C 
HETATM   21  C20 UNL     1      25.845  19.545  34.913  1.00  0.00     0.018 C 
HETATM   22  C21 UNL     1      26.298  20.486  33.891  1.00  0.00     0.248 C 
HETATM   23  O4  UNL     1      25.525  21.494  33.618  1.00  0.00    -0.268 OA
ENDROOT
BRANCH  12  24
HETATM   24  C11 UNL     1      22.822  15.975  33.876  1.00  0.00     0.043 C 
BRANCH  24  25
HETATM   25  C12 UNL     1      22.997  14.690  33.113  1.00  0.00     0.004 C 
BRANCH  25  26
HETATM   26  C13 UNL     1      24.450  14.267  33.158  1.00  0.00     0.026 C 
BRANCH  26  27
HETATM   27  C14 UNL     1      24.650  12.885  32.613  1.00  0.00     0.164 C 
BRANCH  27  28
HETATM   28  O3  UNL     1      23.370  12.377  32.312  1.00  0.00    -0.401 OA
ATOM     29  H3  UNL     1      23.433  11.430  32.358  1.00  0.00     0.209 HD
ENDBRANCH  27  28
ENDBRANCH  26  27
ENDBRANCH  25  26
ENDBRANCH  24  25
ENDBRANCH  12  24
BRANCH   1  30
HETATM   30  C2  UNL     1      27.997  21.799  32.622  1.00  0.00     0.225 C 
BRANCH  30  31
HETATM   31  C1  UNL     1      29.230  22.093  33.395  1.00  0.00     0.249 C 
HETATM   32  N1  UNL     1      29.239  22.249  34.798  1.00  0.00    -0.061 NA
HETATM   33  O1  UNL     1      30.366  22.224  32.830  1.00  0.00    -0.275 OA
ENDBRANCH  30  31
ENDBRANCH   1  30
TORSDOF 7
ENDMDL
MODEL 4
REMARK VINA RESULT: -6.559142276      2.429      4.509
REMARK  7 active torsions:
REMARK  status: ('A' for Active; 'I' for Inactive)
REMARK    1  A    between atoms: C1_2  and  C2_4 
REMARK    2  A    between atoms: C2_4  and  N2_5 
REMARK    3  A    between atoms: C10_16  and  C11_17 
REMARK    4  A    between atoms: C11_17  and  C12_18 
REMARK    5  A    between atoms: C12_18  and  C13_19 
REMARK    6  A    between atoms: C13_19  and  C14_20 
REMARK    7  A    between atoms: C14_20  and  O3_21 
ROOT
HETATM    1  N2  UNL     1      27.579  15.059  32.049  1.00  0.00    -0.340 N 
HETATM    2  C3  UNL     1      27.050  14.723  30.747  1.00  0.00     0.126 C 
HETATM    3  C4  UNL     1      26.963  15.940  29.843  1.00  0.00     0.020 C 
HETATM    4  C5  UNL     1      26.473  17.170  30.569  1.00  0.00     0.002 C 
HETATM    5  C6  UNL     1      25.933  18.123  29.561  1.00  0.00     0.002 C 
HETATM    6  C7  UNL     1      24.738  18.911  30.035  1.00  0.00     0.020 C 
HETATM    7  C8  UNL     1      23.732  18.090  30.759  1.00  0.00     0.122 C 
HETATM    8  N3  UNL     1      23.679  18.470  32.164  1.00  0.00    -0.359 N 
ATOM      9  H3  UNL     1      24.193  19.300  32.460  1.00  0.00     0.162 HD
HETATM   10  C9  UNL     1      22.953  17.749  33.141  1.00  0.00     0.248 C 
HETATM   11  O2  UNL     1      22.479  18.359  34.135  1.00  0.00    -0.271 OA
HETATM   12  C10 UNL     1      22.703  16.285  33.076  1.00  0.00     0.277 C 
HETATM   13  N4  UNL     1      23.701  15.637  33.873  1.00  0.00    -0.054 N 
ATOM     14  H41 UNL     1      23.299  15.249  34.727  1.00  0.00     0.279 HD
ATOM     15  H42 UNL     1      24.339  16.314  34.289  1.00  0.00     0.279 HD
HETATM   16  C15 UNL     1      24.435  14.606  33.107  1.00  0.00     0.221 C 
HETATM   17  C16 UNL     1      23.505  13.409  33.106  1.00  0.00     0.038 C 
HETATM   18  C17 UNL     1      24.101  12.177  32.545  1.00  0.00     0.003 C 
HETATM   19  C18 UNL     1      25.528  11.935  32.859  1.00  0.00     0.004 C 
HETATM   20  C19 UNL     1      26.001  12.816  33.953  1.00  0.00     0.042 C 
HETATM   21  C20 UNL     1      25.756  14.293  33.753  1.00  0.00     0.018 C 
HETATM   22  C21 UNL     1      26.902  15.069  33.285  1.00  0.00     0.248 C 
HETATM   23  O4  UNL     1      27.423  15.929  34.108  1.00  0.00    -0.268 OA
ENDROOT
BRANCH  12  24
HETATM   24  C11 UNL     1      21.298  16.038  33.558  1.00  0.00     0.043 C 
BRANCH  24  25
HETATM   25  C12 UNL     1      20.345  16.498  32.488  1.00  0.00     0.004 C 
BRANCH  25  26
HETATM   26  C13 UNL     1      19.040  16.930  33.122  1.00  0.00     0.026 C 
BRANCH  26  27
HETATM   27  C14 UNL     1      18.994  18.408  33.361  1.00  0.00     0.164 C 
BRANCH  27  28
HETATM   28  O3  UNL     1      17.668  18.722  33.720  1.00  0.00    -0.401 OA
ATOM     29  H3  UNL     1      17.235  19.028  32.931  1.00  0.00     0.209 HD
ENDBRANCH  27  28
ENDBRANCH  26  27
ENDBRANCH  25  26
ENDBRANCH  24  25
ENDBRANCH  12  24
BRANCH   1  30
HETATM   30  C2  UNL     1      29.011  15.435  32.002  1.00  0.00     0.225 C 
BRANCH  30  31
HETATM   31  C1  UNL     1      29.781  14.207  31.679  1.00  0.00     0.249 C 
HETATM   32  N1  UNL     1      29.726  13.036  32.466  1.00  0.00    -0.061 NA
HETATM   33  O1  UNL     1      30.546  14.139  30.660  1.00  0.00    -0.275 OA
ENDBRANCH  30  31
ENDBRANCH   1  30
TORSDOF 7
ENDMDL
MODEL 5
REMARK VINA RESULT: -6.475000716      1.968      7.737
REMARK  7 active torsions:
REMARK  status: ('A' for Active; 'I' for Inactive)
REMARK    1  A    between atoms: C1_2  and  C2_4 
REMARK    2  A    between atoms: C2_4  and  N2_5 
REMARK    3  A    between atoms: C10_16  and  C11_17 
REMARK    4  A    between atoms: C11_17  and  C12_18 
REMARK    5  A    between atoms: C12_18  and  C13_19 
REMARK    6  A    between atoms: C13_19  and  C14_20 
REMARK    7  A    between atoms: C14_20  and  O3_21 
ROOT
HETATM    1  N2  UNL     1      23.872  17.977  33.306  1.00  0.00    -0.340 N 
HETATM    2  C3  UNL     1      25.000  17.910  34.206  1.00  0.00     0.126 C 
HETATM    3  C4  UNL     1      25.760  19.223  34.257  1.00  0.00     0.020 C 
HETATM    4  C5  UNL     1      25.911  19.860  32.896  1.00  0.00     0.002 C 
HETATM    5  C6  UNL     1      27.060  20.805  32.947  1.00  0.00     0.002 C 
HETATM    6  C7  UNL     1      27.861  20.874  31.673  1.00  0.00     0.020 C 
HETATM    7  C8  UNL     1      28.140  19.542  31.073  1.00  0.00     0.122 C 
HETATM    8  N3  UNL     1      27.429  19.390  29.811  1.00  0.00    -0.359 N 
ATOM      9  H3  UNL     1      26.962  20.208  29.419  1.00  0.00     0.162 HD
HETATM   10  C9  UNL     1      27.352  18.171  29.100  1.00  0.00     0.248 C 
HETATM   11  O2  UNL     1      27.249  18.191  27.845  1.00  0.00    -0.271 OA
HETATM   12  C10 UNL     1      27.385  16.831  29.745  1.00  0.00     0.277 C 
HETATM   13  N4  UNL     1      26.032  16.393  29.910  1.00  0.00    -0.054 N 
ATOM     14  H41 UNL     1      25.810  15.625  29.276  1.00  0.00     0.279 HD
ATOM     15  H42 UNL     1      25.373  17.087  29.557  1.00  0.00     0.279 HD
HETATM   16  C15 UNL     1      25.735  16.035  31.313  1.00  0.00     0.221 C 
HETATM   17  C16 UNL     1      26.318  14.644  31.475  1.00  0.00     0.038 C 
HETATM   18  C17 UNL     1      25.986  13.992  32.760  1.00  0.00     0.003 C 
HETATM   19  C18 UNL     1      24.622  14.227  33.285  1.00  0.00     0.004 C 
HETATM   20  C19 UNL     1      23.735  14.813  32.250  1.00  0.00     0.042 C 
HETATM   21  C20 UNL     1      24.255  16.060  31.576  1.00  0.00     0.018 C 
HETATM   22  C21 UNL     1      23.709  17.322  32.069  1.00  0.00     0.248 C 
HETATM   23  O4  UNL     1      22.937  17.996  31.269  1.00  0.00    -0.268 OA
ENDROOT
BRANCH  12  24
HETATM   24  C11 UNL     1      28.206  15.921  28.869  1.00  0.00     0.043 C 
BRANCH  24  25
HETATM   25  C12 UNL     1      29.656  16.107  29.226  1.00  0.00     0.004 C 
BRANCH  25  26
HETATM   26  C13 UNL     1      30.453  16.404  27.973  1.00  0.00     0.026 C 
BRANCH  26  27
HETATM   27  C14 UNL     1      30.867  17.842  27.900  1.00  0.00     0.164 C 
BRANCH  27  28
HETATM   28  O3  UNL     1      30.107  18.433  26.870  1.00  0.00    -0.401 OA
ATOM     29  H3  UNL     1      29.555  19.090  27.279  1.00  0.00     0.209 HD
ENDBRANCH  27  28
ENDBRANCH  26  27
ENDBRANCH  25  26
ENDBRANCH  24  25
ENDBRANCH  12  24
BRANCH   1  30
HETATM   30  C2  UNL     1      22.798  18.866  33.804  1.00  0.00     0.225 C 
BRANCH  30  31
HETATM   31  C1  UNL     1      21.563  18.050  33.914  1.00  0.00     0.249 C 
HETATM   32  N1  UNL     1      20.324  18.452  33.369  1.00  0.00    -0.061 NA
HETATM   33  O1  UNL     1      21.549  16.924  34.514  1.00  0.00    -0.275 OA
ENDBRANCH  30  31
ENDBRANCH   1  30
TORSDOF 7
ENDMDL
