MODEL 1
REMARK VINA RESULT: -7.319583217      0.000      0.000
REMARK  6 active torsions:
REMARK  status: ('A' for Active; 'I' for Inactive)
REMARK    1  A    between atoms: O1_2  and  C2_3 
REMARK    2  A    between atoms: C3_4  and  C4_5 
REMARK    3  A    between atoms: C4_5  and  O2_6 
REMARK    4  A    between atoms: C5_8  and  C6_9 
REMARK    5  A    between atoms: C6_9  and  C7_10 
REMARK    6  A    between atoms: C22_29  and  O7_31 
ROOT
HETATM    1  C2  UNL     1      47.485  -9.675  -3.161  1.00  0.00     0.165 C 
HETATM    2  C3  UNL     1      46.445  -8.762  -2.661  1.00  0.00     0.071 C 
HETATM    3  C5  UNL     1      46.332  -8.487  -1.208  1.00  0.00     0.140 C 
HETATM    4  O3  UNL     1      47.085  -9.242  -0.332  1.00  0.00    -0.315 OA
HETATM    5  C10 UNL     1      48.232  -8.853   0.342  1.00  0.00     0.259 C 
HETATM    6  O4  UNL     1      48.912  -9.757   0.890  1.00  0.00    -0.265 OA
HETATM    7  C11 UNL     1      48.662  -7.461   0.433  1.00  0.00     0.111 C 
HETATM    8  C12 UNL     1      49.981  -7.322   1.146  1.00  0.00     0.010 C 
HETATM    9  C13 UNL     1      51.078  -7.888   0.291  1.00  0.00     0.000 C 
HETATM   10  C14 UNL     1      52.048  -8.767   1.048  1.00  0.00     0.000 C 
HETATM   11  C15 UNL     1      52.693  -9.766   0.081  1.00  0.00     0.000 C 
HETATM   12  C16 UNL     1      52.228 -11.183   0.343  1.00  0.00     0.000 C 
HETATM   13  C17 UNL     1      51.505 -11.656  -0.913  1.00  0.00     0.000 C 
HETATM   14  C18 UNL     1      51.130 -13.099  -0.876  1.00  0.00     0.010 C 
HETATM   15  C19 UNL     1      49.691 -13.379  -0.570  1.00  0.00     0.111 C 
HETATM   16  C20 UNL     1      48.959 -13.838  -1.770  1.00  0.00     0.258 C 
HETATM   17  O5  UNL     1      49.435 -14.804  -2.416  1.00  0.00    -0.265 OA
HETATM   18  O6  UNL     1      47.793 -13.262  -2.202  1.00  0.00    -0.318 OA
HETATM   19  C21 UNL     1      47.489 -11.898  -1.936  1.00  0.00     0.219 C 
HETATM   20  C22 UNL     1      47.161 -11.146  -3.194  1.00  0.00     0.105 C 
HETATM   21  C23 UNL     1      48.087 -11.829  -4.260  1.00  0.00     0.051 C 
ENDROOT
BRANCH   3  22
HETATM   22  C6  UNL     1      44.848  -8.423  -0.868  1.00  0.00     0.037 C 
BRANCH  22  23
HETATM   23  C7  UNL     1      44.452  -7.328   0.055  1.00  0.00    -0.020 C 
HETATM   24  C8  UNL     1      42.925  -7.182  -0.129  1.00  0.00     0.009 C 
HETATM   25  C9  UNL     1      44.617  -7.720   1.519  1.00  0.00     0.009 C 
ENDBRANCH  22  23
ENDBRANCH   3  22
BRANCH   2  26
HETATM   26  C4  UNL     1      46.682  -7.385  -3.319  1.00  0.00     0.174 C 
BRANCH  26  27
HETATM   27  O2  UNL     1      46.683  -7.448  -4.684  1.00  0.00    -0.400 OA
ATOM     28  H2  UNL     1      46.891  -6.614  -5.087  1.00  0.00     0.209 HD
ENDBRANCH  26  27
ENDBRANCH   2  26
BRANCH   1  29
HETATM   29  O1  UNL     1      48.754  -9.442  -2.635  1.00  0.00    -0.387 OA
HETATM   30  C1  UNL     1      49.728  -9.175  -3.564  1.00  0.00     0.202 C 
ENDBRANCH   1  29
BRANCH  20  31
HETATM   31  O7  UNL     1      45.878 -11.377  -3.577  1.00  0.00    -0.381 OA
HETATM   32  C24 UNL     1      45.660 -12.193  -4.651  1.00  0.00     0.202 C 
ENDBRANCH  20  31
TORSDOF 6
ENDMDL
MODEL 2
REMARK VINA RESULT: -6.822058504     11.772     15.327
REMARK  6 active torsions:
REMARK  status: ('A' for Active; 'I' for Inactive)
REMARK    1  A    between atoms: O1_2  and  C2_3 
REMARK    2  A    between atoms: C3_4  and  C4_5 
REMARK    3  A    between atoms: C4_5  and  O2_6 
REMARK    4  A    between atoms: C5_8  and  C6_9 
REMARK    5  A    between atoms: C6_9  and  C7_10 
REMARK    6  A    between atoms: C22_29  and  O7_31 
ROOT
HETATM    1  C2  UNL     1      49.563   2.325   7.208  1.00  0.00     0.165 C 
HETATM    2  C3  UNL     1      48.536   2.266   8.261  1.00  0.00     0.071 C 
HETATM    3  C5  UNL     1      47.099   2.219   7.896  1.00  0.00     0.140 C 
HETATM    4  O3  UNL     1      46.743   2.425   6.579  1.00  0.00    -0.315 OA
HETATM    5  C10 UNL     1      46.342   1.471   5.656  1.00  0.00     0.259 C 
HETATM    6  O4  UNL     1      46.310   1.817   4.448  1.00  0.00    -0.265 OA
HETATM    7  C11 UNL     1      45.965   0.114   6.037  1.00  0.00     0.111 C 
HETATM    8  C12 UNL     1      45.653  -0.744   4.839  1.00  0.00     0.010 C 
HETATM    9  C13 UNL     1      46.914  -1.019   4.073  1.00  0.00     0.000 C 
HETATM   10  C14 UNL     1      46.768  -0.854   2.577  1.00  0.00     0.000 C 
HETATM   11  C15 UNL     1      48.131  -0.520   1.964  1.00  0.00     0.000 C 
HETATM   12  C16 UNL     1      48.185   0.904   1.452  1.00  0.00     0.000 C 
HETATM   13  C17 UNL     1      49.263   1.627   2.252  1.00  0.00     0.000 C 
HETATM   14  C18 UNL     1      49.555   3.001   1.751  1.00  0.00     0.010 C 
HETATM   15  C19 UNL     1      48.948   4.114   2.548  1.00  0.00     0.111 C 
HETATM   16  C20 UNL     1      49.968   4.837   3.339  1.00  0.00     0.258 C 
HETATM   17  O5  UNL     1      50.982   5.269   2.738  1.00  0.00    -0.265 OA
HETATM   18  O6  UNL     1      49.854   5.053   4.688  1.00  0.00    -0.318 OA
HETATM   19  C21 UNL     1      49.116   4.174   5.527  1.00  0.00     0.219 C 
HETATM   20  C22 UNL     1      49.941   3.686   6.684  1.00  0.00     0.105 C 
HETATM   21  C23 UNL     1      51.381   3.592   6.070  1.00  0.00     0.051 C 
ENDROOT
BRANCH   3  22
HETATM   22  C6  UNL     1      46.344   3.090   8.894  1.00  0.00     0.037 C 
BRANCH  22  23
HETATM   23  C7  UNL     1      45.161   2.454   9.528  1.00  0.00    -0.020 C 
HETATM   24  C8  UNL     1      44.552   3.552  10.430  1.00  0.00     0.009 C 
HETATM   25  C9  UNL     1      44.061   2.146   8.518  1.00  0.00     0.009 C 
ENDBRANCH  22  23
ENDBRANCH   3  22
BRANCH   2  26
HETATM   26  C4  UNL     1      48.788   0.983   9.083  1.00  0.00     0.174 C 
BRANCH  26  27
HETATM   27  O2  UNL     1      48.244  -0.128   8.501  1.00  0.00    -0.400 OA
ATOM     28  H2  UNL     1      47.416  -0.376   8.893  1.00  0.00     0.209 HD
ENDBRANCH  26  27
ENDBRANCH   2  26
BRANCH   1  29
HETATM   29  O1  UNL     1      49.377   1.411   6.174  1.00  0.00    -0.387 OA
HETATM   30  C1  UNL     1      50.402   0.513   6.001  1.00  0.00     0.202 C 
ENDBRANCH   1  29
BRANCH  20  31
HETATM   31  O7  UNL     1      49.991   4.618   7.672  1.00  0.00    -0.381 OA
HETATM   32  C24 UNL     1      51.212   5.109   8.035  1.00  0.00     0.202 C 
ENDBRANCH  20  31
TORSDOF 6
ENDMDL
MODEL 3
REMARK VINA RESULT: -6.809396193      9.151     12.068
REMARK  6 active torsions:
REMARK  status: ('A' for Active; 'I' for Inactive)
REMARK    1  A    between atoms: O1_2  and  C2_3 
REMARK    2  A    between atoms: C3_4  and  C4_5 
REMARK    3  A    between atoms: C4_5  and  O2_6 
REMARK    4  A    between atoms: C5_8  and  C6_9 
REMARK    5  A    between atoms: C6_9  and  C7_10 
REMARK    6  A    between atoms: C22_29  and  O7_31 
ROOT
HETATM    1  C2  UNL     1      45.184  -1.149   5.329  1.00  0.00     0.165 C 
HETATM    2  C3  UNL     1      45.689  -1.748   6.574  1.00  0.00     0.071 C 
HETATM    3  C5  UNL     1      47.149  -1.826   6.824  1.00  0.00     0.140 C 
HETATM    4  O3  UNL     1      48.014  -1.508   5.797  1.00  0.00    -0.315 OA
HETATM    5  C10 UNL     1      48.756  -0.346   5.651  1.00  0.00     0.259 C 
HETATM    6  O4  UNL     1      49.282  -0.137   4.528  1.00  0.00    -0.265 OA
HETATM    7  C11 UNL     1      48.942   0.614   6.734  1.00  0.00     0.111 C 
HETATM    8  C12 UNL     1      49.717   1.826   6.289  1.00  0.00     0.010 C 
HETATM    9  C13 UNL     1      48.880   2.641   5.346  1.00  0.00     0.000 C 
HETATM   10  C14 UNL     1      49.627   3.112   4.119  1.00  0.00     0.000 C 
HETATM   11  C15 UNL     1      48.635   3.344   2.975  1.00  0.00     0.000 C 
HETATM   12  C16 UNL     1      48.799   2.320   1.872  1.00  0.00     0.000 C 
HETATM   13  C17 UNL     1      47.489   1.545   1.783  1.00  0.00     0.000 C 
HETATM   14  C18 UNL     1      47.430   0.606   0.626  1.00  0.00     0.010 C 
HETATM   15  C19 UNL     1      47.658  -0.836   0.960  1.00  0.00     0.111 C 
HETATM   16  C20 UNL     1      46.404  -1.617   0.886  1.00  0.00     0.258 C 
HETATM   17  O5  UNL     1      45.727  -1.544  -0.168  1.00  0.00    -0.265 OA
HETATM   18  O6  UNL     1      45.956  -2.412   1.910  1.00  0.00    -0.318 OA
HETATM   19  C21 UNL     1      46.283  -2.140   3.266  1.00  0.00     0.219 C 
HETATM   20  C22 UNL     1      45.056  -2.049   4.128  1.00  0.00     0.105 C 
HETATM   21  C23 UNL     1      43.994  -1.425   3.157  1.00  0.00     0.051 C 
ENDROOT
BRANCH   3  22
HETATM   22  C6  UNL     1      47.429  -3.169   7.488  1.00  0.00     0.037 C 
BRANCH  22  23
HETATM   23  C7  UNL     1      48.767  -3.751   7.210  1.00  0.00    -0.020 C 
HETATM   24  C8  UNL     1      49.758  -2.877   8.011  1.00  0.00     0.009 C 
HETATM   25  C9  UNL     1      48.926  -5.143   7.809  1.00  0.00     0.009 C 
ENDBRANCH  22  23
ENDBRANCH   3  22
BRANCH   2  26
HETATM   26  C4  UNL     1      45.119  -0.922   7.749  1.00  0.00     0.174 C 
BRANCH  26  27
HETATM   27  O2  UNL     1      44.413  -1.688   8.634  1.00  0.00    -0.400 OA
ATOM     28  H2  UNL     1      44.722  -1.591   9.527  1.00  0.00     0.209 HD
ENDBRANCH  26  27
ENDBRANCH   2  26
BRANCH   1  29
HETATM   29  O1  UNL     1      45.776   0.067   4.996  1.00  0.00    -0.387 OA
HETATM   30  C1  UNL     1      44.974   1.169   5.165  1.00  0.00     0.202 C 
ENDBRANCH   1  29
BRANCH  20  31
HETATM   31  O7  UNL     1      44.607  -3.287   4.464  1.00  0.00    -0.381 OA
HETATM   32  C24 UNL     1      45.482  -4.334   4.392  1.00  0.00     0.202 C 
ENDBRANCH  20  31
TORSDOF 6
ENDMDL
MODEL 4
REMARK VINA RESULT: -6.795653464      9.864     13.460
REMARK  6 active torsions:
REMARK  status: ('A' for Active; 'I' for Inactive)
REMARK    1  A    between atoms: O1_2  and  C2_3 
REMARK    2  A    between atoms: C3_4  and  C4_5 
REMARK    3  A    between atoms: C4_5  and  O2_6 
REMARK    4  A    between atoms: C5_8  and  C6_9 
REMARK    5  A    between atoms: C6_9  and  C7_10 
REMARK    6  A    between atoms: C22_29  and  O7_31 
ROOT
HETATM    1  C2  UNL     1      46.907   2.087   5.619  1.00  0.00     0.165 C 
HETATM    2  C3  UNL     1      48.098   2.848   5.210  1.00  0.00     0.071 C 
HETATM    3  C5  UNL     1      49.151   2.198   4.392  1.00  0.00     0.140 C 
HETATM    4  O3  UNL     1      49.085   0.835   4.190  1.00  0.00    -0.315 OA
HETATM    5  C10 UNL     1      48.690   0.173   3.037  1.00  0.00     0.259 C 
HETATM    6  O4  UNL     1      48.452  -1.057   3.133  1.00  0.00    -0.265 OA
HETATM    7  C11 UNL     1      48.548   0.846   1.750  1.00  0.00     0.111 C 
HETATM    8  C12 UNL     1      48.026  -0.079   0.682  1.00  0.00     0.010 C 
HETATM    9  C13 UNL     1      46.593  -0.421   0.968  1.00  0.00     0.000 C 
HETATM   10  C14 UNL     1      46.273  -1.891   0.809  1.00  0.00     0.000 C 
HETATM   11  C15 UNL     1      45.070  -2.249   1.687  1.00  0.00     0.000 C 
HETATM   12  C16 UNL     1      45.466  -3.137   2.848  1.00  0.00     0.000 C 
HETATM   13  C17 UNL     1      45.154  -2.367   4.127  1.00  0.00     0.000 C 
HETATM   14  C18 UNL     1      45.333  -3.175   5.367  1.00  0.00     0.010 C 
HETATM   15  C19 UNL     1      46.593  -2.907   6.129  1.00  0.00     0.111 C 
HETATM   16  C20 UNL     1      46.327  -2.157   7.376  1.00  0.00     0.258 C 
HETATM   17  O5  UNL     1      45.462  -2.614   8.163  1.00  0.00    -0.265 OA
HETATM   18  O6  UNL     1      46.979  -0.998   7.706  1.00  0.00    -0.318 OA
HETATM   19  C21 UNL     1      47.501  -0.124   6.714  1.00  0.00     0.219 C 
HETATM   20  C22 UNL     1      46.999   1.281   6.888  1.00  0.00     0.105 C 
HETATM   21  C23 UNL     1      45.547   1.066   7.440  1.00  0.00     0.051 C 
ENDROOT
BRANCH   3  22
HETATM   22  C6  UNL     1      50.499   2.692   4.904  1.00  0.00     0.037 C 
BRANCH  22  23
HETATM   23  C7  UNL     1      51.554   2.851   3.871  1.00  0.00    -0.020 C 
HETATM   24  C8  UNL     1      50.886   3.661   2.737  1.00  0.00     0.009 C 
HETATM   25  C9  UNL     1      52.697   3.742   4.344  1.00  0.00     0.009 C 
ENDBRANCH  22  23
ENDBRANCH   3  22
BRANCH   2  26
HETATM   26  C4  UNL     1      47.615   4.050   4.370  1.00  0.00     0.174 C 
BRANCH  26  27
HETATM   27  O2  UNL     1      47.197   3.683   3.122  1.00  0.00    -0.400 OA
ATOM     28  H2  UNL     1      47.527   4.259   2.442  1.00  0.00     0.209 HD
ENDBRANCH  26  27
ENDBRANCH   2  26
BRANCH   1  29
HETATM   29  O1  UNL     1      46.311   1.359   4.592  1.00  0.00    -0.387 OA
HETATM   30  C1  UNL     1      44.956   1.175   4.720  1.00  0.00     0.202 C 
ENDBRANCH   1  29
BRANCH  20  31
HETATM   31  O7  UNL     1      47.700   1.930   7.855  1.00  0.00    -0.381 OA
HETATM   32  C24 UNL     1      47.004   2.655   8.780  1.00  0.00     0.202 C 
ENDBRANCH  20  31
TORSDOF 6
ENDMDL
MODEL 5
REMARK VINA RESULT: -6.597265047      9.434     12.830
REMARK  6 active torsions:
REMARK  status: ('A' for Active; 'I' for Inactive)
REMARK    1  A    between atoms: O1_2  and  C2_3 
REMARK    2  A    between atoms: C3_4  and  C4_5 
REMARK    3  A    between atoms: C4_5  and  O2_6 
REMARK    4  A    between atoms: C5_8  and  C6_9 
REMARK    5  A    between atoms: C6_9  and  C7_10 
REMARK    6  A    between atoms: C22_29  and  O7_31 
ROOT
HETATM    1  C2  UNL     1      45.669  -0.987   5.369  1.00  0.00     0.165 C 
HETATM    2  C3  UNL     1      46.145  -1.667   6.584  1.00  0.00     0.071 C 
HETATM    3  C5  UNL     1      47.530  -1.446   7.066  1.00  0.00     0.140 C 
HETATM    4  O3  UNL     1      48.409  -0.754   6.259  1.00  0.00    -0.315 OA
HETATM    5  C10 UNL     1      48.839   0.555   6.410  1.00  0.00     0.259 C 
HETATM    6  O4  UNL     1      49.433   1.082   5.436  1.00  0.00    -0.265 OA
HETATM    7  C11 UNL     1      48.627   1.319   7.635  1.00  0.00     0.111 C 
HETATM    8  C12 UNL     1      49.113   2.739   7.508  1.00  0.00     0.010 C 
HETATM    9  C13 UNL     1      48.224   3.494   6.563  1.00  0.00     0.000 C 
HETATM   10  C14 UNL     1      48.977   4.341   5.562  1.00  0.00     0.000 C 
HETATM   11  C15 UNL     1      48.117   4.539   4.310  1.00  0.00     0.000 C 
HETATM   12  C16 UNL     1      48.681   3.798   3.116  1.00  0.00     0.000 C 
HETATM   13  C17 UNL     1      47.640   2.768   2.694  1.00  0.00     0.000 C 
HETATM   14  C18 UNL     1      47.977   2.068   1.422  1.00  0.00     0.010 C 
HETATM   15  C19 UNL     1      48.524   0.683   1.580  1.00  0.00     0.111 C 
HETATM   16  C20 UNL     1      47.536  -0.343   1.181  1.00  0.00     0.258 C 
HETATM   17  O5  UNL     1      47.007  -0.239   0.048  1.00  0.00    -0.265 OA
HETATM   18  O6  UNL     1      47.180  -1.392   1.988  1.00  0.00    -0.318 OA
HETATM   19  C21 UNL     1      47.246  -1.302   3.405  1.00  0.00     0.219 C 
HETATM   20  C22 UNL     1      45.936  -1.659   4.047  1.00  0.00     0.105 C 
HETATM   21  C23 UNL     1      44.884  -1.134   3.009  1.00  0.00     0.051 C 
ENDROOT
BRANCH   3  22
HETATM   22  C6  UNL     1      48.059  -2.784   7.569  1.00  0.00     0.037 C 
BRANCH  22  23
HETATM   23  C7  UNL     1      49.510  -3.018   7.353  1.00  0.00    -0.020 C 
HETATM   24  C8  UNL     1      50.215  -2.225   8.476  1.00  0.00     0.009 C 
HETATM   25  C9  UNL     1      49.905  -4.467   7.612  1.00  0.00     0.009 C 
ENDBRANCH  22  23
ENDBRANCH   3  22
BRANCH   2  26
HETATM   26  C4  UNL     1      45.233  -1.225   7.750  1.00  0.00     0.174 C 
BRANCH  26  27
HETATM   27  O2  UNL     1      44.845  -2.271   8.538  1.00  0.00    -0.400 OA
ATOM     28  H2  UNL     1      43.902  -2.317   8.645  1.00  0.00     0.209 HD
ENDBRANCH  26  27
ENDBRANCH   2  26
BRANCH   1  29
HETATM   29  O1  UNL     1      45.964   0.374   5.320  1.00  0.00    -0.387 OA
HETATM   30  C1  UNL     1      44.874   1.207   5.372  1.00  0.00     0.202 C 
ENDBRANCH   1  29
BRANCH  20  31
HETATM   31  O7  UNL     1      45.782  -3.007   4.121  1.00  0.00    -0.381 OA
HETATM   32  C24 UNL     1      44.789  -3.586   3.382  1.00  0.00     0.202 C 
ENDBRANCH  20  31
TORSDOF 6
ENDMDL
