MODEL 1
REMARK VINA RESULT: -10.424731405      0.000      0.000
REMARK  5 active torsions:
REMARK  status: ('A' for Active; 'I' for Inactive)
REMARK    1  A    between atoms: C4_8  and  C5_9 
REMARK    2  A    between atoms: C6_12  and  C7_13 
REMARK    3  A    between atoms: C7_13  and  C8_14 
REMARK    4  A    between atoms: N4_17  and  C11_18 
REMARK    5  A    between atoms: N5_21  and  C14_22 
ROOT
HETATM    1  C7  UNL     1      46.237  -1.535   4.003  1.00  0.00     0.063 C 
ENDROOT
BRANCH   1   2
HETATM    2  C6  UNL     1      46.486  -0.076   4.020  1.00  0.00     0.026 A 
HETATM    3  N3  UNL     1      47.502   0.563   3.365  1.00  0.00    -0.343 N 
HETATM    4  C5  UNL     1      47.479   1.877   3.597  1.00  0.00     0.134 A 
ATOM      5  H3  UNL     1      48.190   0.094   2.774  1.00  0.00     0.167 HD
HETATM    6  N6  UNL     1      46.428   2.093   4.417  1.00  0.00    -0.348 N 
HETATM    7  C24 UNL     1      45.815   0.929   4.685  1.00  0.00     0.114 A 
ATOM      8  H6  UNL     1      46.143   3.004   4.778  1.00  0.00     0.167 HD
BRANCH   4   9
HETATM    9  C4  UNL     1      48.407   2.869   3.067  1.00  0.00     0.109 A 
HETATM   10  N2  UNL     1      49.399   2.637   2.205  1.00  0.00    -0.186 N 
HETATM   11  C3  UNL     1      50.057   3.795   1.933  1.00  0.00     0.688 A 
ATOM     12  H2  UNL     1      49.630   1.726   1.810  1.00  0.00     0.184 HD
HETATM   13  N1  UNL     1      51.101   4.126   1.157  1.00  0.00    -0.201 N 
HETATM   14  N7  UNL     1      49.451   4.737   2.640  1.00  0.00    -0.166 N 
HETATM   15  C2  UNL     1      51.561   5.383   1.068  1.00  0.00     0.107 A 
ATOM     16  H1  UNL     1      51.562   3.394   0.617  1.00  0.00     0.183 HD
HETATM   17  C1  UNL     1      50.919   6.345   1.809  1.00  0.00     0.036 A 
HETATM   18  C26 UNL     1      49.855   6.028   2.603  1.00  0.00     0.116 A 
HETATM   19  C25 UNL     1      48.432   4.215   3.350  1.00  0.00     0.148 A 
ENDBRANCH   4   9
ENDBRANCH   1   2
BRANCH   1  20
HETATM   20  C8  UNL     1      45.178  -1.970   3.053  1.00  0.00    -0.006 C 
HETATM   21  C9  UNL     1      45.756  -2.046   1.641  1.00  0.00     0.035 C 
HETATM   22  C10 UNL     1      44.883  -2.841   0.703  1.00  0.00     0.273 C 
HETATM   23  N4  UNL     1      44.724  -4.157   1.203  1.00  0.00     0.093 N 
HETATM   24  C22 UNL     1      45.233  -4.367   2.517  1.00  0.00     0.273 C 
HETATM   25  C23 UNL     1      44.622  -3.308   3.413  1.00  0.00     0.035 C 
BRANCH  23  26
HETATM   26  C11 UNL     1      45.060  -5.232   0.327  1.00  0.00     0.226 C 
HETATM   27  C12 UNL     1      44.999  -6.532   1.090  1.00  0.00     0.066 C 
HETATM   28  C13 UNL     1      45.964  -7.494   0.388  1.00  0.00     0.275 C 
HETATM   29  N5  UNL     1      45.836  -7.219  -1.036  1.00  0.00     0.093 N 
HETATM   30  C20 UNL     1      46.625  -6.059  -1.362  1.00  0.00     0.275 C 
HETATM   31  C21 UNL     1      46.494  -5.088  -0.209  1.00  0.00     0.066 C 
BRANCH  29  32
HETATM   32  C14 UNL     1      46.230  -8.399  -1.738  1.00  0.00     0.223 C 
HETATM   33  C15 UNL     1      46.566  -8.134  -3.199  1.00  0.00     0.036 C 
HETATM   34  C16 UNL     1      47.369  -9.339  -3.666  1.00  0.00     0.002 C 
HETATM   35  C17 UNL     1      46.670 -10.636  -3.445  1.00  0.00     0.000 C 
HETATM   36  C18 UNL     1      45.967 -10.776  -2.135  1.00  0.00     0.002 C 
HETATM   37  C19 UNL     1      45.231  -9.514  -1.711  1.00  0.00     0.036 C 
ENDBRANCH  29  32
ENDBRANCH  23  26
ENDBRANCH   1  20
TORSDOF 5
ENDMDL
MODEL 2
REMARK VINA RESULT: -10.159824990      2.033     12.225
REMARK  5 active torsions:
REMARK  status: ('A' for Active; 'I' for Inactive)
REMARK    1  A    between atoms: C4_8  and  C5_9 
REMARK    2  A    between atoms: C6_12  and  C7_13 
REMARK    3  A    between atoms: C7_13  and  C8_14 
REMARK    4  A    between atoms: N4_17  and  C11_18 
REMARK    5  A    between atoms: N5_21  and  C14_22 
ROOT
HETATM    1  C7  UNL     1      45.531  -6.697   1.832  1.00  0.00     0.063 C 
ENDROOT
BRANCH   1   2
HETATM    2  C6  UNL     1      45.045  -7.568   0.739  1.00  0.00     0.026 A 
HETATM    3  N3  UNL     1      45.804  -8.474   0.049  1.00  0.00    -0.343 N 
HETATM    4  C5  UNL     1      45.088  -9.086  -0.896  1.00  0.00     0.134 A 
ATOM      5  H3  UNL     1      46.790  -8.657   0.234  1.00  0.00     0.167 HD
HETATM    6  N6  UNL     1      43.843  -8.570  -0.818  1.00  0.00    -0.348 N 
HETATM    7  C24 UNL     1      43.794  -7.652   0.161  1.00  0.00     0.114 A 
ATOM      8  H6  UNL     1      43.058  -8.836  -1.412  1.00  0.00     0.167 HD
BRANCH   4   9
HETATM    9  C4  UNL     1      45.565 -10.108  -1.822  1.00  0.00     0.109 A 
HETATM   10  N2  UNL     1      46.090  -9.892  -3.030  1.00  0.00    -0.186 N 
HETATM   11  C3  UNL     1      46.424 -11.075  -3.609  1.00  0.00     0.688 A 
ATOM     12  H2  UNL     1      46.222  -8.974  -3.455  1.00  0.00     0.184 HD
HETATM   13  N1  UNL     1      46.969 -11.429  -4.783  1.00  0.00    -0.201 N 
HETATM   14  N7  UNL     1      46.094 -12.016  -2.737  1.00  0.00    -0.166 N 
HETATM   15  C2  UNL     1      47.197 -12.709  -5.113  1.00  0.00     0.107 A 
ATOM     16  H1  UNL     1      47.219 -10.697  -5.448  1.00  0.00     0.183 HD
HETATM   17  C1  UNL     1      46.850 -13.671  -4.195  1.00  0.00     0.036 A 
HETATM   18  C26 UNL     1      46.294 -13.329  -2.996  1.00  0.00     0.116 A 
HETATM   19  C25 UNL     1      45.565 -11.469  -1.626  1.00  0.00     0.148 A 
ENDBRANCH   4   9
ENDBRANCH   1   2
BRANCH   1  20
HETATM   20  C8  UNL     1      44.669  -5.517   2.109  1.00  0.00    -0.006 C 
HETATM   21  C9  UNL     1      45.190  -4.780   3.342  1.00  0.00     0.035 C 
HETATM   22  C10 UNL     1      44.632  -3.385   3.459  1.00  0.00     0.273 C 
HETATM   23  N4  UNL     1      44.973  -2.639   2.303  1.00  0.00     0.093 N 
HETATM   24  C22 UNL     1      45.565  -3.396   1.252  1.00  0.00     0.273 C 
HETATM   25  C23 UNL     1      44.643  -4.563   0.961  1.00  0.00     0.035 C 
BRANCH  23  26
HETATM   26  C11 UNL     1      45.645  -1.397   2.505  1.00  0.00     0.226 C 
HETATM   27  C12 UNL     1      46.813  -1.304   1.555  1.00  0.00     0.066 C 
HETATM   28  C13 UNL     1      47.840  -0.379   2.217  1.00  0.00     0.275 C 
HETATM   29  N5  UNL     1      47.069   0.663   2.881  1.00  0.00     0.093 N 
HETATM   30  C20 UNL     1      46.589   0.158   4.142  1.00  0.00     0.275 C 
HETATM   31  C21 UNL     1      46.211  -1.292   3.930  1.00  0.00     0.066 C 
BRANCH  29  32
HETATM   32  C14 UNL     1      47.913   1.808   3.005  1.00  0.00     0.223 C 
HETATM   33  C15 UNL     1      47.194   3.012   3.597  1.00  0.00     0.036 C 
HETATM   34  C16 UNL     1      48.287   3.959   4.068  1.00  0.00     0.002 C 
HETATM   35  C17 UNL     1      49.258   4.319   2.997  1.00  0.00     0.000 C 
HETATM   36  C18 UNL     1      49.691   3.196   2.113  1.00  0.00     0.002 C 
HETATM   37  C19 UNL     1      48.552   2.262   1.729  1.00  0.00     0.036 C 
ENDBRANCH  29  32
ENDBRANCH  23  26
ENDBRANCH   1  20
TORSDOF 5
ENDMDL
MODEL 3
REMARK VINA RESULT: -10.096271596      0.565      1.003
REMARK  5 active torsions:
REMARK  status: ('A' for Active; 'I' for Inactive)
REMARK    1  A    between atoms: C4_8  and  C5_9 
REMARK    2  A    between atoms: C6_12  and  C7_13 
REMARK    3  A    between atoms: C7_13  and  C8_14 
REMARK    4  A    between atoms: N4_17  and  C11_18 
REMARK    5  A    between atoms: N5_21  and  C14_22 
ROOT
HETATM    1  C7  UNL     1      46.197  -1.541   4.007  1.00  0.00     0.063 C 
ENDROOT
BRANCH   1   2
HETATM    2  C6  UNL     1      46.395  -0.076   4.083  1.00  0.00     0.026 A 
HETATM    3  N3  UNL     1      47.405   0.620   3.477  1.00  0.00    -0.343 N 
HETATM    4  C5  UNL     1      47.331   1.923   3.756  1.00  0.00     0.134 A 
ATOM      5  H3  UNL     1      48.122   0.197   2.888  1.00  0.00     0.167 HD
HETATM    6  N6  UNL     1      46.254   2.074   4.556  1.00  0.00    -0.348 N 
HETATM    7  C24 UNL     1      45.674   0.881   4.766  1.00  0.00     0.114 A 
ATOM      8  H6  UNL     1      45.929   2.961   4.942  1.00  0.00     0.167 HD
BRANCH   4   9
HETATM    9  C4  UNL     1      48.237   2.965   3.285  1.00  0.00     0.109 A 
HETATM   10  N2  UNL     1      48.269   4.230   3.708  1.00  0.00    -0.186 N 
HETATM   11  C3  UNL     1      49.240   4.915   3.048  1.00  0.00     0.688 A 
ATOM     12  H2  UNL     1      47.656   4.624   4.421  1.00  0.00     0.184 HD
HETATM   13  N1  UNL     1      49.690   6.179   3.081  1.00  0.00    -0.201 N 
HETATM   14  N7  UNL     1      49.800   4.050   2.217  1.00  0.00    -0.166 N 
HETATM   15  C2  UNL     1      50.693   6.606   2.299  1.00  0.00     0.107 A 
ATOM     16  H1  UNL     1      49.253   6.839   3.725  1.00  0.00     0.183 HD
HETATM   17  C1  UNL     1      51.261   5.693   1.444  1.00  0.00     0.036 A 
HETATM   18  C26 UNL     1      50.817   4.403   1.397  1.00  0.00     0.116 A 
HETATM   19  C25 UNL     1      49.217   2.840   2.328  1.00  0.00     0.148 A 
ENDBRANCH   4   9
ENDBRANCH   1   2
BRANCH   1  20
HETATM   20  C8  UNL     1      45.145  -1.973   3.048  1.00  0.00    -0.006 C 
HETATM   21  C9  UNL     1      45.734  -2.046   1.641  1.00  0.00     0.035 C 
HETATM   22  C10 UNL     1      44.868  -2.838   0.694  1.00  0.00     0.273 C 
HETATM   23  N4  UNL     1      44.705  -4.156   1.190  1.00  0.00     0.093 N 
HETATM   24  C22 UNL     1      45.204  -4.369   2.507  1.00  0.00     0.273 C 
HETATM   25  C23 UNL     1      44.586  -3.312   3.401  1.00  0.00     0.035 C 
BRANCH  23  26
HETATM   26  C11 UNL     1      45.047  -5.228   0.314  1.00  0.00     0.226 C 
HETATM   27  C12 UNL     1      44.966  -6.532   1.070  1.00  0.00     0.066 C 
HETATM   28  C13 UNL     1      45.936  -7.497   0.378  1.00  0.00     0.275 C 
HETATM   29  N5  UNL     1      45.831  -7.215  -1.047  1.00  0.00     0.093 N 
HETATM   30  C20 UNL     1      46.632  -6.058  -1.356  1.00  0.00     0.275 C 
HETATM   31  C21 UNL     1      46.489  -5.092  -0.200  1.00  0.00     0.066 C 
BRANCH  29  32
HETATM   32  C14 UNL     1      46.228  -8.394  -1.748  1.00  0.00     0.223 C 
HETATM   33  C15 UNL     1      46.592  -8.124  -3.201  1.00  0.00     0.036 C 
HETATM   34  C16 UNL     1      47.394  -9.332  -3.661  1.00  0.00     0.002 C 
HETATM   35  C17 UNL     1      46.681 -10.625  -3.459  1.00  0.00     0.000 C 
HETATM   36  C18 UNL     1      45.954 -10.767  -2.163  1.00  0.00     0.002 C 
HETATM   37  C19 UNL     1      45.220  -9.501  -1.745  1.00  0.00     0.036 C 
ENDBRANCH  29  32
ENDBRANCH  23  26
ENDBRANCH   1  20
TORSDOF 5
ENDMDL
MODEL 4
REMARK VINA RESULT: -10.050246404      1.432     11.283
REMARK  5 active torsions:
REMARK  status: ('A' for Active; 'I' for Inactive)
REMARK    1  A    between atoms: C4_8  and  C5_9 
REMARK    2  A    between atoms: C6_12  and  C7_13 
REMARK    3  A    between atoms: C7_13  and  C8_14 
REMARK    4  A    between atoms: N4_17  and  C11_18 
REMARK    5  A    between atoms: N5_21  and  C14_22 
ROOT
HETATM    1  C7  UNL     1      45.511  -4.062   4.725  1.00  0.00     0.063 C 
ENDROOT
BRANCH   1   2
HETATM    2  C6  UNL     1      44.903  -4.985   3.742  1.00  0.00     0.026 A 
HETATM    3  N3  UNL     1      45.565  -5.592   2.710  1.00  0.00    -0.343 N 
HETATM    4  C5  UNL     1      44.739  -6.345   1.980  1.00  0.00     0.134 A 
ATOM      5  H3  UNL     1      46.562  -5.484   2.523  1.00  0.00     0.167 HD
HETATM    6  N6  UNL     1      43.521  -6.224   2.549  1.00  0.00    -0.348 N 
HETATM    7  C24 UNL     1      43.596  -5.408   3.613  1.00  0.00     0.114 A 
ATOM      8  H6  UNL     1      42.671  -6.682   2.221  1.00  0.00     0.167 HD
BRANCH   4   9
HETATM    9  C4  UNL     1      45.092  -7.135   0.805  1.00  0.00     0.109 A 
HETATM   10  N2  UNL     1      44.809  -8.424   0.610  1.00  0.00    -0.186 N 
HETATM   11  C3  UNL     1      45.292  -8.827  -0.595  1.00  0.00     0.688 A 
ATOM     12  H2  UNL     1      44.305  -9.018   1.268  1.00  0.00     0.184 HD
HETATM   13  N1  UNL     1      45.289  -9.986  -1.271  1.00  0.00    -0.201 N 
HETATM   14  N7  UNL     1      45.874  -7.765  -1.131  1.00  0.00    -0.166 N 
HETATM   15  C2  UNL     1      45.855 -10.114  -2.481  1.00  0.00     0.107 A 
ATOM     16  H1  UNL     1      44.839 -10.799  -0.850  1.00  0.00     0.183 HD
HETATM   17  C1  UNL     1      46.453  -9.001  -3.021  1.00  0.00     0.036 A 
HETATM   18  C26 UNL     1      46.466  -7.813  -2.347  1.00  0.00     0.116 A 
HETATM   19  C25 UNL     1      45.774  -6.704  -0.308  1.00  0.00     0.148 A 
ENDBRANCH   4   9
ENDBRANCH   1   2
BRANCH   1  20
HETATM   20  C8  UNL     1      45.059  -2.649   4.606  1.00  0.00    -0.006 C 
HETATM   21  C9  UNL     1      45.936  -1.755   5.482  1.00  0.00     0.035 C 
HETATM   22  C10 UNL     1      45.809  -0.296   5.124  1.00  0.00     0.273 C 
HETATM   23  N4  UNL     1      46.173  -0.106   3.768  1.00  0.00     0.093 N 
HETATM   24  C22 UNL     1      46.375  -1.305   3.026  1.00  0.00     0.273 C 
HETATM   25  C23 UNL     1      45.134  -2.157   3.198  1.00  0.00     0.035 C 
BRANCH  23  26
HETATM   26  C11 UNL     1      47.185   0.863   3.496  1.00  0.00     0.226 C 
HETATM   27  C12 UNL     1      46.726   2.212   3.990  1.00  0.00     0.066 C 
HETATM   28  C13 UNL     1      47.443   3.258   3.130  1.00  0.00     0.275 C 
HETATM   29  N5  UNL     1      48.782   2.734   2.898  1.00  0.00     0.093 N 
HETATM   30  C20 UNL     1      48.729   1.770   1.829  1.00  0.00     0.275 C 
HETATM   31  C21 UNL     1      47.438   0.996   1.986  1.00  0.00     0.066 C 
BRANCH  29  32
HETATM   32  C14 UNL     1      49.637   3.846   2.629  1.00  0.00     0.223 C 
HETATM   33  C15 UNL     1      49.012   5.180   3.012  1.00  0.00     0.036 C 
HETATM   34  C16 UNL     1      50.163   6.172   3.089  1.00  0.00     0.002 C 
HETATM   35  C17 UNL     1      50.972   6.235   1.839  1.00  0.00     0.000 C 
HETATM   36  C18 UNL     1      51.271   4.922   1.196  1.00  0.00     0.002 C 
HETATM   37  C19 UNL     1      50.087   3.965   1.205  1.00  0.00     0.036 C 
ENDBRANCH  29  32
ENDBRANCH  23  26
ENDBRANCH   1  20
TORSDOF 5
ENDMDL
MODEL 5
REMARK VINA RESULT: -9.988072295      2.472     12.376
REMARK  5 active torsions:
REMARK  status: ('A' for Active; 'I' for Inactive)
REMARK    1  A    between atoms: C4_8  and  C5_9 
REMARK    2  A    between atoms: C6_12  and  C7_13 
REMARK    3  A    between atoms: C7_13  and  C8_14 
REMARK    4  A    between atoms: N4_17  and  C11_18 
REMARK    5  A    between atoms: N5_21  and  C14_22 
ROOT
HETATM    1  C7  UNL     1      45.668  -6.421   1.704  1.00  0.00     0.063 C 
ENDROOT
BRANCH   1   2
HETATM    2  C6  UNL     1      45.125  -7.394   0.730  1.00  0.00     0.026 A 
HETATM    3  N3  UNL     1      45.864  -8.287   0.005  1.00  0.00    -0.343 N 
HETATM    4  C5  UNL     1      45.091  -9.009  -0.809  1.00  0.00     0.134 A 
ATOM      5  H3  UNL     1      46.877  -8.389   0.077  1.00  0.00     0.167 HD
HETATM    6  N6  UNL     1      43.828  -8.576  -0.608  1.00  0.00    -0.348 N 
HETATM    7  C24 UNL     1      43.825  -7.602   0.317  1.00  0.00     0.114 A 
ATOM      8  H6  UNL     1      43.001  -8.935  -1.085  1.00  0.00     0.167 HD
BRANCH   4   9
HETATM    9  C4  UNL     1      45.533 -10.053  -1.728  1.00  0.00     0.109 A 
HETATM   10  N2  UNL     1      45.989  -9.868  -2.968  1.00  0.00    -0.186 N 
HETATM   11  C3  UNL     1      46.307 -11.065  -3.527  1.00  0.00     0.688 A 
ATOM     12  H2  UNL     1      46.084  -8.963  -3.428  1.00  0.00     0.184 HD
HETATM   13  N1  UNL     1      46.794 -11.449  -4.718  1.00  0.00    -0.201 N 
HETATM   14  N7  UNL     1      46.039 -11.983  -2.610  1.00  0.00    -0.166 N 
HETATM   15  C2  UNL     1      47.023 -12.736  -5.019  1.00  0.00     0.107 A 
ATOM     16  H1  UNL     1      46.997 -10.736  -5.418  1.00  0.00     0.183 HD
HETATM   17  C1  UNL     1      46.739 -13.673  -4.055  1.00  0.00     0.036 A 
HETATM   18  C26 UNL     1      46.244 -13.301  -2.838  1.00  0.00     0.116 A 
HETATM   19  C25 UNL     1      45.563 -11.407  -1.490  1.00  0.00     0.148 A 
ENDBRANCH   4   9
ENDBRANCH   1   2
BRANCH   1  20
HETATM   20  C8  UNL     1      44.673  -5.442   2.219  1.00  0.00    -0.006 C 
HETATM   21  C9  UNL     1      45.189  -4.823   3.517  1.00  0.00     0.035 C 
HETATM   22  C10 UNL     1      44.448  -3.563   3.888  1.00  0.00     0.273 C 
HETATM   23  N4  UNL     1      44.577  -2.612   2.845  1.00  0.00     0.093 N 
HETATM   24  C22 UNL     1      45.178  -3.105   1.651  1.00  0.00     0.273 C 
HETATM   25  C23 UNL     1      44.411  -4.346   1.239  1.00  0.00     0.035 C 
BRANCH  23  26
HETATM   26  C11 UNL     1      45.078  -1.324   3.197  1.00  0.00     0.226 C 
HETATM   27  C12 UNL     1      46.573  -1.301   2.996  1.00  0.00     0.066 C 
HETATM   28  C13 UNL     1      47.127  -0.250   3.964  1.00  0.00     0.275 C 
HETATM   29  N5  UNL     1      46.152   0.832   3.978  1.00  0.00     0.093 N 
HETATM   30  C20 UNL     1      45.068   0.475   4.857  1.00  0.00     0.275 C 
HETATM   31  C21 UNL     1      44.816  -1.007   4.678  1.00  0.00     0.066 C 
BRANCH  29  32
HETATM   32  C14 UNL     1      46.839   2.023   4.367  1.00  0.00     0.223 C 
HETATM   33  C15 UNL     1      47.441   2.771   3.186  1.00  0.00     0.036 C 
HETATM   34  C16 UNL     1      47.725   4.179   3.687  1.00  0.00     0.002 C 
HETATM   35  C17 UNL     1      48.580   4.211   4.907  1.00  0.00     0.000 C 
HETATM   36  C18 UNL     1      48.259   3.190   5.948  1.00  0.00     0.002 C 
HETATM   37  C19 UNL     1      47.936   1.821   5.366  1.00  0.00     0.036 C 
ENDBRANCH  29  32
ENDBRANCH  23  26
ENDBRANCH   1  20
TORSDOF 5
ENDMDL
