MODEL 1
REMARK VINA RESULT: -7.877266442      0.000      0.000
REMARK  8 active torsions:
REMARK  status: ('A' for Active; 'I' for Inactive)
REMARK    1  A    between atoms: C2_2  and  O2_4 
REMARK    2  A    between atoms: O2_4  and  C3_5 
REMARK    3  A    between atoms: C3_5  and  C5_7 
REMARK    4  A    between atoms: C7_9  and  C8_10 
REMARK    5  A    between atoms: C8_10  and  O3_11 
REMARK    6  A    between atoms: O3_11  and  C9_12 
REMARK    7  A    between atoms: C11_16  and  O5_17 
REMARK    8  A    between atoms: O5_17  and  C12_18 
ROOT
HETATM    1  C5  UNL     1      46.273  -1.129   3.721  1.00  0.00     0.024 C 
HETATM    2  C6  UNL     1      45.260  -0.997   4.870  1.00  0.00     0.015 C 
HETATM    3  C7  UNL     1      45.333   0.498   5.242  1.00  0.00     0.018 C 
HETATM    4  C10 UNL     1      46.540   1.035   4.611  1.00  0.00     0.033 C 
HETATM    5  C11 UNL     1      47.285   2.126   5.251  1.00  0.00     0.171 C 
HETATM    6  C14 UNL     1      48.232   2.926   4.409  1.00  0.00     0.084 C 
HETATM    7  C15 UNL     1      48.273   4.342   5.082  1.00  0.00     0.049 C 
HETATM    8  C16 UNL     1      47.817   3.249   3.007  1.00  0.00     0.040 C 
HETATM    9  C17 UNL     1      48.654   2.455   1.989  1.00  0.00     0.004 C 
HETATM   10  C18 UNL     1      48.077   1.082   1.973  1.00  0.00     0.005 C 
HETATM   11  C19 UNL     1      48.366   0.165   3.085  1.00  0.00    -0.004 C 
HETATM   12  C20 UNL     1      49.762   0.334   3.608  1.00  0.00     0.032 C 
HETATM   13  C21 UNL     1      50.160   1.499   4.381  1.00  0.00     0.169 C 
HETATM   14  O7  UNL     1      49.518   2.634   4.365  1.00  0.00    -0.378 OA
HETATM   15  C22 UNL     1      47.299  -0.138   4.086  1.00  0.00    -0.028 C 
HETATM   16  C23 UNL     1      48.049  -0.876   5.228  1.00  0.00     0.016 C 
ENDROOT
BRANCH   1  17
HETATM   17  C3  UNL     1      45.512  -1.258   2.513  1.00  0.00     0.132 C 
HETATM   18  C4  UNL     1      46.480  -1.883   1.465  1.00  0.00     0.040 C 
BRANCH  17  19
HETATM   19  O2  UNL     1      44.461  -2.200   2.527  1.00  0.00    -0.316 OA
BRANCH  19  20
HETATM   20  C2  UNL     1      44.048  -2.987   1.492  1.00  0.00     0.255 C 
HETATM   21  C1  UNL     1      44.330  -4.445   1.539  1.00  0.00     0.126 C 
HETATM   22  O1  UNL     1      43.441  -2.424   0.540  1.00  0.00    -0.266 OA
ENDBRANCH  19  20
ENDBRANCH  17  19
ENDBRANCH   1  17
BRANCH   3  23
HETATM   23  C8  UNL     1      45.119   0.540   6.697  1.00  0.00     0.185 C 
BRANCH  23  24
HETATM   24  O3  UNL     1      44.183   1.616   6.931  1.00  0.00    -0.306 OA
BRANCH  24  25
HETATM   25  C9  UNL     1      43.798   1.945   8.223  1.00  0.00     0.372 C 
HETATM   26  N1  UNL     1      42.887   2.978   8.524  1.00  0.00    -0.032 NA
HETATM   27  O4  UNL     1      44.317   1.256   9.152  1.00  0.00    -0.242 OA
ENDBRANCH  24  25
ENDBRANCH  23  24
ENDBRANCH   3  23
BRANCH   5  28
HETATM   28  O5  UNL     1      48.001   1.817   6.424  1.00  0.00    -0.313 OA
BRANCH  28  29
HETATM   29  C12 UNL     1      47.640   2.063   7.718  1.00  0.00     0.255 C 
HETATM   30  C13 UNL     1      47.205   3.405   8.205  1.00  0.00     0.126 C 
HETATM   31  O6  UNL     1      47.665   1.145   8.548  1.00  0.00    -0.266 OA
ENDBRANCH  28  29
ENDBRANCH   5  28
TORSDOF 8
ENDMDL
MODEL 2
REMARK VINA RESULT: -7.677202159      2.313      4.794
REMARK  8 active torsions:
REMARK  status: ('A' for Active; 'I' for Inactive)
REMARK    1  A    between atoms: C2_2  and  O2_4 
REMARK    2  A    between atoms: O2_4  and  C3_5 
REMARK    3  A    between atoms: C3_5  and  C5_7 
REMARK    4  A    between atoms: C7_9  and  C8_10 
REMARK    5  A    between atoms: C8_10  and  O3_11 
REMARK    6  A    between atoms: O3_11  and  C9_12 
REMARK    7  A    between atoms: C11_16  and  O5_17 
REMARK    8  A    between atoms: O5_17  and  C12_18 
ROOT
HETATM    1  C5  UNL     1      45.265  -1.048   3.298  1.00  0.00     0.024 C 
HETATM    2  C6  UNL     1      46.329  -0.738   2.232  1.00  0.00     0.015 C 
HETATM    3  C7  UNL     1      47.660  -0.966   2.977  1.00  0.00     0.018 C 
HETATM    4  C10 UNL     1      47.344  -1.023   4.405  1.00  0.00     0.033 C 
HETATM    5  C11 UNL     1      48.316  -0.546   5.396  1.00  0.00     0.171 C 
HETATM    6  C14 UNL     1      48.158  -0.998   6.816  1.00  0.00     0.084 C 
HETATM    7  C15 UNL     1      49.611  -0.981   7.408  1.00  0.00     0.049 C 
HETATM    8  C16 UNL     1      47.732  -2.413   7.054  1.00  0.00     0.040 C 
HETATM    9  C17 UNL     1      46.291  -2.470   7.592  1.00  0.00     0.004 C 
HETATM   10  C18 UNL     1      45.409  -2.275   6.408  1.00  0.00     0.005 C 
HETATM   11  C19 UNL     1      45.256  -0.929   5.837  1.00  0.00    -0.004 C 
HETATM   12  C20 UNL     1      45.259   0.136   6.892  1.00  0.00     0.032 C 
HETATM   13  C21 UNL     1      46.469   0.509   7.608  1.00  0.00     0.169 C 
HETATM   14  O7  UNL     1      47.521  -0.256   7.701  1.00  0.00    -0.378 OA
HETATM   15  C22 UNL     1      45.918  -0.600   4.539  1.00  0.00    -0.028 C 
HETATM   16  C23 UNL     1      45.779   0.942   4.422  1.00  0.00     0.016 C 
ENDROOT
BRANCH   1  17
HETATM   17  C3  UNL     1      44.708  -2.327   2.966  1.00  0.00     0.132 C 
HETATM   18  C4  UNL     1      44.702  -2.398   1.410  1.00  0.00     0.040 C 
BRANCH  17  19
HETATM   19  O2  UNL     1      45.484  -3.458   3.299  1.00  0.00    -0.316 OA
BRANCH  19  20
HETATM   20  C2  UNL     1      45.040  -4.735   3.484  1.00  0.00     0.255 C 
HETATM   21  C1  UNL     1      45.454  -5.788   2.521  1.00  0.00     0.126 C 
HETATM   22  O1  UNL     1      44.291  -4.952   4.476  1.00  0.00    -0.266 OA
ENDBRANCH  19  20
ENDBRANCH  17  19
ENDBRANCH   1  17
BRANCH   3  23
HETATM   23  C8  UNL     1      48.586   0.029   2.414  1.00  0.00     0.185 C 
BRANCH  23  24
HETATM   24  O3  UNL     1      47.781   1.184   2.087  1.00  0.00    -0.306 OA
BRANCH  24  25
HETATM   25  C9  UNL     1      48.288   2.465   2.249  1.00  0.00     0.372 C 
HETATM   26  N1  UNL     1      47.627   3.478   2.972  1.00  0.00    -0.032 NA
HETATM   27  O4  UNL     1      49.408   2.693   1.700  1.00  0.00    -0.242 OA
ENDBRANCH  24  25
ENDBRANCH  23  24
ENDBRANCH   3  23
BRANCH   5  28
HETATM   28  O5  UNL     1      48.532   0.844   5.471  1.00  0.00    -0.313 OA
BRANCH  28  29
HETATM   29  C12 UNL     1      49.711   1.519   5.336  1.00  0.00     0.255 C 
HETATM   30  C13 UNL     1      50.941   0.908   4.753  1.00  0.00     0.126 C 
HETATM   31  O6  UNL     1      49.791   2.697   5.709  1.00  0.00    -0.266 OA
ENDBRANCH  28  29
ENDBRANCH   5  28
TORSDOF 8
ENDMDL
MODEL 3
REMARK VINA RESULT: -7.597945513      9.749     13.507
REMARK  8 active torsions:
REMARK  status: ('A' for Active; 'I' for Inactive)
REMARK    1  A    between atoms: C2_2  and  O2_4 
REMARK    2  A    between atoms: O2_4  and  C3_5 
REMARK    3  A    between atoms: C3_5  and  C5_7 
REMARK    4  A    between atoms: C7_9  and  C8_10 
REMARK    5  A    between atoms: C8_10  and  O3_11 
REMARK    6  A    between atoms: O3_11  and  C9_12 
REMARK    7  A    between atoms: C11_16  and  O5_17 
REMARK    8  A    between atoms: O5_17  and  C12_18 
ROOT
HETATM    1  C5  UNL     1      46.622  -8.023  -1.352  1.00  0.00     0.024 C 
HETATM    2  C6  UNL     1      45.764  -9.058  -2.098  1.00  0.00     0.015 C 
HETATM    3  C7  UNL     1      46.347 -10.408  -1.634  1.00  0.00     0.018 C 
HETATM    4  C10 UNL     1      47.634 -10.120  -0.999  1.00  0.00     0.033 C 
HETATM    5  C11 UNL     1      48.728 -11.096  -1.070  1.00  0.00     0.171 C 
HETATM    6  C14 UNL     1      49.848 -10.977  -0.081  1.00  0.00     0.084 C 
HETATM    7  C15 UNL     1      50.389 -12.440   0.093  1.00  0.00     0.049 C 
HETATM    8  C16 UNL     1      49.501 -10.595   1.324  1.00  0.00     0.040 C 
HETATM    9  C17 UNL     1      49.979  -9.166   1.638  1.00  0.00     0.004 C 
HETATM   10  C18 UNL     1      48.978  -8.257   1.014  1.00  0.00     0.005 C 
HETATM   11  C19 UNL     1      48.995  -8.056  -0.443  1.00  0.00    -0.004 C 
HETATM   12  C20 UNL     1      50.389  -8.049  -0.996  1.00  0.00     0.032 C 
HETATM   13  C21 UNL     1      51.187  -9.262  -1.089  1.00  0.00     0.169 C 
HETATM   14  O7  UNL     1      50.960 -10.336  -0.385  1.00  0.00    -0.378 OA
HETATM   15  C22 UNL     1      47.934  -8.686  -1.286  1.00  0.00    -0.028 C 
HETATM   16  C23 UNL     1      48.447  -8.502  -2.740  1.00  0.00     0.016 C 
ENDROOT
BRANCH   1  17
HETATM   17  C3  UNL     1      45.807  -7.495  -0.296  1.00  0.00     0.132 C 
HETATM   18  C4  UNL     1      46.009  -5.952  -0.334  1.00  0.00     0.040 C 
BRANCH  17  19
HETATM   19  O2  UNL     1      44.410  -7.604  -0.463  1.00  0.00    -0.316 OA
BRANCH  19  20
HETATM   20  C2  UNL     1      43.445  -7.272   0.442  1.00  0.00     0.255 C 
HETATM   21  C1  UNL     1      42.302  -6.432   0.000  1.00  0.00     0.126 C 
HETATM   22  O1  UNL     1      43.580  -7.703   1.620  1.00  0.00    -0.266 OA
ENDBRANCH  19  20
ENDBRANCH  17  19
ENDBRANCH   1  17
BRANCH   3  23
HETATM   23  C8  UNL     1      46.225 -11.297  -2.800  1.00  0.00     0.185 C 
BRANCH  23  24
HETATM   24  O3  UNL     1      45.666 -12.533  -2.302  1.00  0.00    -0.306 OA
BRANCH  24  25
HETATM   25  C9  UNL     1      45.482 -13.615  -3.151  1.00  0.00     0.372 C 
HETATM   26  N1  UNL     1      44.780 -14.781  -2.785  1.00  0.00    -0.032 NA
HETATM   27  O4  UNL     1      45.989 -13.507  -4.308  1.00  0.00    -0.242 OA
ENDBRANCH  24  25
ENDBRANCH  23  24
ENDBRANCH   3  23
BRANCH   5  28
HETATM   28  O5  UNL     1      49.353 -11.276  -2.320  1.00  0.00    -0.313 OA
BRANCH  28  29
HETATM   29  C12 UNL     1      49.231 -12.333  -3.175  1.00  0.00     0.255 C 
HETATM   30  C13 UNL     1      49.389 -12.212  -4.653  1.00  0.00     0.126 C 
HETATM   31  O6  UNL     1      48.977 -13.459  -2.727  1.00  0.00    -0.266 OA
ENDBRANCH  28  29
ENDBRANCH   5  28
TORSDOF 8
ENDMDL
MODEL 4
REMARK VINA RESULT: -7.539471524      2.190      4.637
REMARK  8 active torsions:
REMARK  status: ('A' for Active; 'I' for Inactive)
REMARK    1  A    between atoms: C2_2  and  O2_4 
REMARK    2  A    between atoms: O2_4  and  C3_5 
REMARK    3  A    between atoms: C3_5  and  C5_7 
REMARK    4  A    between atoms: C7_9  and  C8_10 
REMARK    5  A    between atoms: C8_10  and  O3_11 
REMARK    6  A    between atoms: O3_11  and  C9_12 
REMARK    7  A    between atoms: C11_16  and  O5_17 
REMARK    8  A    between atoms: O5_17  and  C12_18 
ROOT
HETATM    1  C5  UNL     1      45.723  -0.714   3.323  1.00  0.00     0.024 C 
HETATM    2  C6  UNL     1      46.804  -0.316   2.305  1.00  0.00     0.015 C 
HETATM    3  C7  UNL     1      48.121  -0.518   3.083  1.00  0.00     0.018 C 
HETATM    4  C10 UNL     1      47.764  -0.646   4.497  1.00  0.00     0.033 C 
HETATM    5  C11 UNL     1      48.683  -0.168   5.537  1.00  0.00     0.171 C 
HETATM    6  C14 UNL     1      48.502  -0.684   6.932  1.00  0.00     0.084 C 
HETATM    7  C15 UNL     1      49.934  -0.629   7.571  1.00  0.00     0.049 C 
HETATM    8  C16 UNL     1      48.131  -2.124   7.101  1.00  0.00     0.040 C 
HETATM    9  C17 UNL     1      46.678  -2.263   7.590  1.00  0.00     0.004 C 
HETATM   10  C18 UNL     1      45.825  -2.059   6.387  1.00  0.00     0.005 C 
HETATM   11  C19 UNL     1      45.631  -0.699   5.863  1.00  0.00    -0.004 C 
HETATM   12  C20 UNL     1      45.555   0.323   6.959  1.00  0.00     0.032 C 
HETATM   13  C21 UNL     1      46.725   0.717   7.727  1.00  0.00     0.169 C 
HETATM   14  O7  UNL     1      47.806  -0.006   7.824  1.00  0.00    -0.378 OA
HETATM   15  C22 UNL     1      46.318  -0.290   4.601  1.00  0.00    -0.028 C 
HETATM   16  C23 UNL     1      46.115   1.249   4.540  1.00  0.00     0.016 C 
ENDROOT
BRANCH   1  17
HETATM   17  C3  UNL     1      45.233  -2.001   2.924  1.00  0.00     0.132 C 
HETATM   18  C4  UNL     1      43.767  -2.079   3.444  1.00  0.00     0.040 C 
BRANCH  17  19
HETATM   19  O2  UNL     1      45.054  -2.206   1.538  1.00  0.00    -0.316 OA
BRANCH  19  20
HETATM   20  C2  UNL     1      44.547  -3.316   0.929  1.00  0.00     0.255 C 
HETATM   21  C1  UNL     1      45.345  -4.570   0.936  1.00  0.00     0.126 C 
HETATM   22  O1  UNL     1      43.412  -3.214   0.386  1.00  0.00    -0.266 OA
ENDBRANCH  19  20
ENDBRANCH  17  19
ENDBRANCH   1  17
BRANCH   3  23
HETATM   23  C8  UNL     1      49.019   0.537   2.589  1.00  0.00     0.185 C 
BRANCH  23  24
HETATM   24  O3  UNL     1      48.175   1.669   2.282  1.00  0.00    -0.306 OA
BRANCH  24  25
HETATM   25  C9  UNL     1      48.647   2.964   2.441  1.00  0.00     0.372 C 
HETATM   26  N1  UNL     1      47.967   3.956   3.175  1.00  0.00    -0.032 NA
HETATM   27  O4  UNL     1      49.752   3.226   1.878  1.00  0.00    -0.242 OA
ENDBRANCH  24  25
ENDBRANCH  23  24
ENDBRANCH   3  23
BRANCH   5  28
HETATM   28  O5  UNL     1      48.836   1.225   5.673  1.00  0.00    -0.313 OA
BRANCH  28  29
HETATM   29  C12 UNL     1      49.997   1.942   5.720  1.00  0.00     0.255 C 
HETATM   30  C13 UNL     1      51.227   1.557   4.968  1.00  0.00     0.126 C 
HETATM   31  O6  UNL     1      50.060   2.965   6.415  1.00  0.00    -0.266 OA
ENDBRANCH  28  29
ENDBRANCH   5  28
TORSDOF 8
ENDMDL
MODEL 5
REMARK VINA RESULT: -7.471812095      1.095      1.253
REMARK  8 active torsions:
REMARK  status: ('A' for Active; 'I' for Inactive)
REMARK    1  A    between atoms: C2_2  and  O2_4 
REMARK    2  A    between atoms: O2_4  and  C3_5 
REMARK    3  A    between atoms: C3_5  and  C5_7 
REMARK    4  A    between atoms: C7_9  and  C8_10 
REMARK    5  A    between atoms: C8_10  and  O3_11 
REMARK    6  A    between atoms: O3_11  and  C9_12 
REMARK    7  A    between atoms: C11_16  and  O5_17 
REMARK    8  A    between atoms: O5_17  and  C12_18 
ROOT
HETATM    1  C5  UNL     1      47.479  -0.426   3.499  1.00  0.00     0.024 C 
HETATM    2  C6  UNL     1      46.332  -0.581   4.511  1.00  0.00     0.015 C 
HETATM    3  C7  UNL     1      46.136   0.850   5.053  1.00  0.00     0.018 C 
HETATM    4  C10 UNL     1      47.314   1.621   4.652  1.00  0.00     0.033 C 
HETATM    5  C11 UNL     1      47.807   2.711   5.503  1.00  0.00     0.171 C 
HETATM    6  C14 UNL     1      48.714   3.733   4.888  1.00  0.00     0.084 C 
HETATM    7  C15 UNL     1      48.464   5.043   5.714  1.00  0.00     0.049 C 
HETATM    8  C16 UNL     1      48.420   4.176   3.489  1.00  0.00     0.040 C 
HETATM    9  C17 UNL     1      49.479   3.641   2.509  1.00  0.00     0.004 C 
HETATM   10  C18 UNL     1      49.120   2.217   2.263  1.00  0.00     0.005 C 
HETATM   11  C19 UNL     1      49.413   1.211   3.295  1.00  0.00    -0.004 C 
HETATM   12  C20 UNL     1      50.698   1.497   4.014  1.00  0.00     0.032 C 
HETATM   13  C21 UNL     1      50.825   2.596   4.958  1.00  0.00     0.169 C 
HETATM   14  O7  UNL     1      50.026   3.626   4.983  1.00  0.00    -0.378 OA
HETATM   15  C22 UNL     1      48.296   0.639   4.105  1.00  0.00    -0.028 C 
HETATM   16  C23 UNL     1      49.011  -0.132   5.247  1.00  0.00     0.016 C 
ENDROOT
BRANCH   1  17
HETATM   17  C3  UNL     1      46.891  -0.499   2.193  1.00  0.00     0.132 C 
HETATM   18  C4  UNL     1      48.031  -0.962   1.239  1.00  0.00     0.040 C 
BRANCH  17  19
HETATM   19  O2  UNL     1      45.924  -1.507   1.993  1.00  0.00    -0.316 OA
BRANCH  19  20
HETATM   20  C2  UNL     1      45.649  -2.164   0.829  1.00  0.00     0.255 C 
HETATM   21  C1  UNL     1      45.622  -3.649   0.829  1.00  0.00     0.126 C 
HETATM   22  O1  UNL     1      45.430  -1.461  -0.196  1.00  0.00    -0.266 OA
ENDBRANCH  19  20
ENDBRANCH  17  19
ENDBRANCH   1  17
BRANCH   3  23
HETATM   23  C8  UNL     1      45.751   0.673   6.462  1.00  0.00     0.185 C 
BRANCH  23  24
HETATM   24  O3  UNL     1      44.529   1.424   6.638  1.00  0.00    -0.306 OA
BRANCH  24  25
HETATM   25  C9  UNL     1      44.066   1.727   7.911  1.00  0.00     0.372 C 
HETATM   26  N1  UNL     1      43.086   2.706   8.169  1.00  0.00    -0.032 NA
HETATM   27  O4  UNL     1      44.578   1.064   8.862  1.00  0.00    -0.242 OA
ENDBRANCH  24  25
ENDBRANCH  23  24
ENDBRANCH   3  23
BRANCH   5  28
HETATM   28  O5  UNL     1      48.421   2.353   6.719  1.00  0.00    -0.313 OA
BRANCH  28  29
HETATM   29  C12 UNL     1      47.885   2.394   7.974  1.00  0.00     0.255 C 
HETATM   30  C13 UNL     1      47.165   3.582   8.517  1.00  0.00     0.126 C 
HETATM   31  O6  UNL     1      47.988   1.410   8.718  1.00  0.00    -0.266 OA
ENDBRANCH  28  29
ENDBRANCH   5  28
TORSDOF 8
ENDMDL
