MODEL 1
REMARK VINA RESULT: -6.525847012      0.000      0.000
REMARK  3 active torsions:
REMARK  status: ('A' for Active; 'I' for Inactive)
REMARK       I    between atoms: N1_2  and  C2_4 
REMARK       I    between atoms: C2_4  and  N2_6 
REMARK    1  A    between atoms: N2_6  and  C3_8 
REMARK    2  A    between atoms: C3_8  and  C4_9 
REMARK       I    between atoms: C4_9  and  N3_11 
REMARK    3  A    between atoms: N3_11  and  C5_13 
ROOT
HETATM    1  C3  UNL     1      23.126  15.470  31.850  1.00  0.00     0.115 C 
HETATM    2  C11 UNL     1      23.854  16.798  31.838  1.00  0.00     0.041 C 
HETATM    3  C12 UNL     1      23.907  16.683  30.331  1.00  0.00     0.006 C 
HETATM    4  C13 UNL     1      23.758  15.185  30.502  1.00  0.00     0.041 C 
ENDROOT
BRANCH   1   5
HETATM    5  N2  UNL     1      21.688  15.572  31.826  1.00  0.00    -0.325 N 
HETATM    6  C2  UNL     1      20.910  16.223  32.787  1.00  0.00     0.316 C 
HETATM    7  N1  UNL     1      19.506  16.269  32.662  1.00  0.00    -0.347 N 
HETATM    8  O1  UNL     1      21.445  16.773  33.771  1.00  0.00    -0.247 OA
HETATM    9  C1  UNL     1      18.659  16.932  33.636  1.00  0.00     0.151 C 
ATOM     10  H1  UNL     1      19.071  15.819  31.857  1.00  0.00     0.163 HD
ATOM     11  H2  UNL     1      21.200  15.135  31.045  1.00  0.00     0.165 HD
ENDBRANCH   1   5
BRANCH   1  12
HETATM   12  C4  UNL     1      23.605  14.534  32.870  1.00  0.00     0.246 C 
HETATM   13  O2  UNL     1      24.227  14.928  33.882  1.00  0.00    -0.271 OA
HETATM   14  N3  UNL     1      23.368  13.152  32.719  1.00  0.00    -0.354 N 
ATOM     15  H3  UNL     1      22.861  12.833  31.893  1.00  0.00     0.162 HD
BRANCH  14  16
HETATM   16  C5  UNL     1      23.812  12.159  33.689  1.00  0.00     0.084 C 
HETATM   17  C6  UNL     1      22.787  11.018  33.642  1.00  0.00     0.025 C 
HETATM   18  C7  UNL     1      23.325   9.788  34.332  1.00  0.00     0.002 C 
HETATM   19  C8  UNL     1      24.572  10.072  35.124  1.00  0.00     0.000 C 
HETATM   20  C9  UNL     1      25.668  10.697  34.329  1.00  0.00     0.002 C 
HETATM   21  C10 UNL     1      25.125  11.540  33.220  1.00  0.00     0.025 C 
ENDBRANCH  14  16
ENDBRANCH   1  12
TORSDOF 3
ENDMDL
MODEL 2
REMARK VINA RESULT: -6.354673005      1.863      5.763
REMARK  3 active torsions:
REMARK  status: ('A' for Active; 'I' for Inactive)
REMARK       I    between atoms: N1_2  and  C2_4 
REMARK       I    between atoms: C2_4  and  N2_6 
REMARK    1  A    between atoms: N2_6  and  C3_8 
REMARK    2  A    between atoms: C3_8  and  C4_9 
REMARK       I    between atoms: C4_9  and  N3_11 
REMARK    3  A    between atoms: N3_11  and  C5_13 
ROOT
HETATM    1  C3  UNL     1      24.567  16.317  32.058  1.00  0.00     0.115 C 
HETATM    2  C11 UNL     1      25.106  16.046  30.670  1.00  0.00     0.041 C 
HETATM    3  C12 UNL     1      26.462  16.483  31.181  1.00  0.00     0.006 C 
HETATM    4  C13 UNL     1      25.735  17.262  32.258  1.00  0.00     0.041 C 
ENDROOT
BRANCH   1   5
HETATM    5  N2  UNL     1      24.565  15.174  32.937  1.00  0.00    -0.325 N 
HETATM    6  C2  UNL     1      23.866  13.985  32.712  1.00  0.00     0.316 C 
HETATM    7  N1  UNL     1      23.940  12.924  33.637  1.00  0.00    -0.347 N 
HETATM    8  O1  UNL     1      23.165  13.845  31.690  1.00  0.00    -0.247 OA
HETATM    9  C1  UNL     1      23.231  11.672  33.445  1.00  0.00     0.151 C 
ATOM     10  H1  UNL     1      24.514  13.041  34.472  1.00  0.00     0.163 HD
ATOM     11  H2  UNL     1      25.119  15.238  33.790  1.00  0.00     0.165 HD
ENDBRANCH   1   5
BRANCH   1  12
HETATM   12  C4  UNL     1      23.292  17.039  32.074  1.00  0.00     0.246 C 
HETATM   13  O2  UNL     1      23.077  18.006  31.310  1.00  0.00    -0.271 OA
HETATM   14  N3  UNL     1      22.275  16.646  32.968  1.00  0.00    -0.354 N 
ATOM     15  H3  UNL     1      22.453  15.858  33.591  1.00  0.00     0.162 HD
BRANCH  14  16
HETATM   16  C5  UNL     1      20.982  17.314  33.045  1.00  0.00     0.084 C 
HETATM   17  C6  UNL     1      19.934  16.209  33.234  1.00  0.00     0.025 C 
HETATM   18  C7  UNL     1      18.615  16.794  33.678  1.00  0.00     0.002 C 
HETATM   19  C8  UNL     1      18.576  18.291  33.544  1.00  0.00     0.000 C 
HETATM   20  C9  UNL     1      19.681  18.994  34.257  1.00  0.00     0.002 C 
HETATM   21  C10 UNL     1      20.915  18.153  34.316  1.00  0.00     0.025 C 
ENDBRANCH  14  16
ENDBRANCH   1  12
TORSDOF 3
ENDMDL
MODEL 3
REMARK VINA RESULT: -6.134657549      5.154      6.958
REMARK  3 active torsions:
REMARK  status: ('A' for Active; 'I' for Inactive)
REMARK       I    between atoms: N1_2  and  C2_4 
REMARK       I    between atoms: C2_4  and  N2_6 
REMARK    1  A    between atoms: N2_6  and  C3_8 
REMARK    2  A    between atoms: C3_8  and  C4_9 
REMARK       I    between atoms: C4_9  and  N3_11 
REMARK    3  A    between atoms: N3_11  and  C5_13 
ROOT
HETATM    1  C3  UNL     1      24.414  19.167  35.514  1.00  0.00     0.115 C 
HETATM    2  C11 UNL     1      24.383  19.940  36.815  1.00  0.00     0.041 C 
HETATM    3  C12 UNL     1      25.827  19.534  37.017  1.00  0.00     0.006 C 
HETATM    4  C13 UNL     1      25.561  18.363  36.093  1.00  0.00     0.041 C 
ENDROOT
BRANCH   1   5
HETATM    5  N2  UNL     1      24.761  19.953  34.356  1.00  0.00    -0.325 N 
HETATM    6  C2  UNL     1      25.348  19.454  33.189  1.00  0.00     0.316 C 
HETATM    7  N1  UNL     1      25.640  20.313  32.110  1.00  0.00    -0.347 N 
HETATM    8  O1  UNL     1      25.622  18.242  33.086  1.00  0.00    -0.247 OA
HETATM    9  C1  UNL     1      26.249  19.839  30.881  1.00  0.00     0.151 C 
ATOM     10  H1  UNL     1      25.415  21.303  32.197  1.00  0.00     0.163 HD
ATOM     11  H2  UNL     1      24.562  20.952  34.390  1.00  0.00     0.165 HD
ENDBRANCH   1   5
BRANCH   1  12
HETATM   12  C4  UNL     1      23.237  18.325  35.289  1.00  0.00     0.246 C 
HETATM   13  O2  UNL     1      23.225  17.115  35.608  1.00  0.00    -0.271 OA
HETATM   14  N3  UNL     1      22.082  18.878  34.699  1.00  0.00    -0.354 N 
ATOM     15  H3  UNL     1      22.093  19.865  34.439  1.00  0.00     0.162 HD
BRANCH  14  16
HETATM   16  C5  UNL     1      20.873  18.106  34.443  1.00  0.00     0.084 C 
HETATM   17  C6  UNL     1      19.729  19.121  34.311  1.00  0.00     0.025 C 
HETATM   18  C7  UNL     1      18.510  18.477  33.700  1.00  0.00     0.002 C 
HETATM   19  C8  UNL     1      18.618  16.978  33.645  1.00  0.00     0.000 C 
HETATM   20  C9  UNL     1      19.833  16.481  32.937  1.00  0.00     0.002 C 
HETATM   21  C10 UNL     1      20.974  17.436  33.076  1.00  0.00     0.025 C 
ENDBRANCH  14  16
ENDBRANCH   1  12
TORSDOF 3
ENDMDL
MODEL 4
REMARK VINA RESULT: -6.114829648      2.945      5.960
REMARK  3 active torsions:
REMARK  status: ('A' for Active; 'I' for Inactive)
REMARK       I    between atoms: N1_2  and  C2_4 
REMARK       I    between atoms: C2_4  and  N2_6 
REMARK    1  A    between atoms: N2_6  and  C3_8 
REMARK    2  A    between atoms: C3_8  and  C4_9 
REMARK       I    between atoms: C4_9  and  N3_11 
REMARK    3  A    between atoms: N3_11  and  C5_13 
ROOT
HETATM    1  C3  UNL     1      24.362  16.001  31.916  1.00  0.00     0.115 C 
HETATM    2  C11 UNL     1      24.089  14.519  32.062  1.00  0.00     0.041 C 
HETATM    3  C12 UNL     1      25.006  14.299  30.879  1.00  0.00     0.006 C 
HETATM    4  C13 UNL     1      24.716  15.728  30.468  1.00  0.00     0.041 C 
ENDROOT
BRANCH   1   5
HETATM    5  N2  UNL     1      25.455  16.493  32.716  1.00  0.00    -0.325 N 
HETATM    6  C2  UNL     1      25.434  16.645  34.106  1.00  0.00     0.316 C 
HETATM    7  N1  UNL     1      26.566  17.130  34.791  1.00  0.00    -0.347 N 
HETATM    8  O1  UNL     1      24.412  16.353  34.759  1.00  0.00    -0.247 OA
HETATM    9  C1  UNL     1      26.588  17.305  36.232  1.00  0.00     0.151 C 
ATOM     10  H1  UNL     1      27.399  17.368  34.255  1.00  0.00     0.163 HD
ATOM     11  H2  UNL     1      26.314  16.751  32.230  1.00  0.00     0.165 HD
ENDBRANCH   1   5
BRANCH   1  12
HETATM   12  C4  UNL     1      23.167  16.843  32.020  1.00  0.00     0.246 C 
HETATM   13  O2  UNL     1      23.083  17.938  31.421  1.00  0.00    -0.271 OA
HETATM   14  N3  UNL     1      22.079  16.421  32.811  1.00  0.00    -0.354 N 
ATOM     15  H3  UNL     1      22.150  15.528  33.299  1.00  0.00     0.162 HD
BRANCH  14  16
HETATM   16  C5  UNL     1      20.858  17.202  32.965  1.00  0.00     0.084 C 
HETATM   17  C6  UNL     1      19.719  16.192  33.159  1.00  0.00     0.025 C 
HETATM   18  C7  UNL     1      18.480  16.878  33.678  1.00  0.00     0.002 C 
HETATM   19  C8  UNL     1      18.576  18.377  33.598  1.00  0.00     0.000 C 
HETATM   20  C9  UNL     1      19.768  18.947  34.289  1.00  0.00     0.002 C 
HETATM   21  C10 UNL     1      20.919  17.994  34.266  1.00  0.00     0.025 C 
ENDBRANCH  14  16
ENDBRANCH   1  12
TORSDOF 3
ENDMDL
MODEL 5
REMARK VINA RESULT: -6.033617853      1.919      3.406
REMARK  3 active torsions:
REMARK  status: ('A' for Active; 'I' for Inactive)
REMARK       I    between atoms: N1_2  and  C2_4 
REMARK       I    between atoms: C2_4  and  N2_6 
REMARK    1  A    between atoms: N2_6  and  C3_8 
REMARK    2  A    between atoms: C3_8  and  C4_9 
REMARK       I    between atoms: C4_9  and  N3_11 
REMARK    3  A    between atoms: N3_11  and  C5_13 
ROOT
HETATM    1  C3  UNL     1      22.116  16.727  32.981  1.00  0.00     0.115 C 
HETATM    2  C11 UNL     1      21.000  16.178  32.118  1.00  0.00     0.041 C 
HETATM    3  C12 UNL     1      20.053  17.078  32.882  1.00  0.00     0.006 C 
HETATM    4  C13 UNL     1      21.062  17.074  34.013  1.00  0.00     0.041 C 
ENDROOT
BRANCH   1   5
HETATM    5  N2  UNL     1      22.803  17.866  32.423  1.00  0.00    -0.325 N 
HETATM    6  C2  UNL     1      23.755  17.812  31.401  1.00  0.00     0.316 C 
HETATM    7  N1  UNL     1      24.362  18.992  30.925  1.00  0.00    -0.347 N 
HETATM    8  O1  UNL     1      24.082  16.720  30.896  1.00  0.00    -0.247 OA
HETATM    9  C1  UNL     1      25.355  18.984  29.866  1.00  0.00     0.151 C 
ATOM     10  H1  UNL     1      24.093  19.884  31.339  1.00  0.00     0.163 HD
ATOM     11  H2  UNL     1      22.576  18.784  32.805  1.00  0.00     0.165 HD
ENDBRANCH   1   5
BRANCH   1  12
HETATM   12  C4  UNL     1      23.039  15.708  33.487  1.00  0.00     0.246 C 
HETATM   13  O2  UNL     1      23.871  15.965  34.385  1.00  0.00    -0.271 OA
HETATM   14  N3  UNL     1      23.000  14.402  32.957  1.00  0.00    -0.354 N 
ATOM     15  H3  UNL     1      22.321  14.194  32.225  1.00  0.00     0.162 HD
BRANCH  14  16
HETATM   16  C5  UNL     1      23.884  13.335  33.408  1.00  0.00     0.084 C 
HETATM   17  C6  UNL     1      22.994  12.110  33.659  1.00  0.00     0.025 C 
HETATM   18  C7  UNL     1      23.828  10.859  33.783  1.00  0.00     0.002 C 
HETATM   19  C8  UNL     1      25.295  11.158  33.919  1.00  0.00     0.000 C 
HETATM   20  C9  UNL     1      25.849  12.000  32.820  1.00  0.00     0.002 C 
HETATM   21  C10 UNL     1      24.814  12.928  32.270  1.00  0.00     0.025 C 
ENDBRANCH  14  16
ENDBRANCH   1  12
TORSDOF 3
ENDMDL
