MODEL 1
REMARK VINA RESULT: -6.908097713      0.000      0.000
REMARK  4 active torsions:
REMARK  status: ('A' for Active; 'I' for Inactive)
REMARK    1  A    between atoms: C2_2  and  C4_4 
REMARK       I    between atoms: C4_4  and  N1_6 
REMARK    2  A    between atoms: N1_6  and  N2_7 
REMARK       I    between atoms: N2_7  and  C5_9 
REMARK    3  A    between atoms: C5_9  and  C6_11 
REMARK    4  A    between atoms: C11_16  and  C12_17 
ROOT
HETATM    1  N2  UNL     1      22.422  19.284  34.852  1.00  0.00    -0.199 N 
ATOM      2  H2  UNL     1      21.875  20.039  34.438  1.00  0.00     0.205 HD
HETATM    3  C5  UNL     1      21.942  17.890  34.746  1.00  0.00     0.251 C 
HETATM    4  O2  UNL     1      22.699  17.050  35.131  1.00  0.00    -0.271 OA
ENDROOT
BRANCH   3   5
HETATM    5  C6  UNL     1      20.572  17.664  34.192  1.00  0.00     0.094 C 
HETATM    6  C7  UNL     1      19.909  19.048  34.243  1.00  0.00     0.015 C 
HETATM    7  C8  UNL     1      18.352  18.743  34.119  1.00  0.00     0.001 C 
HETATM    8  C9  UNL     1      18.335  18.383  32.613  1.00  0.00     0.001 C 
HETATM    9  C10 UNL     1      18.886  17.070  32.486  1.00  0.00     0.016 C 
HETATM   10  C11 UNL     1      20.344  16.891  33.040  1.00  0.00     0.100 C 
BRANCH  10  11
HETATM   11  C12 UNL     1      20.338  15.391  33.217  1.00  0.00     0.177 C 
HETATM   12  O3  UNL     1      19.747  14.479  33.524  1.00  0.00    -0.648 OA
HETATM   13  O4  UNL     1      21.748  14.950  32.748  1.00  0.00    -0.648 OA
ENDBRANCH  10  11
ENDBRANCH   3   5
BRANCH   1  14
HETATM   14  N1  UNL     1      23.605  19.576  35.506  1.00  0.00    -0.284 NA
HETATM   15  C4  UNL     1      24.706  19.863  36.087  1.00  0.00     0.316 C 
HETATM   16  O1  UNL     1      25.789  20.352  36.198  1.00  0.00    -0.255 OA
BRANCH  15  17
HETATM   17  C2  UNL     1      24.612  19.011  37.600  1.00  0.00     0.087 C 
HETATM   18  C1  UNL     1      24.842  20.078  38.605  1.00  0.00     0.020 C 
HETATM   19  C3  UNL     1      25.836  18.081  37.502  1.00  0.00     0.020 C 
ENDBRANCH  15  17
ENDBRANCH   1  14
TORSDOF 4
ENDMDL
MODEL 2
REMARK VINA RESULT: -6.750997974      3.826      6.330
REMARK  4 active torsions:
REMARK  status: ('A' for Active; 'I' for Inactive)
REMARK    1  A    between atoms: C2_2  and  C4_4 
REMARK       I    between atoms: C4_4  and  N1_6 
REMARK    2  A    between atoms: N1_6  and  N2_7 
REMARK       I    between atoms: N2_7  and  C5_9 
REMARK    3  A    between atoms: C5_9  and  C6_11 
REMARK    4  A    between atoms: C11_16  and  C12_17 
ROOT
HETATM    1  N2  UNL     1      21.060  15.357  32.325  1.00  0.00    -0.199 N 
ATOM      2  H2  UNL     1      20.891  14.846  31.458  1.00  0.00     0.205 HD
HETATM    3  C5  UNL     1      22.407  15.340  32.934  1.00  0.00     0.251 C 
HETATM    4  O2  UNL     1      22.564  16.068  33.868  1.00  0.00    -0.271 OA
ENDROOT
BRANCH   3   5
HETATM    5  C6  UNL     1      23.425  14.416  32.348  1.00  0.00     0.094 C 
HETATM    6  C7  UNL     1      24.328  15.331  31.508  1.00  0.00     0.015 C 
HETATM    7  C8  UNL     1      25.092  14.336  30.528  1.00  0.00     0.001 C 
HETATM    8  C9  UNL     1      26.059  13.724  31.571  1.00  0.00     0.001 C 
HETATM    9  C10 UNL     1      25.300  12.806  32.363  1.00  0.00     0.016 C 
HETATM   10  C11 UNL     1      24.060  13.418  33.108  1.00  0.00     0.100 C 
BRANCH  10  11
HETATM   11  C12 UNL     1      23.284  12.143  33.341  1.00  0.00     0.177 C 
HETATM   12  O3  UNL     1      22.455  11.633  33.914  1.00  0.00    -0.648 OA
HETATM   13  O4  UNL     1      23.899  11.138  32.334  1.00  0.00    -0.648 OA
ENDBRANCH  10  11
ENDBRANCH   3   5
BRANCH   1  14
HETATM   14  N1  UNL     1      20.025  16.059  32.918  1.00  0.00    -0.284 NA
HETATM   15  C4  UNL     1      19.056  16.680  33.470  1.00  0.00     0.316 C 
HETATM   16  O1  UNL     1      17.999  16.798  34.011  1.00  0.00    -0.255 OA
BRANCH  15  17
HETATM   17  C2  UNL     1      19.499  18.356  33.324  1.00  0.00     0.087 C 
HETATM   18  C1  UNL     1      20.138  18.653  34.630  1.00  0.00     0.020 C 
HETATM   19  C3  UNL     1      18.117  19.028  33.226  1.00  0.00     0.020 C 
ENDBRANCH  15  17
ENDBRANCH   1  14
TORSDOF 4
ENDMDL
MODEL 3
REMARK VINA RESULT: -6.718215884      0.770      1.123
REMARK  4 active torsions:
REMARK  status: ('A' for Active; 'I' for Inactive)
REMARK    1  A    between atoms: C2_2  and  C4_4 
REMARK       I    between atoms: C4_4  and  N1_6 
REMARK    2  A    between atoms: N1_6  and  N2_7 
REMARK       I    between atoms: N2_7  and  C5_9 
REMARK    3  A    between atoms: C5_9  and  C6_11 
REMARK    4  A    between atoms: C11_16  and  C12_17 
ROOT
HETATM    1  N2  UNL     1      22.468  19.295  34.865  1.00  0.00    -0.199 N 
ATOM      2  H2  UNL     1      21.908  20.053  34.475  1.00  0.00     0.205 HD
HETATM    3  C5  UNL     1      21.995  17.899  34.745  1.00  0.00     0.251 C 
HETATM    4  O2  UNL     1      22.764  17.058  35.101  1.00  0.00    -0.271 OA
ENDROOT
BRANCH   3   5
HETATM    5  C6  UNL     1      20.616  17.674  34.215  1.00  0.00     0.094 C 
HETATM    6  C7  UNL     1      19.951  19.056  34.288  1.00  0.00     0.015 C 
HETATM    7  C8  UNL     1      18.392  18.748  34.190  1.00  0.00     0.001 C 
HETATM    8  C9  UNL     1      18.348  18.399  32.683  1.00  0.00     0.001 C 
HETATM    9  C10 UNL     1      18.900  17.088  32.536  1.00  0.00     0.016 C 
HETATM   10  C11 UNL     1      20.369  16.909  33.062  1.00  0.00     0.100 C 
BRANCH  10  11
HETATM   11  C12 UNL     1      20.369  15.407  33.228  1.00  0.00     0.177 C 
HETATM   12  O3  UNL     1      19.784  14.490  33.530  1.00  0.00    -0.648 OA
HETATM   13  O4  UNL     1      21.780  14.976  32.751  1.00  0.00    -0.648 OA
ENDBRANCH  10  11
ENDBRANCH   3   5
BRANCH   1  14
HETATM   14  N1  UNL     1      23.662  19.583  35.501  1.00  0.00    -0.284 NA
HETATM   15  C4  UNL     1      24.752  19.876  36.099  1.00  0.00     0.316 C 
HETATM   16  O1  UNL     1      25.492  20.535  36.765  1.00  0.00    -0.255 OA
BRANCH  15  17
HETATM   17  C2  UNL     1      25.824  18.576  35.669  1.00  0.00     0.087 C 
HETATM   18  C1  UNL     1      25.886  17.763  36.908  1.00  0.00     0.020 C 
HETATM   19  C3  UNL     1      27.146  19.333  35.446  1.00  0.00     0.020 C 
ENDBRANCH  15  17
ENDBRANCH   1  14
TORSDOF 4
ENDMDL
MODEL 4
REMARK VINA RESULT: -6.492382871      3.835      6.071
REMARK  4 active torsions:
REMARK  status: ('A' for Active; 'I' for Inactive)
REMARK    1  A    between atoms: C2_2  and  C4_4 
REMARK       I    between atoms: C4_4  and  N1_6 
REMARK    2  A    between atoms: N1_6  and  N2_7 
REMARK       I    between atoms: N2_7  and  C5_9 
REMARK    3  A    between atoms: C5_9  and  C6_11 
REMARK    4  A    between atoms: C11_16  and  C12_17 
ROOT
HETATM    1  N2  UNL     1      22.531  18.098  32.898  1.00  0.00    -0.199 N 
ATOM      2  H2  UNL     1      23.322  18.707  33.110  1.00  0.00     0.205 HD
HETATM    3  C5  UNL     1      22.698  16.991  31.933  1.00  0.00     0.251 C 
HETATM    4  O2  UNL     1      21.773  16.240  31.839  1.00  0.00    -0.271 OA
ENDROOT
BRANCH   3   5
HETATM    5  C6  UNL     1      23.977  16.924  31.163  1.00  0.00     0.094 C 
HETATM    6  C7  UNL     1      24.429  18.387  31.050  1.00  0.00     0.015 C 
HETATM    7  C8  UNL     1      25.490  18.379  29.863  1.00  0.00     0.001 C 
HETATM    8  C9  UNL     1      26.649  17.696  30.630  1.00  0.00     0.001 C 
HETATM    9  C10 UNL     1      26.329  16.305  30.726  1.00  0.00     0.016 C 
HETATM   10  C11 UNL     1      24.972  15.970  31.441  1.00  0.00     0.100 C 
BRANCH  10  11
HETATM   11  C12 UNL     1      24.759  14.582  30.883  1.00  0.00     0.177 C 
HETATM   12  O3  UNL     1      24.931  13.474  31.015  1.00  0.00    -0.648 OA
HETATM   13  O4  UNL     1      23.929  14.817  29.595  1.00  0.00    -0.648 OA
ENDBRANCH  10  11
ENDBRANCH   3   5
BRANCH   1  14
HETATM   14  N1  UNL     1      21.313  18.318  33.518  1.00  0.00    -0.284 NA
HETATM   15  C4  UNL     1      20.204  18.532  34.114  1.00  0.00     0.316 C 
HETATM   16  O1  UNL     1      19.491  18.871  35.008  1.00  0.00    -0.255 OA
BRANCH  15  17
HETATM   17  C2  UNL     1      19.010  17.956  32.989  1.00  0.00     0.087 C 
HETATM   18  C1  UNL     1      17.960  19.003  33.043  1.00  0.00     0.020 C 
HETATM   19  C3  UNL     1      18.533  16.668  33.684  1.00  0.00     0.020 C 
ENDBRANCH  15  17
ENDBRANCH   1  14
TORSDOF 4
ENDMDL
MODEL 5
REMARK VINA RESULT: -6.473802271      2.297      6.083
REMARK  4 active torsions:
REMARK  status: ('A' for Active; 'I' for Inactive)
REMARK    1  A    between atoms: C2_2  and  C4_4 
REMARK       I    between atoms: C4_4  and  N1_6 
REMARK    2  A    between atoms: N1_6  and  N2_7 
REMARK       I    between atoms: N2_7  and  C5_9 
REMARK    3  A    between atoms: C5_9  and  C6_11 
REMARK    4  A    between atoms: C11_16  and  C12_17 
ROOT
HETATM    1  N2  UNL     1      21.291  19.117  34.518  1.00  0.00    -0.199 N 
ATOM      2  H2  UNL     1      21.707  20.025  34.724  1.00  0.00     0.205 HD
HETATM    3  C5  UNL     1      22.119  17.896  34.602  1.00  0.00     0.251 C 
HETATM    4  O2  UNL     1      21.533  16.861  34.481  1.00  0.00    -0.271 OA
ENDROOT
BRANCH   3   5
HETATM    5  C6  UNL     1      23.590  18.064  34.807  1.00  0.00     0.094 C 
HETATM    6  C7  UNL     1      23.712  19.345  35.645  1.00  0.00     0.015 C 
HETATM    7  C8  UNL     1      25.231  19.788  35.466  1.00  0.00     0.001 C 
HETATM    8  C9  UNL     1      25.867  18.700  36.365  1.00  0.00     0.001 C 
HETATM    9  C10 UNL     1      25.846  17.476  35.626  1.00  0.00     0.016 C 
HETATM   10  C11 UNL     1      24.428  16.991  35.159  1.00  0.00     0.100 C 
BRANCH  10  11
HETATM   11  C12 UNL     1      24.859  16.069  34.043  1.00  0.00     0.177 C 
HETATM   12  O3  UNL     1      25.049  15.005  33.716  1.00  0.00    -0.648 OA
HETATM   13  O4  UNL     1      25.122  17.022  32.849  1.00  0.00    -0.648 OA
ENDBRANCH  10  11
ENDBRANCH   3   5
BRANCH   1  14
HETATM   14  N1  UNL     1      19.955  19.042  34.163  1.00  0.00    -0.284 NA
HETATM   15  C4  UNL     1      18.717  18.995  33.854  1.00  0.00     0.316 C 
HETATM   16  O1  UNL     1      17.565  19.301  33.906  1.00  0.00    -0.255 OA
BRANCH  15  17
HETATM   17  C2  UNL     1      18.623  17.691  32.708  1.00  0.00     0.087 C 
HETATM   18  C1  UNL     1      17.415  18.024  31.912  1.00  0.00     0.020 C 
HETATM   19  C3  UNL     1      18.352  16.491  33.634  1.00  0.00     0.020 C 
ENDBRANCH  15  17
ENDBRANCH   1  14
TORSDOF 4
ENDMDL
