MODEL 1
REMARK VINA RESULT: -6.520152160      0.000      0.000
REMARK  3 active torsions:
REMARK  status: ('A' for Active; 'I' for Inactive)
REMARK       I    between atoms: C3_3  and  N1_5 
REMARK    1  A    between atoms: N1_5  and  C4_7 
REMARK    2  A    between atoms: C4_7  and  C5_8 
REMARK       I    between atoms: C5_8  and  N2_10 
REMARK       I    between atoms: N2_10  and  C6_12 
REMARK       I    between atoms: C6_12  and  N3_14 
REMARK    3  A    between atoms: N3_14  and  C7_16 
ROOT
HETATM    1  C1  UNL     1      18.738  22.262  34.014  1.00  0.00     0.022 C 
HETATM    2  C2  UNL     1      18.376  21.117  33.851  1.00  0.00    -0.017 C 
HETATM    3  C3  UNL     1      17.956  19.741  33.675  1.00  0.00     0.296 C 
HETATM    4  O1  UNL     1      16.785  19.461  33.965  1.00  0.00    -0.258 OA
HETATM    5  N1  UNL     1      18.885  18.785  33.188  1.00  0.00    -0.342 N 
ATOM      6  H1  UNL     1      19.833  19.092  32.966  1.00  0.00     0.163 HD
ENDROOT
BRANCH   5   7
HETATM    7  C4  UNL     1      18.546  17.402  32.993  1.00  0.00     0.226 C 
BRANCH   7   8
HETATM    8  C5  UNL     1      19.772  16.546  32.872  1.00  0.00     0.243 C 
HETATM    9  O2  UNL     1      19.738  15.580  32.091  1.00  0.00    -0.271 OA
HETATM   10  N2  UNL     1      20.911  16.853  33.631  1.00  0.00    -0.278 N 
HETATM   11  C6  UNL     1      22.112  16.158  33.626  1.00  0.00     0.323 C 
ATOM     12  H2  UNL     1      20.851  17.665  34.245  1.00  0.00     0.173 HD
HETATM   13  O3  UNL     1      23.027  16.632  34.415  1.00  0.00    -0.247 OA
HETATM   14  N3  UNL     1      22.403  15.024  32.860  1.00  0.00    -0.338 N 
ATOM     15  H3  UNL     1      21.696  14.638  32.233  1.00  0.00     0.164 HD
BRANCH  14  16
HETATM   16  C7  UNL     1      23.726  14.384  32.953  1.00  0.00     0.086 C 
HETATM   17  C8  UNL     1      23.514  13.026  33.527  1.00  0.00     0.025 C 
HETATM   18  C9  UNL     1      24.742  12.154  33.478  1.00  0.00     0.002 C 
HETATM   19  C10 UNL     1      25.157  11.799  32.085  1.00  0.00     0.000 C 
HETATM   20  C11 UNL     1      26.199  12.748  31.532  1.00  0.00     0.000 C 
HETATM   21  C12 UNL     1      25.789  14.188  31.653  1.00  0.00     0.002 C 
HETATM   22  C13 UNL     1      24.305  14.391  31.575  1.00  0.00     0.025 C 
ENDBRANCH  14  16
ENDBRANCH   7   8
ENDBRANCH   5   7
TORSDOF 3
ENDMDL
MODEL 2
REMARK VINA RESULT: -6.449552539      2.873      8.505
REMARK  3 active torsions:
REMARK  status: ('A' for Active; 'I' for Inactive)
REMARK       I    between atoms: C3_3  and  N1_5 
REMARK    1  A    between atoms: N1_5  and  C4_7 
REMARK    2  A    between atoms: C4_7  and  C5_8 
REMARK       I    between atoms: C5_8  and  N2_10 
REMARK       I    between atoms: N2_10  and  C6_12 
REMARK       I    between atoms: C6_12  and  N3_14 
REMARK    3  A    between atoms: N3_14  and  C7_16 
ROOT
HETATM    1  C1  UNL     1      27.824  10.989  29.207  1.00  0.00     0.022 C 
HETATM    2  C2  UNL     1      27.144  10.832  30.198  1.00  0.00    -0.017 C 
HETATM    3  C3  UNL     1      26.311  10.645  31.369  1.00  0.00     0.296 C 
HETATM    4  O1  UNL     1      26.338   9.533  31.915  1.00  0.00    -0.258 OA
HETATM    5  N1  UNL     1      25.512  11.721  31.837  1.00  0.00    -0.342 N 
ATOM      6  H1  UNL     1      25.547  12.609  31.337  1.00  0.00     0.163 HD
ENDROOT
BRANCH   5   7
HETATM    7  C4  UNL     1      24.657  11.610  32.986  1.00  0.00     0.226 C 
BRANCH   7   8
HETATM    8  C5  UNL     1      23.673  12.740  33.051  1.00  0.00     0.243 C 
HETATM    9  O2  UNL     1      22.645  12.584  33.732  1.00  0.00    -0.271 OA
HETATM   10  N2  UNL     1      23.932  13.928  32.351  1.00  0.00    -0.278 N 
HETATM   11  C6  UNL     1      23.121  15.053  32.315  1.00  0.00     0.323 C 
ATOM     12  H2  UNL     1      24.801  13.969  31.818  1.00  0.00     0.173 HD
HETATM   13  O3  UNL     1      23.572  16.035  31.596  1.00  0.00    -0.247 OA
HETATM   14  N3  UNL     1      21.895  15.205  32.972  1.00  0.00    -0.338 N 
ATOM     15  H3  UNL     1      21.525  14.443  33.542  1.00  0.00     0.164 HD
BRANCH  14  16
HETATM   16  C7  UNL     1      21.135  16.460  32.846  1.00  0.00     0.086 C 
HETATM   17  C8  UNL     1      19.763  16.095  32.395  1.00  0.00     0.025 C 
HETATM   18  C9  UNL     1      18.791  17.245  32.434  1.00  0.00     0.002 C 
HETATM   19  C10 UNL     1      18.503  17.726  33.822  1.00  0.00     0.000 C 
HETATM   20  C11 UNL     1      19.393  18.879  34.232  1.00  0.00     0.000 C 
HETATM   21  C12 UNL     1      20.851  18.584  34.025  1.00  0.00     0.002 C 
HETATM   22  C13 UNL     1      21.190  17.131  34.180  1.00  0.00     0.025 C 
ENDBRANCH  14  16
ENDBRANCH   7   8
ENDBRANCH   5   7
TORSDOF 3
ENDMDL
MODEL 3
REMARK VINA RESULT: -6.445692597      3.061      8.412
REMARK  3 active torsions:
REMARK  status: ('A' for Active; 'I' for Inactive)
REMARK       I    between atoms: C3_3  and  N1_5 
REMARK    1  A    between atoms: N1_5  and  C4_7 
REMARK    2  A    between atoms: C4_7  and  C5_8 
REMARK       I    between atoms: C5_8  and  N2_10 
REMARK       I    between atoms: N2_10  and  C6_12 
REMARK       I    between atoms: C6_12  and  N3_14 
REMARK    3  A    between atoms: N3_14  and  C7_16 
ROOT
HETATM    1  C1  UNL     1      26.484   9.773  37.561  1.00  0.00     0.022 C 
HETATM    2  C2  UNL     1      26.261  10.058  36.405  1.00  0.00    -0.017 C 
HETATM    3  C3  UNL     1      25.991  10.422  35.028  1.00  0.00     0.296 C 
HETATM    4  O1  UNL     1      26.944  10.413  34.239  1.00  0.00    -0.258 OA
HETATM    5  N1  UNL     1      24.669  10.769  34.644  1.00  0.00    -0.342 N 
ATOM      6  H1  UNL     1      23.933  10.749  35.351  1.00  0.00     0.163 HD
ENDROOT
BRANCH   5   7
HETATM    7  C4  UNL     1      24.324  11.146  33.301  1.00  0.00     0.226 C 
BRANCH   7   8
HETATM    8  C5  UNL     1      23.421  12.344  33.282  1.00  0.00     0.243 C 
HETATM    9  O2  UNL     1      22.310  12.250  33.831  1.00  0.00    -0.271 OA
HETATM   10  N2  UNL     1      23.845  13.524  32.653  1.00  0.00    -0.278 N 
HETATM   11  C6  UNL     1      23.125  14.705  32.553  1.00  0.00     0.323 C 
ATOM     12  H2  UNL     1      24.773  13.512  32.228  1.00  0.00     0.173 HD
HETATM   13  O3  UNL     1      23.727  15.667  31.922  1.00  0.00    -0.247 OA
HETATM   14  N3  UNL     1      21.842  14.933  33.064  1.00  0.00    -0.338 N 
ATOM     15  H3  UNL     1      21.354  14.189  33.563  1.00  0.00     0.164 HD
BRANCH  14  16
HETATM   16  C7  UNL     1      21.193  16.242  32.885  1.00  0.00     0.086 C 
HETATM   17  C8  UNL     1      19.794  15.979  32.448  1.00  0.00     0.025 C 
HETATM   18  C9  UNL     1      18.924  17.210  32.439  1.00  0.00     0.002 C 
HETATM   19  C10 UNL     1      18.682  17.770  33.805  1.00  0.00     0.000 C 
HETATM   20  C11 UNL     1      19.669  18.858  34.169  1.00  0.00     0.000 C 
HETATM   21  C12 UNL     1      21.096  18.430  33.976  1.00  0.00     0.002 C 
HETATM   22  C13 UNL     1      21.309  16.961  34.191  1.00  0.00     0.025 C 
ENDBRANCH  14  16
ENDBRANCH   7   8
ENDBRANCH   5   7
TORSDOF 3
ENDMDL
MODEL 4
REMARK VINA RESULT: -6.349929269      1.056      1.094
REMARK  3 active torsions:
REMARK  status: ('A' for Active; 'I' for Inactive)
REMARK       I    between atoms: C3_3  and  N1_5 
REMARK    1  A    between atoms: N1_5  and  C4_7 
REMARK    2  A    between atoms: C4_7  and  C5_8 
REMARK       I    between atoms: C5_8  and  N2_10 
REMARK       I    between atoms: N2_10  and  C6_12 
REMARK       I    between atoms: C6_12  and  N3_14 
REMARK    3  A    between atoms: N3_14  and  C7_16 
ROOT
HETATM    1  C1  UNL     1      18.358  21.596  34.018  1.00  0.00     0.022 C 
HETATM    2  C2  UNL     1      18.200  20.439  33.693  1.00  0.00    -0.017 C 
HETATM    3  C3  UNL     1      17.999  19.052  33.324  1.00  0.00     0.296 C 
HETATM    4  O1  UNL     1      17.191  18.815  32.417  1.00  0.00    -0.258 OA
HETATM    5  N1  UNL     1      18.722  18.038  34.005  1.00  0.00    -0.342 N 
ATOM      6  H1  UNL     1      19.375  18.311  34.740  1.00  0.00     0.163 HD
ENDROOT
BRANCH   5   7
HETATM    7  C4  UNL     1      18.572  16.641  33.701  1.00  0.00     0.226 C 
BRANCH   7   8
HETATM    8  C5  UNL     1      19.893  16.002  33.384  1.00  0.00     0.243 C 
HETATM    9  O2  UNL     1      19.940  14.763  33.305  1.00  0.00    -0.271 OA
HETATM   10  N2  UNL     1      21.024  16.807  33.189  1.00  0.00    -0.278 N 
HETATM   11  C6  UNL     1      22.305  16.363  32.893  1.00  0.00     0.323 C 
ATOM     12  H2  UNL     1      20.894  17.815  33.273  1.00  0.00     0.173 HD
HETATM   13  O3  UNL     1      23.195  17.299  32.755  1.00  0.00    -0.247 OA
HETATM   14  N3  UNL     1      22.698  15.030  32.734  1.00  0.00    -0.338 N 
ATOM     15  H3  UNL     1      22.012  14.282  32.838  1.00  0.00     0.164 HD
BRANCH  14  16
HETATM   16  C7  UNL     1      24.098  14.700  32.419  1.00  0.00     0.086 C 
HETATM   17  C8  UNL     1      24.425  13.443  33.146  1.00  0.00     0.025 C 
HETATM   18  C9  UNL     1      25.751  12.846  32.751  1.00  0.00     0.002 C 
HETATM   19  C10 UNL     1      25.779  12.358  31.337  1.00  0.00     0.000 C 
HETATM   20  C11 UNL     1      26.320  13.395  30.376  1.00  0.00     0.000 C 
HETATM   21  C12 UNL     1      25.623  14.720  30.506  1.00  0.00     0.002 C 
HETATM   22  C13 UNL     1      24.190  14.596  30.930  1.00  0.00     0.025 C 
ENDBRANCH  14  16
ENDBRANCH   7   8
ENDBRANCH   5   7
TORSDOF 3
ENDMDL
MODEL 5
REMARK VINA RESULT: -6.271797713      4.429      7.359
REMARK  3 active torsions:
REMARK  status: ('A' for Active; 'I' for Inactive)
REMARK       I    between atoms: C3_3  and  N1_5 
REMARK    1  A    between atoms: N1_5  and  C4_7 
REMARK    2  A    between atoms: C4_7  and  C5_8 
REMARK       I    between atoms: C5_8  and  N2_10 
REMARK       I    between atoms: N2_10  and  C6_12 
REMARK       I    between atoms: C6_12  and  N3_14 
REMARK    3  A    between atoms: N3_14  and  C7_16 
ROOT
HETATM    1  C1  UNL     1      28.923  22.257  32.188  1.00  0.00     0.022 C 
HETATM    2  C2  UNL     1      28.350  21.243  31.849  1.00  0.00    -0.017 C 
HETATM    3  C3  UNL     1      27.681  20.030  31.426  1.00  0.00     0.296 C 
HETATM    4  O1  UNL     1      27.830  19.022  32.129  1.00  0.00    -0.258 OA
HETATM    5  N1  UNL     1      26.894  20.042  30.244  1.00  0.00    -0.342 N 
ATOM      6  H1  UNL     1      26.814  20.914  29.719  1.00  0.00     0.163 HD
ENDROOT
BRANCH   5   7
HETATM    7  C4  UNL     1      26.206  18.879  29.758  1.00  0.00     0.226 C 
BRANCH   7   8
HETATM    8  C5  UNL     1      24.950  18.617  30.535  1.00  0.00     0.243 C 
HETATM    9  O2  UNL     1      23.937  19.280  30.253  1.00  0.00    -0.271 OA
HETATM   10  N2  UNL     1      24.948  17.645  31.546  1.00  0.00    -0.278 N 
HETATM   11  C6  UNL     1      23.870  17.294  32.346  1.00  0.00     0.323 C 
ATOM     12  H2  UNL     1      25.824  17.148  31.710  1.00  0.00     0.173 HD
HETATM   13  O3  UNL     1      24.109  16.363  33.217  1.00  0.00    -0.247 OA
HETATM   14  N3  UNL     1      22.586  17.848  32.286  1.00  0.00    -0.338 N 
ATOM     15  H3  UNL     1      22.380  18.581  31.606  1.00  0.00     0.164 HD
BRANCH  14  16
HETATM   16  C7  UNL     1      21.531  17.379  33.199  1.00  0.00     0.086 C 
HETATM   17  C8  UNL     1      20.941  18.586  33.841  1.00  0.00     0.025 C 
HETATM   18  C9  UNL     1      19.694  18.296  34.635  1.00  0.00     0.002 C 
HETATM   19  C10 UNL     1      18.545  17.850  33.786  1.00  0.00     0.000 C 
HETATM   20  C11 UNL     1      18.449  16.343  33.687  1.00  0.00     0.000 C 
HETATM   21  C12 UNL     1      19.745  15.709  33.268  1.00  0.00     0.002 C 
HETATM   22  C13 UNL     1      20.571  16.585  32.373  1.00  0.00     0.025 C 
ENDBRANCH  14  16
ENDBRANCH   7   8
ENDBRANCH   5   7
TORSDOF 3
ENDMDL
