MODEL 1
REMARK VINA RESULT: -5.968963682      0.000      0.000
REMARK  4 active torsions:
REMARK  status: ('A' for Active; 'I' for Inactive)
REMARK    1  A    between atoms: N1_2  and  C2_4 
REMARK    2  A    between atoms: C2_4  and  C5_7 
REMARK    3  A    between atoms: N2_10  and  C8_11 
REMARK    4  A    between atoms: C8_11  and  C9_12 
ROOT
HETATM    1  C5  UNL     1      24.734  14.788  31.789  1.00  0.00     0.214 C 
HETATM    2  C6  UNL     1      23.648  14.528  32.702  1.00  0.00     0.051 C 
HETATM    3  C7  UNL     1      22.962  15.634  33.477  1.00  0.00     0.106 C 
HETATM    4  N2  UNL     1      22.441  16.717  32.611  1.00  0.00    -0.252 NA
HETATM    5  C14 UNL     1      22.995  16.615  31.374  1.00  0.00    -0.070 C 
HETATM    6  C15 UNL     1      23.690  16.328  30.192  1.00  0.00     0.330 C 
HETATM    7  N4  UNL     1      24.500  15.091  30.389  1.00  0.00    -0.058 N 
ATOM      8  H41 UNL     1      24.077  14.297  29.909  1.00  0.00     0.278 HD
ATOM      9  H42 UNL     1      25.380  15.146  29.875  1.00  0.00     0.278 HD
ENDROOT
BRANCH   4  10
HETATM   10  C8  UNL     1      21.045  16.861  32.604  1.00  0.00     0.110 C 
BRANCH  10  11
HETATM   11  C9  UNL     1      20.318  16.918  33.876  1.00  0.00     0.025 C 
HETATM   12  C10 UNL     1      18.830  16.995  33.583  1.00  0.00     0.009 C 
HETATM   13  C11 UNL     1      18.399  18.289  32.990  1.00  0.00     0.028 C 
HETATM   14  C12 UNL     1      18.762  19.395  33.989  1.00  0.00     0.232 C 
HETATM   15  N3  UNL     1      20.205  19.364  34.101  1.00  0.00    -0.075 N 
HETATM   16  C13 UNL     1      20.685  18.143  34.679  1.00  0.00     0.238 C 
ATOM     17  H32 UNL     1      20.647  19.541  33.198  1.00  0.00     0.277 HD
ATOM     18  H31 UNL     1      20.551  20.174  34.615  1.00  0.00     0.277 HD
ENDBRANCH  10  11
ENDBRANCH   4  10
BRANCH   1  19
HETATM   19  C2  UNL     1      25.603  13.514  31.692  1.00  0.00     0.046 C 
HETATM   20  C3  UNL     1      26.828  13.742  32.591  1.00  0.00     0.039 C 
HETATM   21  C4  UNL     1      26.135  13.312  30.296  1.00  0.00     0.039 C 
BRANCH  19  22
HETATM   22  N1  UNL     1      24.969  12.337  32.122  1.00  0.00    -0.415 N 
HETATM   23  C1  UNL     1      25.720  11.129  32.116  1.00  0.00     0.140 C 
ATOM     24  H1  UNL     1      23.997  12.348  32.429  1.00  0.00     0.153 HD
ENDBRANCH  19  22
ENDBRANCH   1  19
TORSDOF 4
ENDMDL
MODEL 2
REMARK VINA RESULT: -5.962809169      3.013      3.818
REMARK  4 active torsions:
REMARK  status: ('A' for Active; 'I' for Inactive)
REMARK    1  A    between atoms: N1_2  and  C2_4 
REMARK    2  A    between atoms: C2_4  and  C5_7 
REMARK    3  A    between atoms: N2_10  and  C8_11 
REMARK    4  A    between atoms: C8_11  and  C9_12 
ROOT
HETATM    1  C5  UNL     1      26.467  17.979  30.581  1.00  0.00     0.214 C 
HETATM    2  C6  UNL     1      25.950  16.784  31.203  1.00  0.00     0.051 C 
HETATM    3  C7  UNL     1      25.088  16.828  32.447  1.00  0.00     0.106 C 
HETATM    4  N2  UNL     1      23.894  17.692  32.298  1.00  0.00    -0.252 NA
HETATM    5  C14 UNL     1      24.041  18.487  31.206  1.00  0.00    -0.070 C 
HETATM    6  C15 UNL     1      24.409  19.204  30.060  1.00  0.00     0.330 C 
HETATM    7  N4  UNL     1      25.720  18.696  29.564  1.00  0.00    -0.058 N 
ATOM      8  H41 UNL     1      25.598  18.123  28.729  1.00  0.00     0.278 HD
ATOM      9  H42 UNL     1      26.278  19.452  29.167  1.00  0.00     0.278 HD
ENDROOT
BRANCH   4  10
HETATM   10  C8  UNL     1      22.660  17.025  32.361  1.00  0.00     0.110 C 
BRANCH  10  11
HETATM   11  C9  UNL     1      22.103  16.658  33.665  1.00  0.00     0.025 C 
HETATM   12  C10 UNL     1      20.615  16.401  33.504  1.00  0.00     0.009 C 
HETATM   13  C11 UNL     1      19.818  17.626  33.228  1.00  0.00     0.028 C 
HETATM   14  C12 UNL     1      20.027  18.584  34.408  1.00  0.00     0.232 C 
HETATM   15  N3  UNL     1      21.438  18.906  34.405  1.00  0.00    -0.075 N 
HETATM   16  C13 UNL     1      22.263  17.766  34.678  1.00  0.00     0.238 C 
ATOM     17  H32 UNL     1      21.710  19.355  33.530  1.00  0.00     0.277 HD
ATOM     18  H31 UNL     1      21.642  19.669  35.051  1.00  0.00     0.277 HD
ENDBRANCH  10  11
ENDBRANCH   4  10
BRANCH   1  19
HETATM   19  C2  UNL     1      27.759  17.610  29.818  1.00  0.00     0.046 C 
HETATM   20  C3  UNL     1      27.819  16.076  29.761  1.00  0.00     0.039 C 
HETATM   21  C4  UNL     1      28.989  18.053  30.567  1.00  0.00     0.039 C 
BRANCH  19  22
HETATM   22  N1  UNL     1      27.820  18.091  28.500  1.00  0.00    -0.415 N 
HETATM   23  C1  UNL     1      28.558  17.339  27.544  1.00  0.00     0.140 C 
ATOM     24  H1  UNL     1      27.349  18.956  28.236  1.00  0.00     0.153 HD
ENDBRANCH  19  22
ENDBRANCH   1  19
TORSDOF 4
ENDMDL
MODEL 3
REMARK VINA RESULT: -5.946169358      0.687      1.086
REMARK  4 active torsions:
REMARK  status: ('A' for Active; 'I' for Inactive)
REMARK    1  A    between atoms: N1_2  and  C2_4 
REMARK    2  A    between atoms: C2_4  and  C5_7 
REMARK    3  A    between atoms: N2_10  and  C8_11 
REMARK    4  A    between atoms: C8_11  and  C9_12 
ROOT
HETATM    1  C5  UNL     1      24.717  14.834  31.884  1.00  0.00     0.214 C 
HETATM    2  C6  UNL     1      23.621  14.587  32.789  1.00  0.00     0.051 C 
HETATM    3  C7  UNL     1      22.923  15.703  33.537  1.00  0.00     0.106 C 
HETATM    4  N2  UNL     1      22.409  16.770  32.647  1.00  0.00    -0.252 NA
HETATM    5  C14 UNL     1      22.979  16.648  31.418  1.00  0.00    -0.070 C 
HETATM    6  C15 UNL     1      23.688  16.342  30.249  1.00  0.00     0.330 C 
HETATM    7  N4  UNL     1      24.499  15.112  30.477  1.00  0.00    -0.058 N 
ATOM      8  H41 UNL     1      24.083  14.309  30.006  1.00  0.00     0.278 HD
ATOM      9  H42 UNL     1      25.384  15.160  29.973  1.00  0.00     0.278 HD
ENDROOT
BRANCH   4  10
HETATM   10  C8  UNL     1      21.013  16.909  32.621  1.00  0.00     0.110 C 
BRANCH  10  11
HETATM   11  C9  UNL     1      20.270  16.963  33.882  1.00  0.00     0.025 C 
HETATM   12  C10 UNL     1      18.786  17.046  33.570  1.00  0.00     0.009 C 
HETATM   13  C11 UNL     1      18.367  18.344  32.977  1.00  0.00     0.028 C 
HETATM   14  C12 UNL     1      18.720  19.444  33.987  1.00  0.00     0.232 C 
HETATM   15  N3  UNL     1      20.161  19.408  34.118  1.00  0.00    -0.075 N 
HETATM   16  C13 UNL     1      20.629  18.182  34.697  1.00  0.00     0.238 C 
ATOM     17  H32 UNL     1      20.615  19.588  33.223  1.00  0.00     0.277 HD
ATOM     18  H31 UNL     1      20.502  20.214  34.641  1.00  0.00     0.277 HD
ENDBRANCH  10  11
ENDBRANCH   4  10
BRANCH   1  19
HETATM   19  C2  UNL     1      25.591  13.561  31.819  1.00  0.00     0.046 C 
HETATM   20  C3  UNL     1      24.768  12.425  32.447  1.00  0.00     0.039 C 
HETATM   21  C4  UNL     1      26.832  13.699  32.662  1.00  0.00     0.039 C 
BRANCH  19  22
HETATM   22  N1  UNL     1      25.953  13.163  30.522  1.00  0.00    -0.415 N 
HETATM   23  C1  UNL     1      27.006  12.218  30.379  1.00  0.00     0.140 C 
ATOM     24  H1  UNL     1      25.473  13.541  29.705  1.00  0.00     0.153 HD
ENDBRANCH  19  22
ENDBRANCH   1  19
TORSDOF 4
ENDMDL
MODEL 4
REMARK VINA RESULT: -5.924874239      0.739      1.383
REMARK  4 active torsions:
REMARK  status: ('A' for Active; 'I' for Inactive)
REMARK    1  A    between atoms: N1_2  and  C2_4 
REMARK    2  A    between atoms: C2_4  and  C5_7 
REMARK    3  A    between atoms: N2_10  and  C8_11 
REMARK    4  A    between atoms: C8_11  and  C9_12 
ROOT
HETATM    1  C5  UNL     1      24.746  14.861  31.985  1.00  0.00     0.214 C 
HETATM    2  C6  UNL     1      23.658  14.665  32.912  1.00  0.00     0.051 C 
HETATM    3  C7  UNL     1      22.963  15.822  33.598  1.00  0.00     0.106 C 
HETATM    4  N2  UNL     1      22.440  16.834  32.651  1.00  0.00    -0.252 NA
HETATM    5  C14 UNL     1      22.999  16.641  31.427  1.00  0.00    -0.070 C 
HETATM    6  C15 UNL     1      23.700  16.268  30.272  1.00  0.00     0.330 C 
HETATM    7  N4  UNL     1      24.516  15.055  30.565  1.00  0.00    -0.058 N 
ATOM      8  H41 UNL     1      24.098  14.224  30.147  1.00  0.00     0.278 HD
ATOM      9  H42 UNL     1      25.397  15.075  30.052  1.00  0.00     0.278 HD
ENDROOT
BRANCH   4  10
HETATM   10  C8  UNL     1      21.043  16.969  32.628  1.00  0.00     0.110 C 
BRANCH  10  11
HETATM   11  C9  UNL     1      20.300  17.000  33.890  1.00  0.00     0.025 C 
HETATM   12  C10 UNL     1      18.813  17.027  33.580  1.00  0.00     0.009 C 
HETATM   13  C11 UNL     1      18.346  18.306  32.983  1.00  0.00     0.028 C 
HETATM   14  C12 UNL     1      18.659  19.422  33.987  1.00  0.00     0.232 C 
HETATM   15  N3  UNL     1      20.100  19.440  34.116  1.00  0.00    -0.075 N 
HETATM   16  C13 UNL     1      20.615  18.235  34.699  1.00  0.00     0.238 C 
ATOM     17  H32 UNL     1      20.546  19.633  33.219  1.00  0.00     0.277 HD
ATOM     18  H31 UNL     1      20.412  20.260  34.635  1.00  0.00     0.277 HD
ENDBRANCH  10  11
ENDBRANCH   4  10
BRANCH   1  19
HETATM   19  C2  UNL     1      25.622  13.588  31.989  1.00  0.00     0.046 C 
HETATM   20  C3  UNL     1      26.020  13.317  30.529  1.00  0.00     0.039 C 
HETATM   21  C4  UNL     1      24.843  12.381  32.445  1.00  0.00     0.039 C 
BRANCH  19  22
HETATM   22  N1  UNL     1      26.803  13.690  32.743  1.00  0.00    -0.415 N 
HETATM   23  C1  UNL     1      27.428  14.964  32.842  1.00  0.00     0.140 C 
ATOM     24  H1  UNL     1      27.201  12.874  33.206  1.00  0.00     0.153 HD
ENDBRANCH  19  22
ENDBRANCH   1  19
TORSDOF 4
ENDMDL
MODEL 5
REMARK VINA RESULT: -5.856015472      2.655      3.463
REMARK  4 active torsions:
REMARK  status: ('A' for Active; 'I' for Inactive)
REMARK    1  A    between atoms: N1_2  and  C2_4 
REMARK    2  A    between atoms: C2_4  and  C5_7 
REMARK    3  A    between atoms: N2_10  and  C8_11 
REMARK    4  A    between atoms: C8_11  and  C9_12 
ROOT
HETATM    1  C5  UNL     1      25.580  17.376  31.415  1.00  0.00     0.214 C 
HETATM    2  C6  UNL     1      24.365  17.315  30.639  1.00  0.00     0.051 C 
HETATM    3  C7  UNL     1      23.219  16.395  31.005  1.00  0.00     0.106 C 
HETATM    4  N2  UNL     1      22.740  16.584  32.394  1.00  0.00    -0.252 NA
HETATM    5  C14 UNL     1      23.658  17.298  33.098  1.00  0.00    -0.070 C 
HETATM    6  C15 UNL     1      24.735  18.025  33.622  1.00  0.00     0.330 C 
HETATM    7  N4  UNL     1      25.725  18.284  32.538  1.00  0.00    -0.058 N 
ATOM      8  H41 UNL     1      25.685  19.255  32.230  1.00  0.00     0.278 HD
ATOM      9  H42 UNL     1      26.678  18.264  32.902  1.00  0.00     0.278 HD
ENDROOT
BRANCH   4  10
HETATM   10  C8  UNL     1      21.426  17.063  32.516  1.00  0.00     0.110 C 
BRANCH  10  11
HETATM   11  C9  UNL     1      20.724  16.927  33.796  1.00  0.00     0.025 C 
HETATM   12  C10 UNL     1      19.240  16.762  33.522  1.00  0.00     0.009 C 
HETATM   13  C11 UNL     1      18.582  17.992  33.006  1.00  0.00     0.028 C 
HETATM   14  C12 UNL     1      18.769  19.089  34.062  1.00  0.00     0.232 C 
HETATM   15  N3  UNL     1      20.198  19.300  34.158  1.00  0.00    -0.075 N 
HETATM   16  C13 UNL     1      20.891  18.151  34.663  1.00  0.00     0.238 C 
ATOM     17  H32 UNL     1      20.586  19.599  33.263  1.00  0.00     0.277 HD
ATOM     18  H31 UNL     1      20.410  20.129  34.713  1.00  0.00     0.277 HD
ENDBRANCH  10  11
ENDBRANCH   4  10
BRANCH   1  19
HETATM   19  C2  UNL     1      26.726  17.841  30.487  1.00  0.00     0.046 C 
HETATM   20  C3  UNL     1      27.797  18.475  31.387  1.00  0.00     0.039 C 
HETATM   21  C4  UNL     1      26.269  18.924  29.545  1.00  0.00     0.039 C 
BRANCH  19  22
HETATM   22  N1  UNL     1      27.338  16.813  29.751  1.00  0.00    -0.415 N 
HETATM   23  C1  UNL     1      28.224  17.177  28.699  1.00  0.00     0.140 C 
ATOM     24  H1  UNL     1      27.153  15.833  29.965  1.00  0.00     0.153 HD
ENDBRANCH  19  22
ENDBRANCH   1  19
TORSDOF 4
ENDMDL
