MODEL 1
REMARK VINA RESULT: -6.495674231      0.000      0.000
REMARK  6 active torsions:
REMARK  status: ('A' for Active; 'I' for Inactive)
REMARK       I    between atoms: C2_2  and  N1_4 
REMARK    1  A    between atoms: N1_4  and  C3_6 
REMARK    2  A    between atoms: C3_6  and  C4_7 
REMARK    3  A    between atoms: C4_7  and  C5_8 
REMARK    4  A    between atoms: C5_8  and  C6_9 
REMARK       I    between atoms: C6_9  and  N2_11 
REMARK    5  A    between atoms: N3_14  and  C9_15 
REMARK    6  A    between atoms: C9_15  and  N4_17 
ROOT
HETATM    1  C6  UNL     1      21.972  17.043  32.500  1.00  0.00     0.235 C 
HETATM    2  O2  UNL     1      21.682  18.245  32.752  1.00  0.00    -0.272 OA
HETATM    3  N2  UNL     1      23.070  16.697  31.693  1.00  0.00    -0.262 N 
HETATM    4  C7  UNL     1      23.370  15.306  31.428  1.00  0.00     0.168 C 
HETATM    5  C8  UNL     1      24.178  15.300  30.122  1.00  0.00     0.148 C 
HETATM    6  N3  UNL     1      25.429  16.004  30.463  1.00  0.00    -0.341 N 
HETATM    7  C15 UNL     1      25.282  17.219  31.195  1.00  0.00     0.261 C 
HETATM    8  N6  UNL     1      23.892  17.674  31.132  1.00  0.00    -0.117 NA
ENDROOT
BRANCH   1   9
HETATM    9  C5  UNL     1      21.131  15.968  33.069  1.00  0.00     0.106 C 
BRANCH   9  10
HETATM   10  C4  UNL     1      19.758  16.035  32.429  1.00  0.00     0.029 C 
BRANCH  10  11
HETATM   11  C3  UNL     1      18.781  16.410  33.500  1.00  0.00     0.123 C 
BRANCH  11  12
HETATM   12  N1  UNL     1      18.906  17.782  33.931  1.00  0.00    -0.361 N 
HETATM   13  C2  UNL     1      18.184  18.843  33.334  1.00  0.00     0.213 C 
HETATM   14  C1  UNL     1      18.354  20.236  33.818  1.00  0.00     0.117 C 
HETATM   15  O1  UNL     1      17.389  18.653  32.392  1.00  0.00    -0.274 OA
ATOM     16  H1  UNL     1      19.542  17.995  34.699  1.00  0.00     0.162 HD
ENDBRANCH  11  12
ENDBRANCH  10  11
ENDBRANCH   9  10
ENDBRANCH   1   9
BRANCH   6  17
HETATM   17  C9  UNL     1      26.645  15.422  30.042  1.00  0.00     0.174 C 
HETATM   18  S1  UNL     1      27.836  16.429  29.490  1.00  0.00    -0.041 SA
BRANCH  17  19
HETATM   19  N4  UNL     1      26.943  14.038  30.048  1.00  0.00    -0.333 N 
HETATM   20  C10 UNL     1      26.902  13.071  31.128  1.00  0.00     0.155 C 
HETATM   21  C11 UNL     1      27.028  11.734  30.446  1.00  0.00     0.258 C 
HETATM   22  N5  UNL     1      27.937  12.047  29.363  1.00  0.00    -0.057 N 
HETATM   23  C12 UNL     1      27.952  11.064  28.322  1.00  0.00     0.274 C 
HETATM   24  C13 UNL     1      29.268  12.332  29.870  1.00  0.00     0.274 C 
HETATM   25  C14 UNL     1      27.387  13.272  28.871  1.00  0.00     0.363 C 
ENDBRANCH  17  19
ENDBRANCH   6  17
TORSDOF 6
ENDMDL
MODEL 2
REMARK VINA RESULT: -6.489610613      0.692      1.308
REMARK  6 active torsions:
REMARK  status: ('A' for Active; 'I' for Inactive)
REMARK       I    between atoms: C2_2  and  N1_4 
REMARK    1  A    between atoms: N1_4  and  C3_6 
REMARK    2  A    between atoms: C3_6  and  C4_7 
REMARK    3  A    between atoms: C4_7  and  C5_8 
REMARK    4  A    between atoms: C5_8  and  C6_9 
REMARK       I    between atoms: C6_9  and  N2_11 
REMARK    5  A    between atoms: N3_14  and  C9_15 
REMARK    6  A    between atoms: C9_15  and  N4_17 
ROOT
HETATM    1  C6  UNL     1      21.975  17.079  32.530  1.00  0.00     0.235 C 
HETATM    2  O2  UNL     1      21.677  18.283  32.761  1.00  0.00    -0.272 OA
HETATM    3  N2  UNL     1      23.070  16.726  31.722  1.00  0.00    -0.262 N 
HETATM    4  C7  UNL     1      23.379  15.332  31.482  1.00  0.00     0.168 C 
HETATM    5  C8  UNL     1      24.178  15.307  30.172  1.00  0.00     0.148 C 
HETATM    6  N3  UNL     1      25.426  16.027  30.490  1.00  0.00    -0.341 N 
HETATM    7  C15 UNL     1      25.275  17.255  31.199  1.00  0.00     0.261 C 
HETATM    8  N6  UNL     1      23.881  17.698  31.137  1.00  0.00    -0.117 NA
ENDROOT
BRANCH   1   9
HETATM    9  C5  UNL     1      21.146  16.009  33.127  1.00  0.00     0.106 C 
BRANCH   9  10
HETATM   10  C4  UNL     1      19.777  16.037  32.476  1.00  0.00     0.029 C 
BRANCH  10  11
HETATM   11  C3  UNL     1      18.787  16.426  33.531  1.00  0.00     0.123 C 
BRANCH  11  12
HETATM   12  N1  UNL     1      18.893  17.809  33.930  1.00  0.00    -0.361 N 
HETATM   13  C2  UNL     1      18.165  18.847  33.301  1.00  0.00     0.213 C 
HETATM   14  C1  UNL     1      18.314  20.253  33.752  1.00  0.00     0.117 C 
HETATM   15  O1  UNL     1      17.379  18.625  32.358  1.00  0.00    -0.274 OA
ATOM     16  H1  UNL     1      19.520  18.049  34.697  1.00  0.00     0.162 HD
ENDBRANCH  11  12
ENDBRANCH  10  11
ENDBRANCH   9  10
ENDBRANCH   1   9
BRANCH   6  17
HETATM   17  C9  UNL     1      26.644  15.446  30.072  1.00  0.00     0.174 C 
HETATM   18  S1  UNL     1      27.807  16.446  29.451  1.00  0.00    -0.041 SA
BRANCH  17  19
HETATM   19  N4  UNL     1      26.966  14.069  30.136  1.00  0.00    -0.333 N 
HETATM   20  C10 UNL     1      26.815  13.020  29.146  1.00  0.00     0.155 C 
HETATM   21  C11 UNL     1      27.609  11.863  29.693  1.00  0.00     0.258 C 
HETATM   22  N5  UNL     1      27.368  11.996  31.115  1.00  0.00    -0.057 N 
HETATM   23  C12 UNL     1      28.293  11.263  31.926  1.00  0.00     0.274 C 
HETATM   24  C13 UNL     1      25.987  11.683  31.437  1.00  0.00     0.274 C 
HETATM   25  C14 UNL     1      27.554  13.401  31.308  1.00  0.00     0.363 C 
ENDBRANCH  17  19
ENDBRANCH   6  17
TORSDOF 6
ENDMDL
MODEL 3
REMARK VINA RESULT: -6.450935483      1.949      2.671
REMARK  6 active torsions:
REMARK  status: ('A' for Active; 'I' for Inactive)
REMARK       I    between atoms: C2_2  and  N1_4 
REMARK    1  A    between atoms: N1_4  and  C3_6 
REMARK    2  A    between atoms: C3_6  and  C4_7 
REMARK    3  A    between atoms: C4_7  and  C5_8 
REMARK    4  A    between atoms: C5_8  and  C6_9 
REMARK       I    between atoms: C6_9  and  N2_11 
REMARK    5  A    between atoms: N3_14  and  C9_15 
REMARK    6  A    between atoms: C9_15  and  N4_17 
ROOT
HETATM    1  C6  UNL     1      21.875  17.111  32.576  1.00  0.00     0.235 C 
HETATM    2  O2  UNL     1      21.618  18.313  32.858  1.00  0.00    -0.272 OA
HETATM    3  N2  UNL     1      22.946  16.757  31.736  1.00  0.00    -0.262 N 
HETATM    4  C7  UNL     1      23.208  15.366  31.437  1.00  0.00     0.168 C 
HETATM    5  C8  UNL     1      23.984  15.368  30.112  1.00  0.00     0.148 C 
HETATM    6  N3  UNL     1      25.259  16.038  30.437  1.00  0.00    -0.341 N 
HETATM    7  C15 UNL     1      25.156  17.241  31.195  1.00  0.00     0.261 C 
HETATM    8  N6  UNL     1      23.776  17.727  31.175  1.00  0.00    -0.117 NA
ENDROOT
BRANCH   1   9
HETATM    9  C5  UNL     1      21.024  16.043  33.145  1.00  0.00     0.106 C 
BRANCH   9  10
HETATM   10  C4  UNL     1      19.646  16.138  32.520  1.00  0.00     0.029 C 
BRANCH  10  11
HETATM   11  C3  UNL     1      18.690  16.537  33.602  1.00  0.00     0.123 C 
BRANCH  11  12
HETATM   12  N1  UNL     1      18.825  17.917  34.001  1.00  0.00    -0.361 N 
HETATM   13  C2  UNL     1      18.135  18.974  33.362  1.00  0.00     0.213 C 
HETATM   14  C1  UNL     1      18.315  20.375  33.815  1.00  0.00     0.117 C 
HETATM   15  O1  UNL     1      17.358  18.772  32.406  1.00  0.00    -0.274 OA
ATOM     16  H1  UNL     1      19.447  18.140  34.779  1.00  0.00     0.162 HD
ENDBRANCH  11  12
ENDBRANCH  10  11
ENDBRANCH   9  10
ENDBRANCH   1   9
BRANCH   6  17
HETATM   17  C9  UNL     1      26.452  15.438  29.975  1.00  0.00     0.174 C 
HETATM   18  S1  UNL     1      26.548  13.787  29.997  1.00  0.00    -0.041 SA
BRANCH  17  19
HETATM   19  N4  UNL     1      27.588  16.129  29.489  1.00  0.00    -0.333 N 
HETATM   20  C10 UNL     1      27.786  17.539  29.214  1.00  0.00     0.155 C 
HETATM   21  C11 UNL     1      29.272  17.683  29.016  1.00  0.00     0.258 C 
HETATM   22  N5  UNL     1      29.597  16.436  28.353  1.00  0.00    -0.057 N 
HETATM   23  C12 UNL     1      30.993  16.121  28.372  1.00  0.00     0.274 C 
HETATM   24  C13 UNL     1      29.045  16.407  27.010  1.00  0.00     0.274 C 
HETATM   25  C14 UNL     1      28.870  15.492  29.143  1.00  0.00     0.363 C 
ENDBRANCH  17  19
ENDBRANCH   6  17
TORSDOF 6
ENDMDL
MODEL 4
REMARK VINA RESULT: -6.429833549      1.981      2.837
REMARK  6 active torsions:
REMARK  status: ('A' for Active; 'I' for Inactive)
REMARK       I    between atoms: C2_2  and  N1_4 
REMARK    1  A    between atoms: N1_4  and  C3_6 
REMARK    2  A    between atoms: C3_6  and  C4_7 
REMARK    3  A    between atoms: C4_7  and  C5_8 
REMARK    4  A    between atoms: C5_8  and  C6_9 
REMARK       I    between atoms: C6_9  and  N2_11 
REMARK    5  A    between atoms: N3_14  and  C9_15 
REMARK    6  A    between atoms: C9_15  and  N4_17 
ROOT
HETATM    1  C6  UNL     1      21.980  17.067  32.550  1.00  0.00     0.235 C 
HETATM    2  O2  UNL     1      21.723  18.284  32.763  1.00  0.00    -0.272 OA
HETATM    3  N2  UNL     1      23.053  16.666  31.734  1.00  0.00    -0.262 N 
HETATM    4  C7  UNL     1      23.316  15.259  31.515  1.00  0.00     0.168 C 
HETATM    5  C8  UNL     1      24.096  15.187  30.195  1.00  0.00     0.148 C 
HETATM    6  N3  UNL     1      25.370  15.873  30.485  1.00  0.00    -0.341 N 
HETATM    7  C15 UNL     1      25.266  17.117  31.174  1.00  0.00     0.261 C 
HETATM    8  N6  UNL     1      23.886  17.602  31.122  1.00  0.00    -0.117 NA
ENDROOT
BRANCH   1   9
HETATM    9  C5  UNL     1      21.126  16.034  33.175  1.00  0.00     0.106 C 
BRANCH   9  10
HETATM   10  C4  UNL     1      19.763  16.065  32.513  1.00  0.00     0.029 C 
BRANCH  10  11
HETATM   11  C3  UNL     1      18.768  16.474  33.555  1.00  0.00     0.123 C 
BRANCH  11  12
HETATM   12  N1  UNL     1      18.885  17.859  33.943  1.00  0.00    -0.361 N 
HETATM   13  C2  UNL     1      18.161  18.898  33.312  1.00  0.00     0.213 C 
HETATM   14  C1  UNL     1      18.323  20.306  33.752  1.00  0.00     0.117 C 
HETATM   15  O1  UNL     1      17.368  18.675  32.373  1.00  0.00    -0.274 OA
ATOM     16  H1  UNL     1      19.518  18.099  34.706  1.00  0.00     0.162 HD
ENDBRANCH  11  12
ENDBRANCH  10  11
ENDBRANCH   9  10
ENDBRANCH   1   9
BRANCH   6  17
HETATM   17  C9  UNL     1      26.564  15.247  30.062  1.00  0.00     0.174 C 
HETATM   18  S1  UNL     1      26.497  13.646  29.654  1.00  0.00    -0.041 SA
BRANCH  17  19
HETATM   19  N4  UNL     1      27.829  15.873  29.953  1.00  0.00    -0.333 N 
HETATM   20  C10 UNL     1      28.988  15.812  30.823  1.00  0.00     0.155 C 
HETATM   21  C11 UNL     1      30.100  16.434  30.020  1.00  0.00     0.258 C 
HETATM   22  N5  UNL     1      29.391  17.473  29.302  1.00  0.00    -0.057 N 
HETATM   23  C12 UNL     1      30.111  17.990  28.179  1.00  0.00     0.274 C 
HETATM   24  C13 UNL     1      28.954  18.522  30.207  1.00  0.00     0.274 C 
HETATM   25  C14 UNL     1      28.227  16.770  28.856  1.00  0.00     0.363 C 
ENDBRANCH  17  19
ENDBRANCH   6  17
TORSDOF 6
ENDMDL
MODEL 5
REMARK VINA RESULT: -6.429524419      2.218      2.842
REMARK  6 active torsions:
REMARK  status: ('A' for Active; 'I' for Inactive)
REMARK       I    between atoms: C2_2  and  N1_4 
REMARK    1  A    between atoms: N1_4  and  C3_6 
REMARK    2  A    between atoms: C3_6  and  C4_7 
REMARK    3  A    between atoms: C4_7  and  C5_8 
REMARK    4  A    between atoms: C5_8  and  C6_9 
REMARK       I    between atoms: C6_9  and  N2_11 
REMARK    5  A    between atoms: N3_14  and  C9_15 
REMARK    6  A    between atoms: C9_15  and  N4_17 
ROOT
HETATM    1  C6  UNL     1      21.756  17.137  32.415  1.00  0.00     0.235 C 
HETATM    2  O2  UNL     1      21.759  18.281  32.949  1.00  0.00    -0.272 OA
HETATM    3  N2  UNL     1      22.948  16.447  32.132  1.00  0.00    -0.262 N 
HETATM    4  C7  UNL     1      22.902  15.136  31.519  1.00  0.00     0.168 C 
HETATM    5  C8  UNL     1      24.264  14.954  30.835  1.00  0.00     0.148 C 
HETATM    6  N3  UNL     1      25.232  14.930  31.948  1.00  0.00    -0.341 N 
HETATM    7  C15 UNL     1      25.072  15.945  32.936  1.00  0.00     0.261 C 
HETATM    8  N6  UNL     1      24.193  16.999  32.430  1.00  0.00    -0.117 NA
ENDROOT
BRANCH   1   9
HETATM    9  C5  UNL     1      20.461  16.507  32.077  1.00  0.00     0.106 C 
BRANCH   9  10
HETATM   10  C4  UNL     1      19.894  15.864  33.328  1.00  0.00     0.029 C 
BRANCH  10  11
HETATM   11  C3  UNL     1      18.615  16.570  33.655  1.00  0.00     0.123 C 
BRANCH  11  12
HETATM   12  N1  UNL     1      18.805  17.954  34.017  1.00  0.00    -0.361 N 
HETATM   13  C2  UNL     1      18.144  19.018  33.357  1.00  0.00     0.213 C 
HETATM   14  C1  UNL     1      18.379  20.424  33.771  1.00  0.00     0.117 C 
HETATM   15  O1  UNL     1      17.349  18.819  32.416  1.00  0.00    -0.274 OA
ATOM     16  H1  UNL     1      19.443  18.176  34.781  1.00  0.00     0.162 HD
ENDBRANCH  11  12
ENDBRANCH  10  11
ENDBRANCH   9  10
ENDBRANCH   1   9
BRANCH   6  17
HETATM   17  C9  UNL     1      26.220  13.919  31.937  1.00  0.00     0.174 C 
HETATM   18  S1  UNL     1      27.734  14.321  31.408  1.00  0.00    -0.041 SA
BRANCH  17  19
HETATM   19  N4  UNL     1      26.030  12.576  32.343  1.00  0.00    -0.333 N 
HETATM   20  C10 UNL     1      26.391  11.334  31.686  1.00  0.00     0.155 C 
HETATM   21  C11 UNL     1      26.204  10.277  32.743  1.00  0.00     0.258 C 
HETATM   22  N5  UNL     1      25.046  10.782  33.453  1.00  0.00    -0.057 N 
HETATM   23  C12 UNL     1      24.857  10.186  34.741  1.00  0.00     0.274 C 
HETATM   24  C13 UNL     1      23.855  10.696  32.627  1.00  0.00     0.274 C 
HETATM   25  C14 UNL     1      25.378  12.165  33.597  1.00  0.00     0.363 C 
ENDBRANCH  17  19
ENDBRANCH   6  17
TORSDOF 6
ENDMDL
