MODEL 1
REMARK VINA RESULT: -7.800661490      0.000      0.000
REMARK  7 active torsions:
REMARK  status: ('A' for Active; 'I' for Inactive)
REMARK    1  A    between atoms: N1_5  and  C5_6 
REMARK    2  A    between atoms: C5_6  and  C6_7 
REMARK       I    between atoms: C6_7  and  N2_9 
REMARK    3  A    between atoms: N2_9  and  C7_11 
REMARK    4  A    between atoms: N3_14  and  C10_15 
REMARK    5  A    between atoms: C10_15  and  C11_16 
REMARK    6  A    between atoms: C11_16  and  O2_17 
REMARK    7  A    between atoms: C16_26  and  O4_27 
ROOT
HETATM    1  C6  UNL     1      23.746  15.206  32.744  1.00  0.00     0.265 C 
HETATM    2  O1  UNL     1      23.063  14.160  32.599  1.00  0.00    -0.267 OA
HETATM    3  N2  UNL     1      23.185  16.317  33.396  1.00  0.00    -0.351 N 
ATOM      4  H2  UNL     1      23.753  17.157  33.505  1.00  0.00     0.163 HD
ENDROOT
BRANCH   3   5
HETATM    5  C7  UNL     1      21.816  16.322  33.928  1.00  0.00     0.101 C 
HETATM    6  C8  UNL     1      21.562  17.683  34.474  1.00  0.00     0.056 C 
HETATM    7  C9  UNL     1      20.186  18.214  34.276  1.00  0.00     0.267 C 
HETATM    8  N3  UNL     1      19.445  17.611  33.218  1.00  0.00     0.018 N 
HETATM    9  C12 UNL     1      20.342  17.162  32.181  1.00  0.00     0.281 C 
HETATM   10  N4  UNL     1      18.853  16.442  33.737  1.00  0.00    -0.184 N 
HETATM   11  C13 UNL     1      20.912  15.898  32.828  1.00  0.00     0.130 C 
HETATM   12  C14 UNL     1      19.669  15.312  33.414  1.00  0.00     0.249 C 
HETATM   13  O3  UNL     1      19.350  14.127  33.606  1.00  0.00    -0.271 OA
ATOM     14  H4  UNL     1      17.979  16.408  34.262  1.00  0.00     0.197 HD
BRANCH   8  15
HETATM   15  C10 UNL     1      18.400  18.459  32.743  1.00  0.00     0.291 C 
BRANCH  15  16
HETATM   16  C11 UNL     1      18.221  19.729  33.512  1.00  0.00     0.194 C 
BRANCH  16  17
HETATM   17  O2  UNL     1      17.026  19.737  34.218  1.00  0.00    -0.399 OA
ATOM     18  H2  UNL     1      17.153  20.005  35.120  1.00  0.00     0.209 HD
ENDBRANCH  16  17
ENDBRANCH  15  16
ENDBRANCH   8  15
ENDBRANCH   3   5
BRANCH   1  19
HETATM   19  C5  UNL     1      25.117  15.281  32.242  1.00  0.00     0.276 C 
BRANCH  19  20
HETATM   20  N1  UNL     1      25.345  16.230  31.227  1.00  0.00    -0.039 N 
HETATM   21  C4  UNL     1      26.426  15.932  30.323  1.00  0.00     0.244 C 
HETATM   22  C3  UNL     1      26.940  17.285  29.810  1.00  0.00     0.041 C 
HETATM   23  C2  UNL     1      26.039  18.233  30.554  1.00  0.00     0.010 C 
HETATM   24  C1  UNL     1      26.533  19.596  30.727  1.00  0.00     0.020 C 
HETATM   25  C16 UNL     1      24.641  18.102  29.997  1.00  0.00     0.154 C 
HETATM   26  C17 UNL     1      25.870  17.452  31.870  1.00  0.00     0.255 C 
HETATM   27  C15 UNL     1      24.185  16.751  30.573  1.00  0.00     0.275 C 
BRANCH  25  28
HETATM   28  O4  UNL     1      23.839  19.134  30.415  1.00  0.00    -0.393 OA
ATOM     29  H4  UNL     1      23.645  19.730  29.701  1.00  0.00     0.210 HD
ENDBRANCH  25  28
ENDBRANCH  19  20
ENDBRANCH   1  19
TORSDOF 7
ENDMDL
MODEL 2
REMARK VINA RESULT: -7.759538214      1.221      1.596
REMARK  7 active torsions:
REMARK  status: ('A' for Active; 'I' for Inactive)
REMARK    1  A    between atoms: N1_5  and  C5_6 
REMARK    2  A    between atoms: C5_6  and  C6_7 
REMARK       I    between atoms: C6_7  and  N2_9 
REMARK    3  A    between atoms: N2_9  and  C7_11 
REMARK    4  A    between atoms: N3_14  and  C10_15 
REMARK    5  A    between atoms: C10_15  and  C11_16 
REMARK    6  A    between atoms: C11_16  and  O2_17 
REMARK    7  A    between atoms: C16_26  and  O4_27 
ROOT
HETATM    1  C6  UNL     1      23.342  15.254  31.393  1.00  0.00     0.265 C 
HETATM    2  O1  UNL     1      23.121  14.123  31.899  1.00  0.00    -0.267 OA
HETATM    3  N2  UNL     1      22.629  16.372  31.853  1.00  0.00    -0.351 N 
ATOM      4  H2  UNL     1      22.821  17.281  31.431  1.00  0.00     0.163 HD
ENDROOT
BRANCH   3   5
HETATM    5  C7  UNL     1      21.617  16.292  32.916  1.00  0.00     0.101 C 
HETATM    6  C8  UNL     1      21.725  17.540  33.720  1.00  0.00     0.056 C 
HETATM    7  C9  UNL     1      20.440  18.103  34.216  1.00  0.00     0.267 C 
HETATM    8  N3  UNL     1      19.277  17.696  33.500  1.00  0.00     0.018 N 
HETATM    9  C12 UNL     1      19.614  17.427  32.124  1.00  0.00     0.281 C 
HETATM   10  N4  UNL     1      18.870  16.457  34.037  1.00  0.00    -0.184 N 
HETATM   11  C13 UNL     1      20.303  16.069  32.260  1.00  0.00     0.130 C 
HETATM   12  C14 UNL     1      19.383  15.396  33.225  1.00  0.00     0.249 C 
HETATM   13  O3  UNL     1      19.083  14.197  33.351  1.00  0.00    -0.271 OA
ATOM     14  H4  UNL     1      18.300  16.337  34.874  1.00  0.00     0.197 HD
BRANCH   8  15
HETATM   15  C10 UNL     1      18.199  18.618  33.657  1.00  0.00     0.291 C 
BRANCH  15  16
HETATM   16  C11 UNL     1      18.611  20.043  33.842  1.00  0.00     0.194 C 
BRANCH  16  17
HETATM   17  O2  UNL     1      18.548  20.427  35.174  1.00  0.00    -0.399 OA
ATOM     18  H2  UNL     1      19.225  21.055  35.391  1.00  0.00     0.209 HD
ENDBRANCH  16  17
ENDBRANCH  15  16
ENDBRANCH   8  15
ENDBRANCH   3   5
BRANCH   1  19
HETATM   19  C5  UNL     1      24.333  15.417  30.330  1.00  0.00     0.276 C 
BRANCH  19  20
HETATM   20  N1  UNL     1      25.319  16.396  30.560  1.00  0.00    -0.039 N 
HETATM   21  C4  UNL     1      25.543  16.745  31.939  1.00  0.00     0.244 C 
HETATM   22  C3  UNL     1      26.056  18.193  31.935  1.00  0.00     0.041 C 
HETATM   23  C2  UNL     1      26.034  18.500  30.462  1.00  0.00     0.010 C 
HETATM   24  C1  UNL     1      25.966  19.910  30.095  1.00  0.00     0.020 C 
HETATM   25  C16 UNL     1      27.118  17.691  29.788  1.00  0.00     0.154 C 
HETATM   26  C17 UNL     1      24.799  17.680  30.045  1.00  0.00     0.255 C 
HETATM   27  C15 UNL     1      26.524  16.273  29.801  1.00  0.00     0.275 C 
BRANCH  25  28
HETATM   28  O4  UNL     1      27.351  18.137  28.511  1.00  0.00    -0.393 OA
ATOM     29  H4  UNL     1      27.873  17.515  28.018  1.00  0.00     0.210 HD
ENDBRANCH  25  28
ENDBRANCH  19  20
ENDBRANCH   1  19
TORSDOF 7
ENDMDL
MODEL 3
REMARK VINA RESULT: -7.337197866      1.509      1.821
REMARK  7 active torsions:
REMARK  status: ('A' for Active; 'I' for Inactive)
REMARK    1  A    between atoms: N1_5  and  C5_6 
REMARK    2  A    between atoms: C5_6  and  C6_7 
REMARK       I    between atoms: C6_7  and  N2_9 
REMARK    3  A    between atoms: N2_9  and  C7_11 
REMARK    4  A    between atoms: N3_14  and  C10_15 
REMARK    5  A    between atoms: C10_15  and  C11_16 
REMARK    6  A    between atoms: C11_16  and  O2_17 
REMARK    7  A    between atoms: C16_26  and  O4_27 
ROOT
HETATM    1  C6  UNL     1      24.413  16.458  33.521  1.00  0.00     0.265 C 
HETATM    2  O1  UNL     1      24.451  16.360  34.775  1.00  0.00    -0.267 OA
HETATM    3  N2  UNL     1      23.172  16.507  32.866  1.00  0.00    -0.351 N 
ATOM      4  H2  UNL     1      23.161  16.586  31.848  1.00  0.00     0.163 HD
ENDROOT
BRANCH   3   5
HETATM    5  C7  UNL     1      21.889  16.449  33.579  1.00  0.00     0.101 C 
HETATM    6  C8  UNL     1      21.583  17.828  34.046  1.00  0.00     0.056 C 
HETATM    7  C9  UNL     1      20.150  18.225  33.997  1.00  0.00     0.267 C 
HETATM    8  N3  UNL     1      19.337  17.471  33.101  1.00  0.00     0.018 N 
HETATM    9  C12 UNL     1      20.129  17.004  31.990  1.00  0.00     0.281 C 
HETATM   10  N4  UNL     1      18.929  16.309  33.788  1.00  0.00    -0.184 N 
HETATM   11  C13 UNL     1      20.893  15.855  32.650  1.00  0.00     0.130 C 
HETATM   12  C14 UNL     1      19.798  15.225  33.446  1.00  0.00     0.249 C 
HETATM   13  O3  UNL     1      19.618  14.040  33.773  1.00  0.00    -0.271 OA
ATOM     14  H4  UNL     1      18.137  16.251  34.429  1.00  0.00     0.197 HD
BRANCH   8  15
HETATM   15  C10 UNL     1      18.165  18.184  32.710  1.00  0.00     0.291 C 
BRANCH  15  16
HETATM   16  C11 UNL     1      18.062  19.573  33.254  1.00  0.00     0.194 C 
BRANCH  16  17
HETATM   17  O2  UNL     1      17.031  19.688  34.176  1.00  0.00    -0.399 OA
ATOM     18  H2  UNL     1      17.229  20.332  34.845  1.00  0.00     0.209 HD
ENDBRANCH  16  17
ENDBRANCH  15  16
ENDBRANCH   8  15
ENDBRANCH   3   5
BRANCH   1  19
HETATM   19  C5  UNL     1      25.647  16.521  32.739  1.00  0.00     0.276 C 
BRANCH  19  20
HETATM   20  N1  UNL     1      25.913  17.756  32.117  1.00  0.00    -0.039 N 
HETATM   21  C4  UNL     1      25.672  17.807  30.698  1.00  0.00     0.244 C 
HETATM   22  C3  UNL     1      26.621  18.878  30.141  1.00  0.00     0.041 C 
HETATM   23  C2  UNL     1      27.334  19.307  31.395  1.00  0.00     0.010 C 
HETATM   24  C1  UNL     1      28.641  19.931  31.216  1.00  0.00     0.020 C 
HETATM   25  C16 UNL     1      26.357  20.056  32.270  1.00  0.00     0.154 C 
HETATM   26  C17 UNL     1      27.376  17.961  32.143  1.00  0.00     0.255 C 
HETATM   27  C15 UNL     1      25.468  18.924  32.811  1.00  0.00     0.275 C 
BRANCH  25  28
HETATM   28  O4  UNL     1      27.003  20.726  33.278  1.00  0.00    -0.393 OA
ATOM     29  H4  UNL     1      26.428  21.354  33.700  1.00  0.00     0.210 HD
ENDBRANCH  25  28
ENDBRANCH  19  20
ENDBRANCH   1  19
TORSDOF 7
ENDMDL
MODEL 4
REMARK VINA RESULT: -7.248754500      4.089      5.721
REMARK  7 active torsions:
REMARK  status: ('A' for Active; 'I' for Inactive)
REMARK    1  A    between atoms: N1_5  and  C5_6 
REMARK    2  A    between atoms: C5_6  and  C6_7 
REMARK       I    between atoms: C6_7  and  N2_9 
REMARK    3  A    between atoms: N2_9  and  C7_11 
REMARK    4  A    between atoms: N3_14  and  C10_15 
REMARK    5  A    between atoms: C10_15  and  C11_16 
REMARK    6  A    between atoms: C11_16  and  O2_17 
REMARK    7  A    between atoms: C16_26  and  O4_27 
ROOT
HETATM    1  C6  UNL     1      25.791  17.333  34.832  1.00  0.00     0.265 C 
HETATM    2  O1  UNL     1      26.263  16.167  34.832  1.00  0.00    -0.267 OA
HETATM    3  N2  UNL     1      24.694  17.639  34.011  1.00  0.00    -0.351 N 
ATOM      4  H2  UNL     1      24.325  18.590  34.023  1.00  0.00     0.163 HD
ENDROOT
BRANCH   3   5
HETATM    5  C7  UNL     1      24.053  16.650  33.134  1.00  0.00     0.101 C 
HETATM    6  C8  UNL     1      23.165  15.815  33.988  1.00  0.00     0.056 C 
HETATM    7  C9  UNL     1      21.878  15.397  33.370  1.00  0.00     0.267 C 
HETATM    8  N3  UNL     1      21.436  16.199  32.277  1.00  0.00     0.018 N 
HETATM    9  C12 UNL     1      21.901  17.554  32.440  1.00  0.00     0.281 C 
HETATM   10  N4  UNL     1      22.078  15.716  31.119  1.00  0.00    -0.184 N 
HETATM   11  C13 UNL     1      23.371  17.398  32.047  1.00  0.00     0.130 C 
HETATM   12  C14 UNL     1      23.237  16.512  30.852  1.00  0.00     0.249 C 
HETATM   13  O3  UNL     1      23.934  16.431  29.826  1.00  0.00    -0.271 OA
ATOM     14  H4  UNL     1      21.766  14.922  30.559  1.00  0.00     0.197 HD
BRANCH   8  15
HETATM   15  C10 UNL     1      20.027  16.097  32.072  1.00  0.00     0.291 C 
BRANCH  15  16
HETATM   16  C11 UNL     1      19.203  17.052  32.874  1.00  0.00     0.194 C 
BRANCH  16  17
HETATM   17  O2  UNL     1      18.554  16.415  33.922  1.00  0.00    -0.399 OA
ATOM     18  H2  UNL     1      19.167  15.992  34.510  1.00  0.00     0.209 HD
ENDBRANCH  16  17
ENDBRANCH  15  16
ENDBRANCH   8  15
ENDBRANCH   3   5
BRANCH   1  19
HETATM   19  C5  UNL     1      26.373  18.376  35.677  1.00  0.00     0.276 C 
BRANCH  19  20
HETATM   20  N1  UNL     1      25.632  18.714  36.826  1.00  0.00    -0.039 N 
HETATM   21  C4  UNL     1      24.810  19.891  36.715  1.00  0.00     0.244 C 
HETATM   22  C3  UNL     1      24.679  20.457  38.137  1.00  0.00     0.041 C 
HETATM   23  C2  UNL     1      25.514  19.474  38.913  1.00  0.00     0.010 C 
HETATM   24  C1  UNL     1      26.047  19.941  40.189  1.00  0.00     0.020 C 
HETATM   25  C16 UNL     1      24.790  18.149  38.943  1.00  0.00     0.154 C 
HETATM   26  C17 UNL     1      26.591  19.160  37.858  1.00  0.00     0.255 C 
HETATM   27  C15 UNL     1      24.990  17.634  37.508  1.00  0.00     0.275 C 
BRANCH  25  28
HETATM   28  O4  UNL     1      25.340  17.301  39.872  1.00  0.00    -0.393 OA
ATOM     29  H4  UNL     1      25.351  16.405  39.557  1.00  0.00     0.210 HD
ENDBRANCH  25  28
ENDBRANCH  19  20
ENDBRANCH   1  19
TORSDOF 7
ENDMDL
MODEL 5
REMARK VINA RESULT: -7.189920724      1.906      2.363
REMARK  7 active torsions:
REMARK  status: ('A' for Active; 'I' for Inactive)
REMARK    1  A    between atoms: N1_5  and  C5_6 
REMARK    2  A    between atoms: C5_6  and  C6_7 
REMARK       I    between atoms: C6_7  and  N2_9 
REMARK    3  A    between atoms: N2_9  and  C7_11 
REMARK    4  A    between atoms: N3_14  and  C10_15 
REMARK    5  A    between atoms: C10_15  and  C11_16 
REMARK    6  A    between atoms: C11_16  and  O2_17 
REMARK    7  A    between atoms: C16_26  and  O4_27 
ROOT
HETATM    1  C6  UNL     1      24.594  18.434  33.404  1.00  0.00     0.265 C 
HETATM    2  O1  UNL     1      24.840  18.095  34.590  1.00  0.00    -0.267 OA
HETATM    3  N2  UNL     1      23.330  18.168  32.853  1.00  0.00    -0.351 N 
ATOM      4  H2  UNL     1      23.148  18.449  31.890  1.00  0.00     0.163 HD
ENDROOT
BRANCH   3   5
HETATM    5  C7  UNL     1      22.256  17.502  33.603  1.00  0.00     0.101 C 
HETATM    6  C8  UNL     1      21.328  18.563  34.079  1.00  0.00     0.056 C 
HETATM    7  C9  UNL     1      19.883  18.211  34.072  1.00  0.00     0.267 C 
HETATM    8  N3  UNL     1      19.518  17.143  33.200  1.00  0.00     0.018 N 
HETATM    9  C12 UNL     1      20.409  17.106  32.066  1.00  0.00     0.281 C 
HETATM   10  N4  UNL     1      19.746  15.940  33.898  1.00  0.00    -0.184 N 
HETATM   11  C13 UNL     1      21.653  16.485  32.704  1.00  0.00     0.130 C 
HETATM   12  C14 UNL     1      21.024  15.412  33.531  1.00  0.00     0.249 C 
HETATM   13  O3  UNL     1      21.453  14.294  33.863  1.00  0.00    -0.271 OA
ATOM     14  H4  UNL     1      19.100  15.512  34.562  1.00  0.00     0.197 HD
BRANCH   8  15
HETATM   15  C10 UNL     1      18.137  17.189  32.843  1.00  0.00     0.291 C 
BRANCH  15  16
HETATM   16  C11 UNL     1      17.733  18.388  32.046  1.00  0.00     0.194 C 
BRANCH  16  17
HETATM   17  O2  UNL     1      17.204  18.031  30.814  1.00  0.00    -0.399 OA
ATOM     18  H2  UNL     1      17.784  17.450  30.337  1.00  0.00     0.209 HD
ENDBRANCH  16  17
ENDBRANCH  15  16
ENDBRANCH   8  15
ENDBRANCH   3   5
BRANCH   1  19
HETATM   19  C5  UNL     1      25.610  19.101  32.590  1.00  0.00     0.276 C 
BRANCH  19  20
HETATM   20  N1  UNL     1      26.239  18.298  31.620  1.00  0.00    -0.039 N 
HETATM   21  C4  UNL     1      26.743  17.032  32.087  1.00  0.00     0.244 C 
HETATM   22  C3  UNL     1      27.918  16.674  31.165  1.00  0.00     0.041 C 
HETATM   23  C2  UNL     1      27.938  17.868  30.250  1.00  0.00     0.010 C 
HETATM   24  C1  UNL     1      29.201  18.145  29.573  1.00  0.00     0.020 C 
HETATM   25  C16 UNL     1      26.711  17.820  29.371  1.00  0.00     0.154 C 
HETATM   26  C17 UNL     1      27.503  18.962  31.244  1.00  0.00     0.255 C 
HETATM   27  C15 UNL     1      25.592  18.216  30.347  1.00  0.00     0.275 C 
BRANCH  25  28
HETATM   28  O4  UNL     1      26.813  18.700  28.323  1.00  0.00    -0.393 OA
ATOM     29  H4  UNL     1      25.958  19.009  28.047  1.00  0.00     0.210 HD
ENDBRANCH  25  28
ENDBRANCH  19  20
ENDBRANCH   1  19
TORSDOF 7
ENDMDL
