MODEL 1
REMARK VINA RESULT: -6.985711307      0.000      0.000
REMARK  6 active torsions:
REMARK  status: ('A' for Active; 'I' for Inactive)
REMARK    1  A    between atoms: N1_2  and  C4_5 
REMARK    2  A    between atoms: C4_5  and  C5_6 
REMARK    3  A    between atoms: C9_11  and  C10_12 
REMARK    4  A    between atoms: C10_12  and  C11_13 
REMARK    5  A    between atoms: C12_14  and  C13_15 
REMARK    6  A    between atoms: C13_15  and  N3_16 
ROOT
HETATM    1  C5  UNL     1      26.253  18.773  30.665  1.00  0.00     0.158 C 
HETATM    2  C6  UNL     1      26.840  17.439  30.295  1.00  0.00     0.264 C 
HETATM    3  N2  UNL     1      25.907  16.428  30.827  1.00  0.00    -0.044 N 
HETATM    4  C7  UNL     1      26.135  16.319  32.238  1.00  0.00     0.275 C 
HETATM    5  C8  UNL     1      26.235  15.160  30.208  1.00  0.00     0.275 C 
HETATM    6  C9  UNL     1      24.593  16.901  30.523  1.00  0.00     0.360 C 
HETATM    7  O2  UNL     1      24.555  17.823  29.479  1.00  0.00    -0.251 OA
HETATM    8  N6  UNL     1      25.114  19.010  29.832  1.00  0.00    -0.090 NA
ENDROOT
BRANCH   6   9
HETATM    9  C10 UNL     1      23.577  15.807  30.298  1.00  0.00     0.158 C 
BRANCH   9  10
HETATM   10  C11 UNL     1      22.576  15.774  31.365  1.00  0.00    -0.100 C 
HETATM   11  C12 UNL     1      21.764  15.762  32.255  1.00  0.00    -0.076 C 
BRANCH  11  12
HETATM   12  C13 UNL     1      20.786  15.728  33.344  1.00  0.00     0.366 C 
BRANCH  12  13
HETATM   13  N3  UNL     1      20.138  16.996  33.437  1.00  0.00     0.106 N 
HETATM   14  C14 UNL     1      18.702  16.805  33.681  1.00  0.00     0.298 C 
HETATM   15  C15 UNL     1      18.570  18.062  32.860  1.00  0.00     0.154 C 
HETATM   16  C16 UNL     1      18.698  19.267  33.750  1.00  0.00     0.149 C 
HETATM   17  N5  UNL     1      19.809  17.644  32.269  1.00  0.00    -0.027 NA
HETATM   18  N4  UNL     1      19.857  19.099  34.608  1.00  0.00    -0.334 N 
HETATM   19  C17 UNL     1      20.607  17.886  34.412  1.00  0.00     0.435 C 
ATOM     20  H4  UNL     1      20.122  19.794  35.305  1.00  0.00     0.164 HD
HETATM   21  O1  UNL     1      21.623  17.698  35.114  1.00  0.00    -0.237 OA
ENDBRANCH  12  13
ENDBRANCH  11  12
ENDBRANCH   9  10
ENDBRANCH   6   9
BRANCH   1  22
HETATM   22  C4  UNL     1      27.236  19.886  30.717  1.00  0.00     0.261 C 
BRANCH  22  23
HETATM   23  N1  UNL     1      27.660  20.314  32.002  1.00  0.00    -0.077 N 
HETATM   24  C1  UNL     1      28.700  19.511  32.602  1.00  0.00     0.271 C 
HETATM   25  C2  UNL     1      28.038  21.708  32.077  1.00  0.00     0.271 C 
HETATM   26  C3  UNL     1      26.493  20.180  32.895  1.00  0.00     0.271 C 
ENDBRANCH  22  23
ENDBRANCH   1  22
TORSDOF 6
ENDMDL
MODEL 2
REMARK VINA RESULT: -6.833509438      3.443      4.511
REMARK  6 active torsions:
REMARK  status: ('A' for Active; 'I' for Inactive)
REMARK    1  A    between atoms: N1_2  and  C4_5 
REMARK    2  A    between atoms: C4_5  and  C5_6 
REMARK    3  A    between atoms: C9_11  and  C10_12 
REMARK    4  A    between atoms: C10_12  and  C11_13 
REMARK    5  A    between atoms: C12_14  and  C13_15 
REMARK    6  A    between atoms: C13_15  and  N3_16 
ROOT
HETATM    1  C5  UNL     1      24.375  18.321  36.067  1.00  0.00     0.158 C 
HETATM    2  C6  UNL     1      24.575  18.641  34.611  1.00  0.00     0.264 C 
HETATM    3  N2  UNL     1      24.857  17.352  33.952  1.00  0.00    -0.044 N 
HETATM    4  C7  UNL     1      26.221  17.006  34.228  1.00  0.00     0.275 C 
HETATM    5  C8  UNL     1      24.713  17.550  32.523  1.00  0.00     0.275 C 
HETATM    6  C9  UNL     1      23.934  16.412  34.505  1.00  0.00     0.360 C 
HETATM    7  O2  UNL     1      22.806  17.000  35.075  1.00  0.00    -0.251 OA
HETATM    8  N6  UNL     1      23.109  17.673  36.216  1.00  0.00    -0.090 NA
ENDROOT
BRANCH   6   9
HETATM    9  C10 UNL     1      23.531  15.308  33.557  1.00  0.00     0.158 C 
BRANCH   9  10
HETATM   10  C11 UNL     1      22.179  15.514  33.036  1.00  0.00    -0.100 C 
HETATM   11  C12 UNL     1      21.069  15.667  32.593  1.00  0.00    -0.076 C 
BRANCH  11  12
HETATM   12  C13 UNL     1      19.727  15.870  32.042  1.00  0.00     0.366 C 
BRANCH  12  13
HETATM   13  N3  UNL     1      19.132  17.013  32.656  1.00  0.00     0.106 N 
HETATM   14  C14 UNL     1      20.170  18.003  32.975  1.00  0.00     0.298 C 
HETATM   15  C15 UNL     1      19.274  18.310  34.147  1.00  0.00     0.154 C 
HETATM   16  C16 UNL     1      18.240  19.325  33.745  1.00  0.00     0.149 C 
HETATM   17  N5  UNL     1      18.840  16.951  33.998  1.00  0.00    -0.027 NA
HETATM   18  N4  UNL     1      17.646  18.919  32.485  1.00  0.00    -0.334 N 
HETATM   19  C17 UNL     1      18.134  17.681  31.936  1.00  0.00     0.435 C 
ATOM     20  H4  UNL     1      16.929  19.474  32.019  1.00  0.00     0.164 HD
HETATM   21  O1  UNL     1      17.644  17.277  30.859  1.00  0.00    -0.237 OA
ENDBRANCH  12  13
ENDBRANCH  11  12
ENDBRANCH   9  10
ENDBRANCH   6   9
BRANCH   1  22
HETATM   22  C4  UNL     1      24.608  19.464  36.987  1.00  0.00     0.261 C 
BRANCH  22  23
HETATM   23  N1  UNL     1      25.332  19.199  38.178  1.00  0.00    -0.077 N 
HETATM   24  C1  UNL     1      26.142  20.293  38.659  1.00  0.00     0.271 C 
HETATM   25  C2  UNL     1      24.529  18.692  39.270  1.00  0.00     0.271 C 
HETATM   26  C3  UNL     1      26.281  18.114  37.859  1.00  0.00     0.271 C 
ENDBRANCH  22  23
ENDBRANCH   1  22
TORSDOF 6
ENDMDL
MODEL 3
REMARK VINA RESULT: -6.777265490      3.639      5.840
REMARK  6 active torsions:
REMARK  status: ('A' for Active; 'I' for Inactive)
REMARK    1  A    between atoms: N1_2  and  C4_5 
REMARK    2  A    between atoms: C4_5  and  C5_6 
REMARK    3  A    between atoms: C9_11  and  C10_12 
REMARK    4  A    between atoms: C10_12  and  C11_13 
REMARK    5  A    between atoms: C12_14  and  C13_15 
REMARK    6  A    between atoms: C13_15  and  N3_16 
ROOT
HETATM    1  C5  UNL     1      24.881  12.121  32.586  1.00  0.00     0.158 C 
HETATM    2  C6  UNL     1      25.325  13.161  33.577  1.00  0.00     0.264 C 
HETATM    3  N2  UNL     1      25.324  14.441  32.845  1.00  0.00    -0.044 N 
HETATM    4  C7  UNL     1      26.503  14.482  32.030  1.00  0.00     0.275 C 
HETATM    5  C8  UNL     1      25.404  15.506  33.824  1.00  0.00     0.275 C 
HETATM    6  C9  UNL     1      24.125  14.453  32.068  1.00  0.00     0.360 C 
HETATM    7  O2  UNL     1      23.139  13.590  32.542  1.00  0.00    -0.251 OA
HETATM    8  N6  UNL     1      23.479  12.286  32.358  1.00  0.00    -0.090 NA
ENDROOT
BRANCH   6   9
HETATM    9  C10 UNL     1      23.551  15.831  31.835  1.00  0.00     0.158 C 
BRANCH   9  10
HETATM   10  C11 UNL     1      22.088  15.816  31.868  1.00  0.00    -0.100 C 
HETATM   11  C12 UNL     1      20.884  15.798  31.916  1.00  0.00    -0.076 C 
BRANCH  11  12
HETATM   12  C13 UNL     1      19.421  15.756  31.965  1.00  0.00     0.366 C 
BRANCH  12  13
HETATM   13  N3  UNL     1      18.936  16.941  32.595  1.00  0.00     0.106 N 
HETATM   14  C14 UNL     1      20.063  17.812  32.952  1.00  0.00     0.298 C 
HETATM   15  C15 UNL     1      19.182  18.185  34.117  1.00  0.00     0.154 C 
HETATM   16  C16 UNL     1      18.266  19.309  33.722  1.00  0.00     0.149 C 
HETATM   17  N5  UNL     1      18.614  16.881  33.930  1.00  0.00    -0.027 NA
HETATM   18  N4  UNL     1      17.656  18.993  32.443  1.00  0.00    -0.334 N 
HETATM   19  C17 UNL     1      18.024  17.723  31.874  1.00  0.00     0.435 C 
ATOM     20  H4  UNL     1      17.008  19.628  31.979  1.00  0.00     0.164 HD
HETATM   21  O1  UNL     1      17.515  17.394  30.781  1.00  0.00    -0.237 OA
ENDBRANCH  12  13
ENDBRANCH  11  12
ENDBRANCH   9  10
ENDBRANCH   6   9
BRANCH   1  22
HETATM   22  C4  UNL     1      25.306  10.735  32.914  1.00  0.00     0.261 C 
BRANCH  22  23
HETATM   23  N1  UNL     1      25.859   9.963  31.861  1.00  0.00    -0.077 N 
HETATM   24  C1  UNL     1      24.949   9.025  31.246  1.00  0.00     0.271 C 
HETATM   25  C2  UNL     1      26.510  10.736  30.825  1.00  0.00     0.271 C 
HETATM   26  C3  UNL     1      26.929   9.141  32.460  1.00  0.00     0.271 C 
ENDBRANCH  22  23
ENDBRANCH   1  22
TORSDOF 6
ENDMDL
MODEL 4
REMARK VINA RESULT: -6.567796862      2.964      5.259
REMARK  6 active torsions:
REMARK  status: ('A' for Active; 'I' for Inactive)
REMARK    1  A    between atoms: N1_2  and  C4_5 
REMARK    2  A    between atoms: C4_5  and  C5_6 
REMARK    3  A    between atoms: C9_11  and  C10_12 
REMARK    4  A    between atoms: C10_12  and  C11_13 
REMARK    5  A    between atoms: C12_14  and  C13_15 
REMARK    6  A    between atoms: C13_15  and  N3_16 
ROOT
HETATM    1  C5  UNL     1      25.900  12.394  31.643  1.00  0.00     0.158 C 
HETATM    2  C6  UNL     1      26.432  13.724  32.100  1.00  0.00     0.264 C 
HETATM    3  N2  UNL     1      25.885  14.720  31.160  1.00  0.00    -0.044 N 
HETATM    4  C7  UNL     1      26.649  14.649  29.950  1.00  0.00     0.275 C 
HETATM    5  C8  UNL     1      26.076  16.030  31.750  1.00  0.00     0.275 C 
HETATM    6  C9  UNL     1      24.515  14.367  30.960  1.00  0.00     0.360 C 
HETATM    7  O2  UNL     1      23.983  13.579  31.979  1.00  0.00    -0.251 OA
HETATM    8  N6  UNL     1      24.511  12.326  31.976  1.00  0.00    -0.090 NA
ENDROOT
BRANCH   6   9
HETATM    9  C10 UNL     1      23.607  15.541  30.674  1.00  0.00     0.158 C 
BRANCH   9  10
HETATM   10  C11 UNL     1      22.501  15.610  31.630  1.00  0.00    -0.100 C 
HETATM   11  C12 UNL     1      21.605  15.667  32.432  1.00  0.00    -0.076 C 
BRANCH  11  12
HETATM   12  C13 UNL     1      20.511  15.714  33.406  1.00  0.00     0.366 C 
BRANCH  12  13
HETATM   13  N3  UNL     1      19.973  17.035  33.448  1.00  0.00     0.106 N 
HETATM   14  C14 UNL     1      18.531  16.977  33.721  1.00  0.00     0.298 C 
HETATM   15  C15 UNL     1      18.490  18.202  32.844  1.00  0.00     0.154 C 
HETATM   16  C16 UNL     1      18.734  19.431  33.675  1.00  0.00     0.149 C 
HETATM   17  N5  UNL     1      19.679  17.654  32.256  1.00  0.00    -0.027 NA
HETATM   18  N4  UNL     1      19.889  19.204  34.524  1.00  0.00    -0.334 N 
HETATM   19  C17 UNL     1      20.532  17.925  34.374  1.00  0.00     0.435 C 
ATOM     20  H4  UNL     1      20.224  19.906  35.183  1.00  0.00     0.164 HD
HETATM   21  O1  UNL     1      21.542  17.684  35.070  1.00  0.00    -0.237 OA
ENDBRANCH  12  13
ENDBRANCH  11  12
ENDBRANCH   9  10
ENDBRANCH   6   9
BRANCH   1  22
HETATM   22  C4  UNL     1      26.708  11.225  32.076  1.00  0.00     0.261 C 
BRANCH  22  23
HETATM   23  N1  UNL     1      27.036  10.263  31.086  1.00  0.00    -0.077 N 
HETATM   24  C1  UNL     1      26.105   9.166  30.966  1.00  0.00     0.271 C 
HETATM   25  C2  UNL     1      27.287  10.814  29.771  1.00  0.00     0.271 C 
HETATM   26  C3  UNL     1      28.315   9.654  31.500  1.00  0.00     0.271 C 
ENDBRANCH  22  23
ENDBRANCH   1  22
TORSDOF 6
ENDMDL
MODEL 5
REMARK VINA RESULT: -6.546079173      3.040      3.715
REMARK  6 active torsions:
REMARK  status: ('A' for Active; 'I' for Inactive)
REMARK    1  A    between atoms: N1_2  and  C4_5 
REMARK    2  A    between atoms: C4_5  and  C5_6 
REMARK    3  A    between atoms: C9_11  and  C10_12 
REMARK    4  A    between atoms: C10_12  and  C11_13 
REMARK    5  A    between atoms: C12_14  and  C13_15 
REMARK    6  A    between atoms: C13_15  and  N3_16 
ROOT
HETATM    1  C5  UNL     1      25.586  18.306  34.825  1.00  0.00     0.158 C 
HETATM    2  C6  UNL     1      26.440  17.359  34.027  1.00  0.00     0.264 C 
HETATM    3  N2  UNL     1      25.501  16.454  33.338  1.00  0.00    -0.044 N 
HETATM    4  C7  UNL     1      25.041  15.489  34.293  1.00  0.00     0.275 C 
HETATM    5  C8  UNL     1      26.242  15.761  32.303  1.00  0.00     0.275 C 
HETATM    6  C9  UNL     1      24.444  17.279  32.845  1.00  0.00     0.360 C 
HETATM    7  O2  UNL     1      24.793  18.621  32.712  1.00  0.00    -0.251 OA
HETATM    8  N6  UNL     1      24.962  19.221  33.920  1.00  0.00    -0.090 NA
ENDROOT
BRANCH   6   9
HETATM    9  C10 UNL     1      23.804  16.772  31.573  1.00  0.00     0.158 C 
BRANCH   9  10
HETATM   10  C11 UNL     1      22.390  16.453  31.773  1.00  0.00    -0.100 C 
HETATM   11  C12 UNL     1      21.227  16.201  31.957  1.00  0.00    -0.076 C 
BRANCH  11  12
HETATM   12  C13 UNL     1      19.818  15.873  32.187  1.00  0.00     0.366 C 
BRANCH  12  13
HETATM   13  N3  UNL     1      19.148  17.018  32.715  1.00  0.00     0.106 N 
HETATM   14  C14 UNL     1      20.128  18.062  33.040  1.00  0.00     0.298 C 
HETATM   15  C15 UNL     1      19.159  18.385  34.149  1.00  0.00     0.154 C 
HETATM   16  C16 UNL     1      18.110  19.338  33.647  1.00  0.00     0.149 C 
HETATM   17  N5  UNL     1      18.787  17.003  34.042  1.00  0.00    -0.027 NA
HETATM   18  N4  UNL     1      17.600  18.851  32.378  1.00  0.00    -0.334 N 
HETATM   19  C17 UNL     1      18.164  17.611  31.913  1.00  0.00     0.435 C 
ATOM     20  H4  UNL     1      16.888  19.355  31.850  1.00  0.00     0.164 HD
HETATM   21  O1  UNL     1      17.749  17.139  30.833  1.00  0.00    -0.237 OA
ENDBRANCH  12  13
ENDBRANCH  11  12
ENDBRANCH   9  10
ENDBRANCH   6   9
BRANCH   1  22
HETATM   22  C4  UNL     1      26.276  18.936  35.980  1.00  0.00     0.261 C 
BRANCH  22  23
HETATM   23  N1  UNL     1      25.611  18.894  37.232  1.00  0.00    -0.077 N 
HETATM   24  C1  UNL     1      25.211  20.178  37.757  1.00  0.00     0.271 C 
HETATM   25  C2  UNL     1      24.481  17.991  37.283  1.00  0.00     0.271 C 
HETATM   26  C3  UNL     1      26.581  18.355  38.205  1.00  0.00     0.271 C 
ENDBRANCH  22  23
ENDBRANCH   1  22
TORSDOF 6
ENDMDL
