MODEL 1
REMARK VINA RESULT: 1.565049924      0.000      0.000
REMARK  7 active torsions:
REMARK  status: ('A' for Active; 'I' for Inactive)
REMARK    1  A    between atoms: N1_2  and  C2_4 
REMARK    2  A    between atoms: C5_7  and  C6_8 
REMARK    3  A    between atoms: C7_9  and  C8_10 
REMARK    4  A    between atoms: C14_18  and  O1_19 
REMARK    5  A    between atoms: C17_24  and  C18_25 
REMARK    6  A    between atoms: C21_29  and  C22_30 
REMARK    7  A    between atoms: C26_36  and  O2_37 
ROOT
HETATM    1  C8  UNL     1      -3.861  -9.239  26.787  1.00  0.00     0.053 A 
HETATM    2  C9  UNL     1      -3.914  -9.765  28.049  1.00  0.00     0.025 A 
HETATM    3  C10 UNL     1      -4.038 -11.236  28.225  1.00  0.00     0.070 C 
HETATM    4  N2  UNL     1      -3.859  -9.014  29.167  1.00  0.00    -0.357 N 
ATOM      5  H2  UNL     1      -3.901  -9.445  30.091  1.00  0.00     0.166 HD
HETATM    6  C11 UNL     1      -3.749  -7.694  29.031  1.00  0.00     0.060 A 
HETATM    7  C12 UNL     1      -3.688  -6.879  30.135  1.00  0.00     0.036 A 
HETATM    8  C13 UNL     1      -3.571  -5.520  29.928  1.00  0.00     0.058 A 
HETATM    9  C14 UNL     1      -3.517  -4.988  28.655  1.00  0.00     0.142 A 
HETATM   10  N3  UNL     1      -3.577  -5.792  27.579  1.00  0.00    -0.334 N 
ATOM     11  H3  UNL     1      -3.538  -5.406  26.635  1.00  0.00     0.168 HD
HETATM   12  C16 UNL     1      -3.690  -7.106  27.777  1.00  0.00     0.073 A 
HETATM   13  C17 UNL     1      -3.748  -7.894  26.621  1.00  0.00     0.024 A 
ENDROOT
BRANCH  13  14
HETATM   14  C18 UNL     1      -3.692  -7.331  25.296  1.00  0.00    -0.016 A 
HETATM   15  C19 UNL     1      -4.539  -7.848  24.321  1.00  0.00     0.055 A 
HETATM   16  C20 UNL     1      -4.527  -7.346  23.039  1.00  0.00     0.131 A 
HETATM   17  F1  UNL     1      -5.389  -7.912  22.152  1.00  0.00    -0.205 F 
HETATM   18  C21 UNL     1      -3.677  -6.329  22.711  1.00  0.00     0.054 A 
HETATM   19  C28 UNL     1      -2.825  -5.806  23.683  1.00  0.00     0.131 A 
HETATM   20  F2  UNL     1      -1.992  -4.796  23.324  1.00  0.00    -0.205 F 
HETATM   21  C29 UNL     1      -2.845  -6.310  24.951  1.00  0.00     0.055 A 
BRANCH  18  22
HETATM   22  C22 UNL     1      -3.682  -5.820  21.353  1.00  0.00     0.016 A 
HETATM   23  C23 UNL     1      -4.756  -5.167  20.798  1.00  0.00     0.032 A 
HETATM   24  C24 UNL     1      -4.717  -4.692  19.484  1.00  0.00     0.088 A 
HETATM   25  N4  UNL     1      -3.598  -4.891  18.768  1.00  0.00    -0.373 N 
HETATM   26  C25 UNL     1      -2.516  -5.524  19.259  1.00  0.00     0.125 A 
ATOM     27  H4  UNL     1      -3.567  -4.547  17.809  1.00  0.00     0.164 HD
HETATM   28  C26 UNL     1      -2.553  -5.998  20.572  1.00  0.00     0.094 A 
BRANCH  28  29
HETATM   29  O2  UNL     1      -1.458  -6.652  21.105  1.00  0.00    -0.354 OA
HETATM   30  C27 UNL     1      -1.235  -7.995  20.760  1.00  0.00     0.210 C 
ENDBRANCH  28  29
ENDBRANCH  18  22
ENDBRANCH  13  14
BRANCH   1  31
HETATM   31  C7  UNL     1      -3.920 -10.069  25.592  1.00  0.00    -0.058 C 
HETATM   32  C6  UNL     1      -3.966 -10.740  24.589  1.00  0.00    -0.060 C 
BRANCH  32  33
HETATM   33  C5  UNL     1      -4.025 -11.517  23.380  1.00  0.00     0.033 A 
HETATM   34  C4  UNL     1      -4.974 -12.496  23.152  1.00  0.00     0.026 A 
HETATM   35  C3  UNL     1      -5.017 -13.231  21.991  1.00  0.00     0.050 A 
HETATM   36  C2  UNL     1      -4.091 -13.008  20.999  1.00  0.00     0.100 A 
HETATM   37  N5  UNL     1      -3.166 -12.061  21.213  1.00  0.00    -0.351 N 
HETATM   38  C30 UNL     1      -3.117 -11.340  22.339  1.00  0.00     0.110 A 
ATOM     39  H5  UNL     1      -2.471 -11.883  20.488  1.00  0.00     0.166 HD
BRANCH  36  40
HETATM   40  N1  UNL     1      -4.105 -13.692  19.883  1.00  0.00    -0.381 N 
HETATM   41  C1  UNL     1      -3.819 -13.001  18.635  1.00  0.00     0.147 C 
ATOM     42  H1  UNL     1      -4.313 -14.690  19.887  1.00  0.00     0.160 HD
ENDBRANCH  36  40
ENDBRANCH  32  33
ENDBRANCH   1  31
BRANCH   9  43
HETATM   43  O1  UNL     1      -3.398  -3.598  28.529  1.00  0.00    -0.341 OA
HETATM   44  C15 UNL     1      -3.231  -2.845  29.709  1.00  0.00     0.211 C 
ENDBRANCH   9  43
TORSDOF 7
ENDMDL
MODEL 2
REMARK VINA RESULT: 2.069293600      2.367      5.925
REMARK  7 active torsions:
REMARK  status: ('A' for Active; 'I' for Inactive)
REMARK    1  A    between atoms: N1_2  and  C2_4 
REMARK    2  A    between atoms: C5_7  and  C6_8 
REMARK    3  A    between atoms: C7_9  and  C8_10 
REMARK    4  A    between atoms: C14_18  and  O1_19 
REMARK    5  A    between atoms: C17_24  and  C18_25 
REMARK    6  A    between atoms: C21_29  and  C22_30 
REMARK    7  A    between atoms: C26_36  and  O2_37 
ROOT
HETATM    1  C8  UNL     1      -3.577  -7.154  25.978  1.00  0.00     0.053 A 
HETATM    2  C9  UNL     1      -3.463  -6.271  27.016  1.00  0.00     0.025 A 
HETATM    3  C10 UNL     1      -3.467  -4.810  26.740  1.00  0.00     0.070 C 
HETATM    4  N2  UNL     1      -3.346  -6.653  28.304  1.00  0.00    -0.357 N 
ATOM      5  H2  UNL     1      -3.265  -5.962  29.050  1.00  0.00     0.166 HD
HETATM    6  C11 UNL     1      -3.340  -7.957  28.572  1.00  0.00     0.060 A 
HETATM    7  C12 UNL     1      -3.224  -8.405  29.866  1.00  0.00     0.036 A 
HETATM    8  C13 UNL     1      -3.227  -9.767  30.079  1.00  0.00     0.058 A 
HETATM    9  C14 UNL     1      -3.342 -10.660  29.032  1.00  0.00     0.142 A 
HETATM   10  N3  UNL     1      -3.455 -10.215  27.768  1.00  0.00    -0.334 N 
ATOM     11  H3  UNL     1      -3.540 -10.867  26.989  1.00  0.00     0.168 HD
HETATM   12  C16 UNL     1      -3.453  -8.897  27.560  1.00  0.00     0.073 A 
HETATM   13  C17 UNL     1      -3.574  -8.491  26.226  1.00  0.00     0.024 A 
ENDROOT
BRANCH  13  14
HETATM   14  C18 UNL     1      -3.692  -9.429  25.138  1.00  0.00    -0.016 A 
HETATM   15  C19 UNL     1      -2.678  -9.470  24.186  1.00  0.00     0.055 A 
HETATM   16  C20 UNL     1      -2.740 -10.347  23.127  1.00  0.00     0.131 A 
HETATM   17  F1  UNL     1      -1.705 -10.318  22.246  1.00  0.00    -0.205 F 
HETATM   18  C21 UNL     1      -3.806 -11.191  23.001  1.00  0.00     0.054 A 
HETATM   19  C28 UNL     1      -4.826 -11.156  23.951  1.00  0.00     0.131 A 
HETATM   20  F2  UNL     1      -5.872 -12.008  23.795  1.00  0.00    -0.205 F 
HETATM   21  C29 UNL     1      -4.754 -10.283  24.997  1.00  0.00     0.055 A 
BRANCH  18  22
HETATM   22  C22 UNL     1      -3.850 -12.104  21.875  1.00  0.00     0.016 A 
HETATM   23  C23 UNL     1      -3.685 -13.463  22.001  1.00  0.00     0.032 A 
HETATM   24  C24 UNL     1      -3.735 -14.306  20.888  1.00  0.00     0.088 A 
HETATM   25  N4  UNL     1      -3.946 -13.756  19.681  1.00  0.00    -0.373 N 
HETATM   26  C25 UNL     1      -4.114 -12.433  19.497  1.00  0.00     0.125 A 
ATOM     27  H4  UNL     1      -3.982 -14.369  18.866  1.00  0.00     0.164 HD
HETATM   28  C26 UNL     1      -4.065 -11.589  20.608  1.00  0.00     0.094 A 
BRANCH  28  29
HETATM   29  O2  UNL     1      -4.233 -10.226  20.453  1.00  0.00    -0.354 OA
HETATM   30  C27 UNL     1      -3.268  -9.499  19.736  1.00  0.00     0.210 C 
ENDBRANCH  28  29
ENDBRANCH  18  22
ENDBRANCH  13  14
BRANCH   1  31
HETATM   31  C7  UNL     1      -3.704  -6.719  24.593  1.00  0.00    -0.058 C 
HETATM   32  C6  UNL     1      -3.820  -6.377  23.441  1.00  0.00    -0.060 C 
BRANCH  32  33
HETATM   33  C5  UNL     1      -3.966  -5.993  22.063  1.00  0.00     0.033 A 
HETATM   34  C4  UNL     1      -3.021  -5.255  21.376  1.00  0.00     0.026 A 
HETATM   35  C3  UNL     1      -3.175  -4.895  20.058  1.00  0.00     0.050 A 
HETATM   36  C2  UNL     1      -4.304  -5.269  19.369  1.00  0.00     0.100 A 
HETATM   37  N5  UNL     1      -5.227  -5.985  20.028  1.00  0.00    -0.351 N 
HETATM   38  C30 UNL     1      -5.085  -6.341  21.310  1.00  0.00     0.110 A 
ATOM     39  H5  UNL     1      -6.071  -6.271  19.532  1.00  0.00     0.166 HD
BRANCH  36  40
HETATM   40  N1  UNL     1      -4.480  -4.942  18.113  1.00  0.00    -0.381 N 
HETATM   41  C1  UNL     1      -5.377  -5.748  17.299  1.00  0.00     0.147 C 
ATOM     42  H1  UNL     1      -3.998  -4.138  17.713  1.00  0.00     0.160 HD
ENDBRANCH  36  40
ENDBRANCH  32  33
ENDBRANCH   1  31
BRANCH   9  43
HETATM   43  O1  UNL     1      -3.338 -12.029  29.332  1.00  0.00    -0.341 OA
HETATM   44  C15 UNL     1      -4.357 -12.518  30.175  1.00  0.00     0.211 C 
ENDBRANCH   9  43
TORSDOF 7
ENDMDL
MODEL 3
REMARK VINA RESULT: 2.461970180      0.712      1.423
REMARK  7 active torsions:
REMARK  status: ('A' for Active; 'I' for Inactive)
REMARK    1  A    between atoms: N1_2  and  C2_4 
REMARK    2  A    between atoms: C5_7  and  C6_8 
REMARK    3  A    between atoms: C7_9  and  C8_10 
REMARK    4  A    between atoms: C14_18  and  O1_19 
REMARK    5  A    between atoms: C17_24  and  C18_25 
REMARK    6  A    between atoms: C21_29  and  C22_30 
REMARK    7  A    between atoms: C26_36  and  O2_37 
ROOT
HETATM    1  C8  UNL     1      -4.022  -9.254  26.802  1.00  0.00     0.053 A 
HETATM    2  C9  UNL     1      -4.188  -9.767  28.058  1.00  0.00     0.025 A 
HETATM    3  C10 UNL     1      -4.430 -11.225  28.229  1.00  0.00     0.070 C 
HETATM    4  N2  UNL     1      -4.144  -9.017  29.177  1.00  0.00    -0.357 N 
ATOM      5  H2  UNL     1      -4.271  -9.438  30.097  1.00  0.00     0.166 HD
HETATM    6  C11 UNL     1      -3.929  -7.709  29.046  1.00  0.00     0.060 A 
HETATM    7  C12 UNL     1      -3.873  -6.894  30.151  1.00  0.00     0.036 A 
HETATM    8  C13 UNL     1      -3.645  -5.549  29.950  1.00  0.00     0.058 A 
HETATM    9  C14 UNL     1      -3.477  -5.029  28.682  1.00  0.00     0.142 A 
HETATM   10  N3  UNL     1      -3.533  -5.832  27.604  1.00  0.00    -0.334 N 
ATOM     11  H3  UNL     1      -3.410  -5.456  26.664  1.00  0.00     0.168 HD
HETATM   12  C16 UNL     1      -3.753  -7.134  27.797  1.00  0.00     0.073 A 
HETATM   13  C17 UNL     1      -3.801  -7.921  26.641  1.00  0.00     0.024 A 
ENDROOT
BRANCH  13  14
HETATM   14  C18 UNL     1      -3.625  -7.371  25.321  1.00  0.00    -0.016 A 
HETATM   15  C19 UNL     1      -2.382  -6.846  24.983  1.00  0.00     0.055 A 
HETATM   16  C20 UNL     1      -2.160  -6.308  23.735  1.00  0.00     0.131 A 
HETATM   17  F1  UNL     1      -0.915  -5.818  23.492  1.00  0.00    -0.205 F 
HETATM   18  C21 UNL     1      -3.165  -6.285  22.812  1.00  0.00     0.054 A 
HETATM   19  C28 UNL     1      -4.414  -6.811  23.143  1.00  0.00     0.131 A 
HETATM   20  F2  UNL     1      -5.392  -6.772  22.202  1.00  0.00    -0.205 F 
HETATM   21  C29 UNL     1      -4.624  -7.341  24.382  1.00  0.00     0.055 A 
BRANCH  18  22
HETATM   22  C22 UNL     1      -2.907  -5.712  21.505  1.00  0.00     0.016 A 
HETATM   23  C23 UNL     1      -3.073  -4.377  21.223  1.00  0.00     0.032 A 
HETATM   24  C24 UNL     1      -2.812  -3.867  19.948  1.00  0.00     0.088 A 
HETATM   25  N4  UNL     1      -2.393  -4.717  18.995  1.00  0.00    -0.373 N 
HETATM   26  C25 UNL     1      -2.213  -6.033  19.214  1.00  0.00     0.125 A 
ATOM     27  H4  UNL     1      -2.203  -4.348  18.064  1.00  0.00     0.164 HD
HETATM   28  C26 UNL     1      -2.473  -6.544  20.488  1.00  0.00     0.094 A 
BRANCH  28  29
HETATM   29  O2  UNL     1      -2.298  -7.891  20.744  1.00  0.00    -0.354 OA
HETATM   30  C27 UNL     1      -0.992  -8.401  20.836  1.00  0.00     0.210 C 
ENDBRANCH  28  29
ENDBRANCH  18  22
ENDBRANCH  13  14
BRANCH   1  31
HETATM   31  C7  UNL     1      -4.071 -10.084  25.606  1.00  0.00    -0.058 C 
HETATM   32  C6  UNL     1      -4.106 -10.755  24.603  1.00  0.00    -0.060 C 
BRANCH  32  33
HETATM   33  C5  UNL     1      -4.144 -11.534  23.394  1.00  0.00     0.033 A 
HETATM   34  C4  UNL     1      -5.037 -12.568  23.185  1.00  0.00     0.026 A 
HETATM   35  C3  UNL     1      -5.061 -13.304  22.024  1.00  0.00     0.050 A 
HETATM   36  C2  UNL     1      -4.174 -13.024  21.012  1.00  0.00     0.100 A 
HETATM   37  N5  UNL     1      -3.303 -12.022  21.207  1.00  0.00    -0.351 N 
HETATM   38  C30 UNL     1      -3.273 -11.300  22.333  1.00  0.00     0.110 A 
ATOM     39  H5  UNL     1      -2.638 -11.801  20.466  1.00  0.00     0.166 HD
BRANCH  36  40
HETATM   40  N1  UNL     1      -4.172 -13.707  19.894  1.00  0.00    -0.381 N 
HETATM   41  C1  UNL     1      -3.734 -13.048  18.673  1.00  0.00     0.147 C 
ATOM     42  H1  UNL     1      -4.471 -14.681  19.880  1.00  0.00     0.160 HD
ENDBRANCH  36  40
ENDBRANCH  32  33
ENDBRANCH   1  31
BRANCH   9  43
HETATM   43  O1  UNL     1      -3.248  -3.652  28.561  1.00  0.00    -0.341 OA
HETATM   44  C15 UNL     1      -3.229  -2.885  29.744  1.00  0.00     0.211 C 
ENDBRANCH   9  43
TORSDOF 7
ENDMDL
MODEL 4
REMARK VINA RESULT: 2.664398082      2.715      6.066
REMARK  7 active torsions:
REMARK  status: ('A' for Active; 'I' for Inactive)
REMARK    1  A    between atoms: N1_2  and  C2_4 
REMARK    2  A    between atoms: C5_7  and  C6_8 
REMARK    3  A    between atoms: C7_9  and  C8_10 
REMARK    4  A    between atoms: C14_18  and  O1_19 
REMARK    5  A    between atoms: C17_24  and  C18_25 
REMARK    6  A    between atoms: C21_29  and  C22_30 
REMARK    7  A    between atoms: C26_36  and  O2_37 
ROOT
HETATM    1  C8  UNL     1      -2.427  -6.540  24.537  1.00  0.00     0.053 A 
HETATM    2  C9  UNL     1      -2.028  -5.514  25.349  1.00  0.00     0.025 A 
HETATM    3  C10 UNL     1      -2.148  -4.111  24.871  1.00  0.00     0.070 C 
HETATM    4  N2  UNL     1      -1.524  -5.702  26.586  1.00  0.00    -0.357 N 
ATOM      5  H2  UNL     1      -1.239  -4.910  27.162  1.00  0.00     0.166 HD
HETATM    6  C11 UNL     1      -1.409  -6.951  27.032  1.00  0.00     0.060 A 
HETATM    7  C12 UNL     1      -0.902  -7.203  28.284  1.00  0.00     0.036 A 
HETATM    8  C13 UNL     1      -0.811  -8.518  28.691  1.00  0.00     0.058 A 
HETATM    9  C14 UNL     1      -1.212  -9.554  27.872  1.00  0.00     0.142 A 
HETATM   10  N3  UNL     1      -1.707  -9.300  26.647  1.00  0.00    -0.334 N 
ATOM     11  H3  UNL     1      -2.006 -10.060  26.036  1.00  0.00     0.168 HD
HETATM   12  C16 UNL     1      -1.797  -8.029  26.253  1.00  0.00     0.073 A 
HETATM   13  C17 UNL     1      -2.320  -7.825  24.970  1.00  0.00     0.024 A 
ENDROOT
BRANCH  13  14
HETATM   14  C18 UNL     1      -2.736  -8.912  24.121  1.00  0.00    -0.016 A 
HETATM   15  C19 UNL     1      -1.926  -9.257  23.043  1.00  0.00     0.055 A 
HETATM   16  C20 UNL     1      -2.277 -10.287  22.200  1.00  0.00     0.131 A 
HETATM   17  F1  UNL     1      -1.426 -10.555  21.174  1.00  0.00    -0.205 F 
HETATM   18  C21 UNL     1      -3.430 -10.985  22.416  1.00  0.00     0.054 A 
HETATM   19  C28 UNL     1      -4.246 -10.646  23.495  1.00  0.00     0.131 A 
HETATM   20  F2  UNL     1      -5.386 -11.359  23.681  1.00  0.00    -0.205 F 
HETATM   21  C29 UNL     1      -3.890  -9.622  24.324  1.00  0.00     0.055 A 
BRANCH  18  22
HETATM   22  C22 UNL     1      -3.778 -12.065  21.513  1.00  0.00     0.016 A 
HETATM   23  C23 UNL     1      -3.923 -13.370  21.921  1.00  0.00     0.032 A 
HETATM   24  C24 UNL     1      -4.259 -14.380  21.015  1.00  0.00     0.088 A 
HETATM   25  N4  UNL     1      -4.437 -14.046  19.725  1.00  0.00    -0.373 N 
HETATM   26  C25 UNL     1      -4.307 -12.786  19.270  1.00  0.00     0.125 A 
ATOM     27  H4  UNL     1      -4.681 -14.781  19.062  1.00  0.00     0.164 HD
HETATM   28  C26 UNL     1      -3.972 -11.775  20.174  1.00  0.00     0.094 A 
BRANCH  28  29
HETATM   29  O2  UNL     1      -3.832 -10.472  19.737  1.00  0.00    -0.354 OA
HETATM   30  C27 UNL     1      -3.963 -10.196  18.366  1.00  0.00     0.210 C 
ENDBRANCH  28  29
ENDBRANCH  18  22
ENDBRANCH  13  14
BRANCH   1  31
HETATM   31  C7  UNL     1      -2.971  -6.315  23.205  1.00  0.00    -0.058 C 
HETATM   32  C6  UNL     1      -3.439  -6.142  22.105  1.00  0.00    -0.060 C 
BRANCH  32  33
HETATM   33  C5  UNL     1      -4.011  -5.955  20.799  1.00  0.00     0.033 A 
HETATM   34  C4  UNL     1      -5.298  -5.495  20.592  1.00  0.00     0.026 A 
HETATM   35  C3  UNL     1      -5.832  -5.322  19.337  1.00  0.00     0.050 A 
HETATM   36  C2  UNL     1      -5.079  -5.610  18.223  1.00  0.00     0.100 A 
HETATM   37  N5  UNL     1      -3.829  -6.058  18.414  1.00  0.00    -0.351 N 
HETATM   38  C30 UNL     1      -3.302  -6.228  19.632  1.00  0.00     0.110 A 
ATOM     39  H5  UNL     1      -3.257  -6.278  17.599  1.00  0.00     0.166 HD
BRANCH  36  40
HETATM   40  N1  UNL     1      -5.559  -5.456  17.014  1.00  0.00    -0.381 N 
HETATM   41  C1  UNL     1      -5.239  -6.452  16.002  1.00  0.00     0.147 C 
ATOM     42  H1  UNL     1      -6.145  -4.654  16.786  1.00  0.00     0.160 HD
ENDBRANCH  36  40
ENDBRANCH  32  33
ENDBRANCH   1  31
BRANCH   9  43
HETATM   43  O1  UNL     1      -1.088 -10.862  28.358  1.00  0.00    -0.341 OA
HETATM   44  C15 UNL     1      -2.272 -11.567  28.653  1.00  0.00     0.211 C 
ENDBRANCH   9  43
TORSDOF 7
ENDMDL
MODEL 5
REMARK VINA RESULT: 3.121464524      2.382      5.839
REMARK  7 active torsions:
REMARK  status: ('A' for Active; 'I' for Inactive)
REMARK    1  A    between atoms: N1_2  and  C2_4 
REMARK    2  A    between atoms: C5_7  and  C6_8 
REMARK    3  A    between atoms: C7_9  and  C8_10 
REMARK    4  A    between atoms: C14_18  and  O1_19 
REMARK    5  A    between atoms: C17_24  and  C18_25 
REMARK    6  A    between atoms: C21_29  and  C22_30 
REMARK    7  A    between atoms: C26_36  and  O2_37 
ROOT
HETATM    1  C8  UNL     1      -3.697  -7.032  25.793  1.00  0.00     0.053 A 
HETATM    2  C9  UNL     1      -3.691  -6.137  26.827  1.00  0.00     0.025 A 
HETATM    3  C10 UNL     1      -3.847  -4.686  26.541  1.00  0.00     0.070 C 
HETATM    4  N2  UNL     1      -3.551  -6.498  28.118  1.00  0.00    -0.357 N 
ATOM      5  H2  UNL     1      -3.553  -5.800  28.862  1.00  0.00     0.166 HD
HETATM    6  C11 UNL     1      -3.409  -7.793  28.395  1.00  0.00     0.060 A 
HETATM    7  C12 UNL     1      -3.263  -8.220  29.692  1.00  0.00     0.036 A 
HETATM    8  C13 UNL     1      -3.123  -9.574  29.915  1.00  0.00     0.058 A 
HETATM    9  C14 UNL     1      -3.129 -10.479  28.872  1.00  0.00     0.142 A 
HETATM   10  N3  UNL     1      -3.272 -10.054  27.604  1.00  0.00    -0.334 N 
ATOM     11  H3  UNL     1      -3.278 -10.716  26.828  1.00  0.00     0.168 HD
HETATM   12  C16 UNL     1      -3.408  -8.745  27.387  1.00  0.00     0.073 A 
HETATM   13  C17 UNL     1      -3.554  -8.361  26.049  1.00  0.00     0.024 A 
ENDROOT
BRANCH  13  14
HETATM   14  C18 UNL     1      -3.558  -9.311  24.966  1.00  0.00    -0.016 A 
HETATM   15  C19 UNL     1      -4.677 -10.122  24.801  1.00  0.00     0.055 A 
HETATM   16  C20 UNL     1      -4.733 -11.047  23.783  1.00  0.00     0.131 A 
HETATM   17  F1  UNL     1      -5.865 -11.795  23.697  1.00  0.00    -0.205 F 
HETATM   18  C21 UNL     1      -3.684 -11.177  22.919  1.00  0.00     0.054 A 
HETATM   19  C28 UNL     1      -2.560 -10.367  23.077  1.00  0.00     0.131 A 
HETATM   20  F2  UNL     1      -1.534 -10.522  22.202  1.00  0.00    -0.205 F 
HETATM   21  C29 UNL     1      -2.514  -9.454  24.090  1.00  0.00     0.055 A 
BRANCH  18  22
HETATM   22  C22 UNL     1      -3.767 -12.159  21.855  1.00  0.00     0.016 A 
HETATM   23  C23 UNL     1      -3.561 -13.503  22.055  1.00  0.00     0.032 A 
HETATM   24  C24 UNL     1      -3.651 -14.415  21.000  1.00  0.00     0.088 A 
HETATM   25  N4  UNL     1      -3.943 -13.946  19.775  1.00  0.00    -0.373 N 
HETATM   26  C25 UNL     1      -4.153 -12.641  19.521  1.00  0.00     0.125 A 
ATOM     27  H4  UNL     1      -4.008 -14.609  19.003  1.00  0.00     0.164 HD
HETATM   28  C26 UNL     1      -4.065 -11.728  20.574  1.00  0.00     0.094 A 
BRANCH  28  29
HETATM   29  O2  UNL     1      -4.275 -10.382  20.346  1.00  0.00    -0.354 OA
HETATM   30  C27 UNL     1      -3.258  -9.628  19.737  1.00  0.00     0.210 C 
ENDBRANCH  28  29
ENDBRANCH  18  22
ENDBRANCH  13  14
BRANCH   1  31
HETATM   31  C7  UNL     1      -3.852  -6.621  24.404  1.00  0.00    -0.058 C 
HETATM   32  C6  UNL     1      -3.987  -6.299  23.248  1.00  0.00    -0.060 C 
BRANCH  32  33
HETATM   33  C5  UNL     1      -4.151  -5.941  21.865  1.00  0.00     0.033 A 
HETATM   34  C4  UNL     1      -3.193  -5.259  21.139  1.00  0.00     0.026 A 
HETATM   35  C3  UNL     1      -3.363  -4.922  19.817  1.00  0.00     0.050 A 
HETATM   36  C2  UNL     1      -4.524  -5.264  19.163  1.00  0.00     0.100 A 
HETATM   37  N5  UNL     1      -5.459  -5.926  19.861  1.00  0.00    -0.351 N 
HETATM   38  C30 UNL     1      -5.301  -6.258  21.147  1.00  0.00     0.110 A 
ATOM     39  H5  UNL     1      -6.327  -6.187  19.392  1.00  0.00     0.166 HD
BRANCH  36  40
HETATM   40  N1  UNL     1      -4.717  -4.959  17.904  1.00  0.00    -0.381 N 
HETATM   41  C1  UNL     1      -5.344  -5.942  17.034  1.00  0.00     0.147 C 
ATOM     42  H1  UNL     1      -4.433  -4.049  17.541  1.00  0.00     0.160 HD
ENDBRANCH  36  40
ENDBRANCH  32  33
ENDBRANCH   1  31
BRANCH   9  43
HETATM   43  O1  UNL     1      -2.982 -11.838  29.180  1.00  0.00    -0.341 OA
HETATM   44  C15 UNL     1      -3.906 -12.409  30.079  1.00  0.00     0.211 C 
ENDBRANCH   9  43
TORSDOF 7
ENDMDL
