MODEL 1
REMARK VINA RESULT: 3.670401611      0.000      0.000
REMARK  7 active torsions:
REMARK  status: ('A' for Active; 'I' for Inactive)
REMARK    1  A    between atoms: N1_1  and  S1_4 
REMARK    2  A    between atoms: S1_4  and  C1_7 
REMARK    3  A    between atoms: C4_10  and  N2_11 
REMARK    4  A    between atoms: C5_14  and  C6_15 
REMARK    5  A    between atoms: C13_23  and  C14_24 
REMARK    6  A    between atoms: C18_29  and  C19_30 
REMARK    7  A    between atoms: C20_31  and  C21_32 
ROOT
HETATM    1  N2  UNL     1      -4.426  -9.077  23.550  1.00  0.00    -0.255 N 
HETATM    2  N3  UNL     1      -4.487  -8.753  24.863  1.00  0.00    -0.292 N 
ATOM      3  H3  UNL     1      -4.601  -7.804  25.219  1.00  0.00     0.187 HD
HETATM    4  C5  UNL     1      -4.378  -9.841  25.629  1.00  0.00     0.064 A 
HETATM    5  C12 UNL     1      -4.245 -10.888  24.776  1.00  0.00     0.064 A 
HETATM    6  C13 UNL     1      -4.276 -10.387  23.438  1.00  0.00     0.069 A 
ENDROOT
BRANCH   6   7
HETATM    7  C14 UNL     1      -4.107 -11.237  22.275  1.00  0.00    -0.004 A 
HETATM    8  C15 UNL     1      -3.611 -12.534  22.456  1.00  0.00     0.037 A 
HETATM    9  C16 UNL     1      -3.450 -13.437  21.444  1.00  0.00     0.036 A 
HETATM   10 CL1  UNL     1      -2.834 -15.041  21.664  1.00  0.00    -0.084 Cl
HETATM   11  C17 UNL     1      -3.803 -13.031  20.170  1.00  0.00     0.044 A 
HETATM   12  C18 UNL     1      -4.297 -11.774  19.922  1.00  0.00     0.020 A 
HETATM   13  C25 UNL     1      -4.437 -10.895  21.010  1.00  0.00     0.034 A 
BRANCH  12  14
HETATM   14  C19 UNL     1      -4.672 -11.323  18.615  1.00  0.00    -0.059 C 
HETATM   15  C20 UNL     1      -5.007 -10.955  17.495  1.00  0.00    -0.025 C 
BRANCH  15  16
HETATM   16  C21 UNL     1      -5.415 -10.540  16.182  1.00  0.00     0.161 A 
HETATM   17  N4  UNL     1      -4.523 -10.390  15.165  1.00  0.00    -0.345 N 
HETATM   18  C22 UNL     1      -4.893 -10.005  13.944  1.00  0.00     0.091 A 
ATOM     19  H4  UNL     1      -3.537 -10.579  15.343  1.00  0.00     0.167 HD
HETATM   20  C23 UNL     1      -6.207  -9.746  13.674  1.00  0.00     0.034 A 
HETATM   21  C24 UNL     1      -7.138  -9.894  14.700  1.00  0.00     0.091 A 
HETATM   22  N5  UNL     1      -6.704 -10.282  15.904  1.00  0.00    -0.345 N 
ATOM     23  H5  UNL     1      -7.389 -10.388  16.652  1.00  0.00     0.167 HD
ENDBRANCH  15  16
ENDBRANCH  12  14
ENDBRANCH   6   7
BRANCH   1  24
HETATM   24  C4  UNL     1      -4.480  -8.073  22.533  1.00  0.00     0.057 A 
HETATM   25  C3  UNL     1      -5.673  -7.457  22.153  1.00  0.00     0.033 A 
HETATM   26  C2  UNL     1      -5.710  -6.529  21.138  1.00  0.00     0.027 A 
HETATM   27  C1  UNL     1      -4.572  -6.170  20.451  1.00  0.00     0.079 A 
HETATM   28  C27 UNL     1      -3.378  -6.759  20.799  1.00  0.00     0.027 A 
HETATM   29  C26 UNL     1      -3.345  -7.685  21.814  1.00  0.00     0.033 A 
BRANCH  27  30
HETATM   30  S1  UNL     1      -4.598  -4.990  19.153  1.00  0.00     0.256 S 
HETATM   31  O1  UNL     1      -5.644  -3.951  19.359  1.00  0.00    -0.201 OA
HETATM   32  O2  UNL     1      -3.257  -4.317  19.063  1.00  0.00    -0.201 OA
BRANCH  30  33
HETATM   33  N1  UNL     1      -4.887  -5.761  17.638  1.00  0.00    -0.324 N 
ATOM     34  H12 UNL     1      -4.936  -6.769  17.494  1.00  0.00     0.169 HD
ATOM     35  H11 UNL     1      -4.996  -5.040  16.926  1.00  0.00     0.169 HD
ENDBRANCH  30  33
ENDBRANCH  27  30
ENDBRANCH   1  24
BRANCH   4  36
HETATM   36  C6  UNL     1      -4.401  -9.879  27.087  1.00  0.00     0.031 A 
HETATM   37  C7  UNL     1      -5.529  -9.354  27.733  1.00  0.00     0.017 A 
HETATM   38  C8  UNL     1      -5.673  -9.330  29.100  1.00  0.00     0.001 A 
HETATM   39  C9  UNL     1      -4.672  -9.842  29.894  1.00  0.00     0.003 A 
HETATM   40  C10 UNL     1      -3.558 -10.361  29.293  1.00  0.00     0.043 A 
HETATM   41  C11 UNL     1      -3.428 -10.377  27.893  1.00  0.00     0.129 A 
HETATM   42  F1  UNL     1      -2.308 -10.901  27.341  1.00  0.00    -0.205 F 
ENDBRANCH   4  36
TORSDOF 7
ENDMDL
MODEL 2
REMARK VINA RESULT: 3.975909390      0.948      1.263
REMARK  7 active torsions:
REMARK  status: ('A' for Active; 'I' for Inactive)
REMARK    1  A    between atoms: N1_1  and  S1_4 
REMARK    2  A    between atoms: S1_4  and  C1_7 
REMARK    3  A    between atoms: C4_10  and  N2_11 
REMARK    4  A    between atoms: C5_14  and  C6_15 
REMARK    5  A    between atoms: C13_23  and  C14_24 
REMARK    6  A    between atoms: C18_29  and  C19_30 
REMARK    7  A    between atoms: C20_31  and  C21_32 
ROOT
HETATM    1  N2  UNL     1      -4.251  -9.110  23.455  1.00  0.00    -0.255 N 
HETATM    2  N3  UNL     1      -4.205  -8.844  24.782  1.00  0.00    -0.292 N 
ATOM      3  H3  UNL     1      -4.281  -7.911  25.188  1.00  0.00     0.187 HD
HETATM    4  C5  UNL     1      -4.047  -9.966  25.488  1.00  0.00     0.064 A 
HETATM    5  C12 UNL     1      -3.993 -10.974  24.582  1.00  0.00     0.064 A 
HETATM    6  C13 UNL     1      -4.124 -10.414  23.274  1.00  0.00     0.069 A 
ENDROOT
BRANCH   6   7
HETATM    7  C14 UNL     1      -4.057 -11.211  22.064  1.00  0.00    -0.004 A 
HETATM    8  C15 UNL     1      -3.688 -12.559  22.168  1.00  0.00     0.037 A 
HETATM    9  C16 UNL     1      -3.632 -13.417  21.107  1.00  0.00     0.036 A 
HETATM   10 CL1  UNL     1      -3.174 -15.084  21.230  1.00  0.00    -0.084 Cl
HETATM   11  C17 UNL     1      -3.961 -12.911  19.862  1.00  0.00     0.044 A 
HETATM   12  C18 UNL     1      -4.331 -11.599  19.690  1.00  0.00     0.020 A 
HETATM   13  C25 UNL     1      -4.369 -10.771  20.826  1.00  0.00     0.034 A 
BRANCH  12  14
HETATM   14  C19 UNL     1      -4.678 -11.044  18.417  1.00  0.00    -0.059 C 
HETATM   15  C20 UNL     1      -4.996 -10.575  17.330  1.00  0.00    -0.025 C 
BRANCH  15  16
HETATM   16  C21 UNL     1      -5.391 -10.032  16.060  1.00  0.00     0.161 A 
HETATM   17  N4  UNL     1      -5.717 -10.829  15.006  1.00  0.00    -0.345 N 
HETATM   18  C22 UNL     1      -6.084 -10.334  13.825  1.00  0.00     0.091 A 
ATOM     19  H4  UNL     1      -5.679 -11.841  15.125  1.00  0.00     0.167 HD
HETATM   20  C23 UNL     1      -6.145  -8.982  13.636  1.00  0.00     0.034 A 
HETATM   21  C24 UNL     1      -5.815  -8.146  14.702  1.00  0.00     0.091 A 
HETATM   22  N5  UNL     1      -5.454  -8.705  15.862  1.00  0.00    -0.345 N 
ATOM     23  H5  UNL     1      -5.213  -8.089  16.639  1.00  0.00     0.167 HD
ENDBRANCH  15  16
ENDBRANCH  12  14
ENDBRANCH   6   7
BRANCH   1  24
HETATM   24  C4  UNL     1      -4.374  -8.060  22.491  1.00  0.00     0.057 A 
HETATM   25  C3  UNL     1      -5.605  -7.491  22.158  1.00  0.00     0.033 A 
HETATM   26  C2  UNL     1      -5.708  -6.518  21.192  1.00  0.00     0.027 A 
HETATM   27  C1  UNL     1      -4.601  -6.064  20.509  1.00  0.00     0.079 A 
HETATM   28  C27 UNL     1      -3.372  -6.604  20.812  1.00  0.00     0.027 A 
HETATM   29  C26 UNL     1      -3.274  -7.576  21.778  1.00  0.00     0.033 A 
BRANCH  27  30
HETATM   30  S1  UNL     1      -4.711  -4.824  19.274  1.00  0.00     0.256 S 
HETATM   31  O1  UNL     1      -5.768  -3.821  19.576  1.00  0.00    -0.201 OA
HETATM   32  O2  UNL     1      -3.390  -4.116  19.157  1.00  0.00    -0.201 OA
BRANCH  30  33
HETATM   33  N1  UNL     1      -5.051  -5.528  17.736  1.00  0.00    -0.324 N 
ATOM     34  H12 UNL     1      -5.221  -5.005  16.878  1.00  0.00     0.169 HD
ATOM     35  H11 UNL     1      -5.052  -6.542  17.840  1.00  0.00     0.169 HD
ENDBRANCH  30  33
ENDBRANCH  27  30
ENDBRANCH   1  24
BRANCH   4  36
HETATM   36  C6  UNL     1      -3.956 -10.069  26.940  1.00  0.00     0.031 A 
HETATM   37  C7  UNL     1      -2.785 -10.618  27.481  1.00  0.00     0.017 A 
HETATM   38  C8  UNL     1      -2.576 -10.769  28.831  1.00  0.00     0.001 A 
HETATM   39  C9  UNL     1      -3.551 -10.370  29.715  1.00  0.00     0.003 A 
HETATM   40  C10 UNL     1      -4.707  -9.831  29.218  1.00  0.00     0.043 A 
HETATM   41  C11 UNL     1      -4.904  -9.683  27.834  1.00  0.00     0.129 A 
HETATM   42  F1  UNL     1      -6.062  -9.145  27.386  1.00  0.00    -0.205 F 
ENDBRANCH   4  36
TORSDOF 7
ENDMDL
MODEL 3
REMARK VINA RESULT: 5.614321676      1.779      1.995
REMARK  7 active torsions:
REMARK  status: ('A' for Active; 'I' for Inactive)
REMARK    1  A    between atoms: N1_1  and  S1_4 
REMARK    2  A    between atoms: S1_4  and  C1_7 
REMARK    3  A    between atoms: C4_10  and  N2_11 
REMARK    4  A    between atoms: C5_14  and  C6_15 
REMARK    5  A    between atoms: C13_23  and  C14_24 
REMARK    6  A    between atoms: C18_29  and  C19_30 
REMARK    7  A    between atoms: C20_31  and  C21_32 
ROOT
HETATM    1  N2  UNL     1      -3.315  -8.479  23.071  1.00  0.00    -0.255 N 
HETATM    2  N3  UNL     1      -2.767  -7.969  24.198  1.00  0.00    -0.292 N 
ATOM      3  H3  UNL     1      -2.692  -6.973  24.405  1.00  0.00     0.187 HD
HETATM    4  C5  UNL     1      -2.337  -8.944  25.003  1.00  0.00     0.064 A 
HETATM    5  C12 UNL     1      -2.623 -10.108  24.368  1.00  0.00     0.064 A 
HETATM    6  C13 UNL     1      -3.253  -9.800  23.123  1.00  0.00     0.069 A 
ENDROOT
BRANCH   6   7
HETATM    7  C14 UNL     1      -3.646 -10.816  22.166  1.00  0.00    -0.004 A 
HETATM    8  C15 UNL     1      -3.769 -12.141  22.605  1.00  0.00     0.037 A 
HETATM    9  C16 UNL     1      -4.173 -13.173  21.807  1.00  0.00     0.036 A 
HETATM   10 CL1  UNL     1      -4.324 -14.814  22.346  1.00  0.00    -0.084 Cl
HETATM   11  C17 UNL     1      -4.474 -12.878  20.490  1.00  0.00     0.044 A 
HETATM   12  C18 UNL     1      -4.376 -11.601  19.995  1.00  0.00     0.020 A 
HETATM   13  C25 UNL     1      -3.955 -10.585  20.871  1.00  0.00     0.034 A 
BRANCH  12  14
HETATM   14  C19 UNL     1      -4.681 -11.261  18.638  1.00  0.00    -0.059 C 
HETATM   15  C20 UNL     1      -4.963 -10.970  17.481  1.00  0.00    -0.025 C 
BRANCH  15  16
HETATM   16  C21 UNL     1      -5.316 -10.625  16.132  1.00  0.00     0.161 A 
HETATM   17  N4  UNL     1      -6.596 -10.325  15.778  1.00  0.00    -0.345 N 
HETATM   18  C22 UNL     1      -6.933 -10.004  14.529  1.00  0.00     0.091 A 
ATOM     19  H4  UNL     1      -7.323 -10.346  16.493  1.00  0.00     0.167 HD
HETATM   20  C23 UNL     1      -5.982  -9.966  13.550  1.00  0.00     0.034 A 
HETATM   21  C24 UNL     1      -4.665 -10.269  13.889  1.00  0.00     0.091 A 
HETATM   22  N5  UNL     1      -4.390 -10.584  15.160  1.00  0.00    -0.345 N 
ATOM     23  H5  UNL     1      -3.425 -10.806  15.403  1.00  0.00     0.167 HD
ENDBRANCH  15  16
ENDBRANCH  12  14
ENDBRANCH   6   7
BRANCH   1  24
HETATM   24  C4  UNL     1      -3.813  -7.628  22.035  1.00  0.00     0.057 A 
HETATM   25  C3  UNL     1      -5.140  -7.200  21.991  1.00  0.00     0.033 A 
HETATM   26  C2  UNL     1      -5.610  -6.422  20.958  1.00  0.00     0.027 A 
HETATM   27  C1  UNL     1      -4.790  -6.032  19.922  1.00  0.00     0.079 A 
HETATM   28  C27 UNL     1      -3.475  -6.437  19.934  1.00  0.00     0.027 A 
HETATM   29  C26 UNL     1      -3.011  -7.214  20.968  1.00  0.00     0.033 A 
BRANCH  27  30
HETATM   30  S1  UNL     1      -5.369  -5.041  18.596  1.00  0.00     0.256 S 
HETATM   31  O1  UNL     1      -6.828  -4.763  18.697  1.00  0.00    -0.201 OA
HETATM   32  O2  UNL     1      -4.626  -3.735  18.588  1.00  0.00    -0.201 OA
BRANCH  30  33
HETATM   33  N1  UNL     1      -5.065  -5.812  17.084  1.00  0.00    -0.324 N 
ATOM     34  H12 UNL     1      -5.686  -6.484  16.634  1.00  0.00     0.169 HD
ATOM     35  H11 UNL     1      -4.169  -5.481  16.728  1.00  0.00     0.169 HD
ENDBRANCH  30  33
ENDBRANCH  27  30
ENDBRANCH   1  24
BRANCH   4  36
HETATM   36  C6  UNL     1      -1.693  -8.773  26.301  1.00  0.00     0.031 A 
HETATM   37  C7  UNL     1      -2.110  -7.699  27.098  1.00  0.00     0.017 A 
HETATM   38  C8  UNL     1      -1.584  -7.430  28.339  1.00  0.00     0.001 A 
HETATM   39  C9  UNL     1      -0.596  -8.243  28.845  1.00  0.00     0.003 A 
HETATM   40  C10 UNL     1      -0.167  -9.301  28.091  1.00  0.00     0.043 A 
HETATM   41  C11 UNL     1      -0.717  -9.561  26.823  1.00  0.00     0.129 A 
HETATM   42  F1  UNL     1      -0.262 -10.619  26.111  1.00  0.00    -0.205 F 
ENDBRANCH   4  36
TORSDOF 7
ENDMDL
