MODEL 1
REMARK VINA RESULT: -2.089728953      0.000      0.000
REMARK  7 active torsions:
REMARK  status: ('A' for Active; 'I' for Inactive)
REMARK    1  A    between atoms: O1_2  and  C2_3 
REMARK    2  A    between atoms: N1_9  and  C8_10 
REMARK    3  A    between atoms: C10_12  and  O2_13 
REMARK    4  A    between atoms: O2_13  and  C11_14 
REMARK    5  A    between atoms: C21_29  and  C22_30 
REMARK    6  A    between atoms: C23_31  and  C24_32 
REMARK    7  A    between atoms: N5_41  and  O3_42 
ROOT
HETATM    1  C11 UNL     1      -2.732  -6.614  24.632  1.00  0.00     0.090 A 
HETATM    2  C12 UNL     1      -3.730  -6.123  25.428  1.00  0.00     0.040 A 
HETATM    3  C13 UNL     1      -3.969  -6.732  26.649  1.00  0.00     0.028 A 
HETATM    4  C14 UNL     1      -3.239  -7.811  27.086  1.00  0.00     0.072 A 
HETATM    5  C15 UNL     1      -3.500  -8.433  28.358  1.00  0.00     0.102 C 
HETATM    6  N2  UNL     1      -3.705  -8.921  29.386  1.00  0.00    -0.191 NA
HETATM    7  C16 UNL     1      -2.227  -8.325  26.302  1.00  0.00     0.066 A 
HETATM    8  N3  UNL     1      -1.374  -9.353  26.483  1.00  0.00    -0.364 N 
ATOM      9  H3  UNL     1      -1.337  -9.966  27.297  1.00  0.00     0.165 HD
HETATM   10  C17 UNL     1      -0.578  -9.429  25.399  1.00  0.00     0.089 A 
HETATM   11  C18 UNL     1      -0.948  -8.419  24.521  1.00  0.00     0.033 A 
HETATM   12  C19 UNL     1      -1.992  -7.722  25.095  1.00  0.00     0.027 A 
ENDROOT
BRANCH   1  13
HETATM   13  O2  UNL     1      -2.413  -6.107  23.437  1.00  0.00    -0.293 OA
BRANCH  13  14
HETATM   14  C10 UNL     1      -2.926  -6.140  22.197  1.00  0.00     0.150 A 
HETATM   15  C9  UNL     1      -3.099  -7.400  21.610  1.00  0.00     0.088 A 
HETATM   16  C8  UNL     1      -3.614  -7.514  20.354  1.00  0.00     0.065 A 
HETATM   17  C21 UNL     1      -3.988  -6.392  19.603  1.00  0.00     0.060 A 
HETATM   18  C20 UNL     1      -3.798  -5.178  20.228  1.00  0.00     0.113 A 
HETATM   19  N4  UNL     1      -3.286  -5.068  21.475  1.00  0.00    -0.345 N 
ATOM     20  H4  UNL     1      -3.170  -4.139  21.880  1.00  0.00     0.167 HD
BRANCH  16  21
HETATM   21  N1  UNL     1      -3.797  -8.782  19.738  1.00  0.00    -0.302 N 
HETATM   22  C6  UNL     1      -3.974  -9.944  20.429  1.00  0.00     0.072 A 
HETATM   23  C5  UNL     1      -4.124 -10.992  19.542  1.00  0.00     0.091 A 
HETATM   24  C7  UNL     1      -4.025 -10.215  21.777  1.00  0.00     0.069 A 
HETATM   25  C4  UNL     1      -4.318 -12.280  19.987  1.00  0.00     0.037 A 
HETATM   26  N5  UNL     1      -4.033 -10.445  18.311  1.00  0.00    -0.218 N 
HETATM   27  C3  UNL     1      -4.363 -12.521  21.336  1.00  0.00     0.039 A 
HETATM   28  C2  UNL     1      -4.219 -11.503  22.239  1.00  0.00     0.070 A 
HETATM   29  C30 UNL     1      -3.839  -9.124  18.449  1.00  0.00     0.222 A 
BRANCH  28  30
HETATM   30  O1  UNL     1      -4.261 -11.718  23.614  1.00  0.00    -0.356 OA
HETATM   31  C1  UNL     1      -4.271 -10.631  24.519  1.00  0.00     0.210 C 
ENDBRANCH  28  30
BRANCH  26  32
HETATM   32  O3  UNL     1      -4.128 -11.142  17.131  1.00  0.00    -0.282 OA
ATOM     33  H3  UNL     1      -4.903 -11.182  16.584  1.00  0.00     0.245 HD
ENDBRANCH  26  32
ENDBRANCH  16  21
BRANCH  17  34
HETATM   34  C22 UNL     1      -4.532  -6.516  18.278  1.00  0.00    -0.058 C 
HETATM   35  C23 UNL     1      -5.004  -6.606  17.171  1.00  0.00    -0.058 C 
BRANCH  35  36
HETATM   36  C24 UNL     1      -5.563  -6.739  15.858  1.00  0.00     0.059 A 
HETATM   37  C25 UNL     1      -5.751  -8.001  15.350  1.00  0.00     0.066 A 
HETATM   38  C26 UNL     1      -6.286  -8.143  14.091  1.00  0.00     0.117 A 
HETATM   39  F1  UNL     1      -6.475  -9.402  13.582  1.00  0.00    -0.206 F 
HETATM   40  C27 UNL     1      -6.643  -7.060  13.319  1.00  0.00     0.045 A 
HETATM   41  C28 UNL     1      -6.461  -5.791  13.814  1.00  0.00     0.047 A 
HETATM   42  C29 UNL     1      -5.923  -5.663  15.076  1.00  0.00     0.135 A 
HETATM   43  F2  UNL     1      -5.750  -4.383  15.551  1.00  0.00    -0.205 F 
ENDBRANCH  35  36
ENDBRANCH  17  34
ENDBRANCH  13  14
ENDBRANCH   1  13
TORSDOF 7
ENDMDL
MODEL 2
REMARK VINA RESULT: -1.882168443      0.685      1.575
REMARK  7 active torsions:
REMARK  status: ('A' for Active; 'I' for Inactive)
REMARK    1  A    between atoms: O1_2  and  C2_3 
REMARK    2  A    between atoms: N1_9  and  C8_10 
REMARK    3  A    between atoms: C10_12  and  O2_13 
REMARK    4  A    between atoms: O2_13  and  C11_14 
REMARK    5  A    between atoms: C21_29  and  C22_30 
REMARK    6  A    between atoms: C23_31  and  C24_32 
REMARK    7  A    between atoms: N5_41  and  O3_42 
ROOT
HETATM    1  C11 UNL     1      -2.136  -7.040  24.379  1.00  0.00     0.090 A 
HETATM    2  C12 UNL     1      -1.072  -7.897  24.335  1.00  0.00     0.040 A 
HETATM    3  C13 UNL     1      -0.893  -8.791  25.379  1.00  0.00     0.028 A 
HETATM    4  C14 UNL     1      -1.747  -8.844  26.454  1.00  0.00     0.072 A 
HETATM    5  C15 UNL     1      -1.547  -9.778  27.530  1.00  0.00     0.102 C 
HETATM    6  N2  UNL     1      -1.390 -10.540  28.387  1.00  0.00    -0.191 NA
HETATM    7  C16 UNL     1      -2.828  -7.990  26.522  1.00  0.00     0.066 A 
HETATM    8  N3  UNL     1      -3.802  -7.831  27.441  1.00  0.00    -0.364 N 
ATOM      9  H3  UNL     1      -3.903  -8.363  28.305  1.00  0.00     0.165 HD
HETATM   10  C17 UNL     1      -4.617  -6.847  27.017  1.00  0.00     0.089 A 
HETATM   11  C18 UNL     1      -4.137  -6.382  25.801  1.00  0.00     0.033 A 
HETATM   12  C19 UNL     1      -3.004  -7.107  25.489  1.00  0.00     0.027 A 
ENDROOT
BRANCH   1  13
HETATM   13  O2  UNL     1      -2.408  -6.138  23.431  1.00  0.00    -0.293 OA
BRANCH  13  14
HETATM   14  C10 UNL     1      -2.926  -6.153  22.193  1.00  0.00     0.150 A 
HETATM   15  C9  UNL     1      -3.102  -7.404  21.589  1.00  0.00     0.088 A 
HETATM   16  C8  UNL     1      -3.623  -7.499  20.333  1.00  0.00     0.065 A 
HETATM   17  C21 UNL     1      -4.000  -6.367  19.601  1.00  0.00     0.060 A 
HETATM   18  C20 UNL     1      -3.807  -5.162  20.242  1.00  0.00     0.113 A 
HETATM   19  N4  UNL     1      -3.289  -5.070  21.488  1.00  0.00    -0.345 N 
ATOM     20  H4  UNL     1      -3.171  -4.147  21.906  1.00  0.00     0.167 HD
BRANCH  16  21
HETATM   21  N1  UNL     1      -3.810  -8.758  19.700  1.00  0.00    -0.302 N 
HETATM   22  C6  UNL     1      -3.988  -9.930  20.375  1.00  0.00     0.072 A 
HETATM   23  C5  UNL     1      -4.140 -10.965  19.474  1.00  0.00     0.091 A 
HETATM   24  C7  UNL     1      -4.038 -10.219  21.720  1.00  0.00     0.069 A 
HETATM   25  C4  UNL     1      -4.338 -12.259  19.902  1.00  0.00     0.037 A 
HETATM   26  N5  UNL     1      -4.050 -10.401  18.251  1.00  0.00    -0.218 N 
HETATM   27  C3  UNL     1      -4.382 -12.518  21.247  1.00  0.00     0.039 A 
HETATM   28  C2  UNL     1      -4.235 -11.513  22.164  1.00  0.00     0.070 A 
HETATM   29  C30 UNL     1      -3.853  -9.083  18.406  1.00  0.00     0.222 A 
BRANCH  28  30
HETATM   30  O1  UNL     1      -4.276 -11.747  23.536  1.00  0.00    -0.356 OA
HETATM   31  C1  UNL     1      -4.111 -10.687  24.458  1.00  0.00     0.210 C 
ENDBRANCH  28  30
BRANCH  26  32
HETATM   32  O3  UNL     1      -4.148 -11.082  17.062  1.00  0.00    -0.282 OA
ATOM     33  H3  UNL     1      -4.695 -10.823  16.330  1.00  0.00     0.245 HD
ENDBRANCH  26  32
ENDBRANCH  16  21
BRANCH  17  34
HETATM   34  C22 UNL     1      -4.550  -6.472  18.276  1.00  0.00    -0.058 C 
HETATM   35  C23 UNL     1      -5.028  -6.547  17.170  1.00  0.00    -0.058 C 
BRANCH  35  36
HETATM   36  C24 UNL     1      -5.592  -6.661  15.858  1.00  0.00     0.059 A 
HETATM   37  C25 UNL     1      -5.755  -7.915  15.322  1.00  0.00     0.066 A 
HETATM   38  C26 UNL     1      -6.296  -8.039  14.063  1.00  0.00     0.117 A 
HETATM   39  F1  UNL     1      -6.460  -9.290  13.526  1.00  0.00    -0.206 F 
HETATM   40  C27 UNL     1      -6.682  -6.947  13.319  1.00  0.00     0.045 A 
HETATM   41  C28 UNL     1      -6.525  -5.686  13.843  1.00  0.00     0.047 A 
HETATM   42  C29 UNL     1      -5.982  -5.575  15.104  1.00  0.00     0.135 A 
HETATM   43  F2  UNL     1      -5.835  -4.303  15.608  1.00  0.00    -0.205 F 
ENDBRANCH  35  36
ENDBRANCH  17  34
ENDBRANCH  13  14
ENDBRANCH   1  13
TORSDOF 7
ENDMDL
MODEL 3
REMARK VINA RESULT: -0.924183128      0.681      1.346
REMARK  7 active torsions:
REMARK  status: ('A' for Active; 'I' for Inactive)
REMARK    1  A    between atoms: O1_2  and  C2_3 
REMARK    2  A    between atoms: N1_9  and  C8_10 
REMARK    3  A    between atoms: C10_12  and  O2_13 
REMARK    4  A    between atoms: O2_13  and  C11_14 
REMARK    5  A    between atoms: C21_29  and  C22_30 
REMARK    6  A    between atoms: C23_31  and  C24_32 
REMARK    7  A    between atoms: N5_41  and  O3_42 
ROOT
HETATM    1  C11 UNL     1      -2.618  -6.596  24.845  1.00  0.00     0.090 A 
HETATM    2  C12 UNL     1      -3.556  -6.126  25.722  1.00  0.00     0.040 A 
HETATM    3  C13 UNL     1      -3.734  -6.790  26.926  1.00  0.00     0.028 A 
HETATM    4  C14 UNL     1      -3.003  -7.902  27.266  1.00  0.00     0.072 A 
HETATM    5  C15 UNL     1      -3.201  -8.580  28.520  1.00  0.00     0.102 C 
HETATM    6  N2  UNL     1      -3.354  -9.114  29.534  1.00  0.00    -0.191 NA
HETATM    7  C16 UNL     1      -2.052  -8.396  26.398  1.00  0.00     0.066 A 
HETATM    8  N3  UNL     1      -1.211  -9.447  26.477  1.00  0.00    -0.364 N 
ATOM      9  H3  UNL     1      -1.140 -10.100  27.257  1.00  0.00     0.165 HD
HETATM   10  C17 UNL     1      -0.483  -9.485  25.345  1.00  0.00     0.089 A 
HETATM   11  C18 UNL     1      -0.883  -8.427  24.540  1.00  0.00     0.033 A 
HETATM   12  C19 UNL     1      -1.875  -7.739  25.209  1.00  0.00     0.027 A 
ENDROOT
BRANCH   1  13
HETATM   13  O2  UNL     1      -2.360  -6.038  23.659  1.00  0.00    -0.293 OA
BRANCH  13  14
HETATM   14  C10 UNL     1      -2.855  -6.124  22.414  1.00  0.00     0.150 A 
HETATM   15  C9  UNL     1      -3.021  -7.407  21.879  1.00  0.00     0.088 A 
HETATM   16  C8  UNL     1      -3.519  -7.574  20.621  1.00  0.00     0.065 A 
HETATM   17  C21 UNL     1      -3.881  -6.485  19.818  1.00  0.00     0.060 A 
HETATM   18  C20 UNL     1      -3.698  -5.245  20.393  1.00  0.00     0.113 A 
HETATM   19  N4  UNL     1      -3.204  -5.083  21.641  1.00  0.00    -0.345 N 
ATOM     20  H4  UNL     1      -3.092  -4.138  22.008  1.00  0.00     0.167 HD
BRANCH  16  21
HETATM   21  N1  UNL     1      -3.695  -8.867  20.058  1.00  0.00    -0.302 N 
HETATM   22  C6  UNL     1      -3.944  -9.989  20.792  1.00  0.00     0.072 A 
HETATM   23  C5  UNL     1      -4.063 -11.077  19.949  1.00  0.00     0.091 A 
HETATM   24  C7  UNL     1      -4.085 -10.190  22.146  1.00  0.00     0.069 A 
HETATM   25  C4  UNL     1      -4.318 -12.337  20.444  1.00  0.00     0.037 A 
HETATM   26  N5  UNL     1      -3.882 -10.594  18.701  1.00  0.00    -0.218 N 
HETATM   27  C3  UNL     1      -4.452 -12.508  21.797  1.00  0.00     0.039 A 
HETATM   28  C2  UNL     1      -4.339 -11.449  22.657  1.00  0.00     0.070 A 
HETATM   29  C30 UNL     1      -3.665  -9.273  18.786  1.00  0.00     0.222 A 
BRANCH  28  30
HETATM   30  O1  UNL     1      -4.472 -11.594  24.035  1.00  0.00    -0.356 OA
HETATM   31  C1  UNL     1      -4.446 -10.467  24.889  1.00  0.00     0.210 C 
ENDBRANCH  28  30
BRANCH  26  32
HETATM   32  O3  UNL     1      -3.922 -11.348  17.554  1.00  0.00    -0.282 OA
ATOM     33  H3  UNL     1      -3.282 -11.306  16.853  1.00  0.00     0.245 HD
ENDBRANCH  26  32
ENDBRANCH  16  21
BRANCH  17  34
HETATM   34  C22 UNL     1      -4.406  -6.666  18.492  1.00  0.00    -0.058 C 
HETATM   35  C23 UNL     1      -4.855  -6.797  17.379  1.00  0.00    -0.058 C 
BRANCH  35  36
HETATM   36  C24 UNL     1      -5.397  -6.977  16.065  1.00  0.00     0.059 A 
HETATM   37  C25 UNL     1      -5.704  -5.862  15.324  1.00  0.00     0.066 A 
HETATM   38  C26 UNL     1      -6.226  -6.020  14.061  1.00  0.00     0.117 A 
HETATM   39  F1  UNL     1      -6.533  -4.909  13.320  1.00  0.00    -0.206 F 
HETATM   40  C27 UNL     1      -6.451  -7.262  13.511  1.00  0.00     0.045 A 
HETATM   41  C28 UNL     1      -6.149  -8.387  14.240  1.00  0.00     0.047 A 
HETATM   42  C29 UNL     1      -5.627  -8.215  15.504  1.00  0.00     0.135 A 
HETATM   43  F2  UNL     1      -5.331  -9.355  16.216  1.00  0.00    -0.205 F 
ENDBRANCH  35  36
ENDBRANCH  17  34
ENDBRANCH  13  14
ENDBRANCH   1  13
TORSDOF 7
ENDMDL
MODEL 4
REMARK VINA RESULT: -0.670745703      0.931      2.040
REMARK  7 active torsions:
REMARK  status: ('A' for Active; 'I' for Inactive)
REMARK    1  A    between atoms: O1_2  and  C2_3 
REMARK    2  A    between atoms: N1_9  and  C8_10 
REMARK    3  A    between atoms: C10_12  and  O2_13 
REMARK    4  A    between atoms: O2_13  and  C11_14 
REMARK    5  A    between atoms: C21_29  and  C22_30 
REMARK    6  A    between atoms: C23_31  and  C24_32 
REMARK    7  A    between atoms: N5_41  and  O3_42 
ROOT
HETATM    1  C11 UNL     1      -1.998  -7.031  24.309  1.00  0.00     0.090 A 
HETATM    2  C12 UNL     1      -0.997  -7.960  24.382  1.00  0.00     0.040 A 
HETATM    3  C13 UNL     1      -0.923  -8.773  25.502  1.00  0.00     0.028 A 
HETATM    4  C14 UNL     1      -1.820  -8.677  26.539  1.00  0.00     0.072 A 
HETATM    5  C15 UNL     1      -1.728  -9.530  27.695  1.00  0.00     0.102 C 
HETATM    6  N2  UNL     1      -1.660 -10.225  28.616  1.00  0.00    -0.191 NA
HETATM    7  C16 UNL     1      -2.838  -7.749  26.489  1.00  0.00     0.066 A 
HETATM    8  N3  UNL     1      -3.833  -7.447  27.348  1.00  0.00    -0.364 N 
ATOM      9  H3  UNL     1      -4.005  -7.896  28.247  1.00  0.00     0.165 HD
HETATM   10  C17 UNL     1      -4.559  -6.449  26.810  1.00  0.00     0.089 A 
HETATM   11  C18 UNL     1      -3.999  -6.121  25.583  1.00  0.00     0.033 A 
HETATM   12  C19 UNL     1      -2.910  -6.945  25.381  1.00  0.00     0.027 A 
ENDROOT
BRANCH   1  13
HETATM   13  O2  UNL     1      -2.167  -6.196  23.280  1.00  0.00    -0.293 OA
BRANCH  13  14
HETATM   14  C10 UNL     1      -2.733  -6.252  22.063  1.00  0.00     0.150 A 
HETATM   15  C9  UNL     1      -2.921  -7.522  21.504  1.00  0.00     0.088 A 
HETATM   16  C8  UNL     1      -3.489  -7.658  20.272  1.00  0.00     0.065 A 
HETATM   17  C21 UNL     1      -3.902  -6.551  19.521  1.00  0.00     0.060 A 
HETATM   18  C20 UNL     1      -3.693  -5.326  20.118  1.00  0.00     0.113 A 
HETATM   19  N4  UNL     1      -3.130  -5.193  21.340  1.00  0.00    -0.345 N 
ATOM     20  H4  UNL     1      -3.003  -4.257  21.725  1.00  0.00     0.167 HD
BRANCH  16  21
HETATM   21  N1  UNL     1      -3.690  -8.937  19.685  1.00  0.00    -0.302 N 
HETATM   22  C6  UNL     1      -3.926 -10.074  20.400  1.00  0.00     0.072 A 
HETATM   23  C5  UNL     1      -4.077 -11.141  19.537  1.00  0.00     0.091 A 
HETATM   24  C7  UNL     1      -4.031 -10.305  21.753  1.00  0.00     0.069 A 
HETATM   25  C4  UNL     1      -4.326 -12.410  20.010  1.00  0.00     0.037 A 
HETATM   26  N5  UNL     1      -3.926 -10.631  18.296  1.00  0.00    -0.218 N 
HETATM   27  C3  UNL     1      -4.425 -12.612  21.362  1.00  0.00     0.039 A 
HETATM   28  C2  UNL     1      -4.281 -11.573  22.242  1.00  0.00     0.070 A 
HETATM   29  C30 UNL     1      -3.697  -9.314  18.405  1.00  0.00     0.222 A 
BRANCH  28  30
HETATM   30  O1  UNL     1      -4.377 -11.748  23.620  1.00  0.00    -0.356 OA
HETATM   31  C1  UNL     1      -4.150 -10.670  24.506  1.00  0.00     0.210 C 
ENDBRANCH  28  30
BRANCH  26  32
HETATM   32  O3  UNL     1      -4.003 -11.359  17.133  1.00  0.00    -0.282 OA
ATOM     33  H3  UNL     1      -3.341 -11.365  16.451  1.00  0.00     0.245 HD
ENDBRANCH  26  32
ENDBRANCH  16  21
BRANCH  17  34
HETATM   34  C22 UNL     1      -4.501  -6.699  18.222  1.00  0.00    -0.058 C 
HETATM   35  C23 UNL     1      -5.009  -6.803  17.133  1.00  0.00    -0.058 C 
BRANCH  35  36
HETATM   36  C24 UNL     1      -5.625  -6.949  15.847  1.00  0.00     0.059 A 
HETATM   37  C25 UNL     1      -6.069  -5.822  15.201  1.00  0.00     0.066 A 
HETATM   38  C26 UNL     1      -6.663  -5.948  13.966  1.00  0.00     0.117 A 
HETATM   39  F1  UNL     1      -7.106  -4.824  13.319  1.00  0.00    -0.206 F 
HETATM   40  C27 UNL     1      -6.826  -7.170  13.352  1.00  0.00     0.045 A 
HETATM   41  C28 UNL     1      -6.386  -8.307  13.986  1.00  0.00     0.047 A 
HETATM   42  C29 UNL     1      -5.795  -8.167  15.223  1.00  0.00     0.135 A 
HETATM   43  F2  UNL     1      -5.362  -9.319  15.839  1.00  0.00    -0.205 F 
ENDBRANCH  35  36
ENDBRANCH  17  34
ENDBRANCH  13  14
ENDBRANCH   1  13
TORSDOF 7
ENDMDL
MODEL 5
REMARK VINA RESULT: 0.143417853      2.309      4.300
REMARK  7 active torsions:
REMARK  status: ('A' for Active; 'I' for Inactive)
REMARK    1  A    between atoms: O1_2  and  C2_3 
REMARK    2  A    between atoms: N1_9  and  C8_10 
REMARK    3  A    between atoms: C10_12  and  O2_13 
REMARK    4  A    between atoms: O2_13  and  C11_14 
REMARK    5  A    between atoms: C21_29  and  C22_30 
REMARK    6  A    between atoms: C23_31  and  C24_32 
REMARK    7  A    between atoms: N5_41  and  O3_42 
ROOT
HETATM    1  C11 UNL     1      -3.626 -10.378  25.599  1.00  0.00     0.090 A 
HETATM    2  C12 UNL     1      -4.858  -9.885  25.926  1.00  0.00     0.040 A 
HETATM    3  C13 UNL     1      -4.982  -9.102  27.063  1.00  0.00     0.028 A 
HETATM    4  C14 UNL     1      -3.909  -8.805  27.869  1.00  0.00     0.072 A 
HETATM    5  C15 UNL     1      -4.055  -7.990  29.047  1.00  0.00     0.102 C 
HETATM    6  N2  UNL     1      -4.173  -7.324  29.985  1.00  0.00    -0.191 NA
HETATM    7  C16 UNL     1      -2.656  -9.290  27.560  1.00  0.00     0.066 A 
HETATM    8  N3  UNL     1      -1.458  -9.156  28.164  1.00  0.00    -0.364 N 
ATOM      9  H3  UNL     1      -1.272  -8.630  29.017  1.00  0.00     0.165 HD
HETATM   10  C17 UNL     1      -0.549  -9.840  27.442  1.00  0.00     0.089 A 
HETATM   11  C18 UNL     1      -1.202 -10.414  26.360  1.00  0.00     0.033 A 
HETATM   12  C19 UNL     1      -2.535 -10.065  26.436  1.00  0.00     0.027 A 
ENDROOT
BRANCH   1  13
HETATM   13  O2  UNL     1      -3.388 -11.143  24.528  1.00  0.00    -0.293 OA
BRANCH  13  14
HETATM   14  C10 UNL     1      -3.695 -11.111  23.222  1.00  0.00     0.150 A 
HETATM   15  C9  UNL     1      -3.670  -9.861  22.590  1.00  0.00     0.088 A 
HETATM   16  C8  UNL     1      -3.970  -9.749  21.265  1.00  0.00     0.065 A 
HETATM   17  C21 UNL     1      -4.313 -10.862  20.487  1.00  0.00     0.060 A 
HETATM   18  C20 UNL     1      -4.322 -12.066  21.158  1.00  0.00     0.113 A 
HETATM   19  N4  UNL     1      -4.024 -12.175  22.472  1.00  0.00    -0.345 N 
ATOM     20  H4  UNL     1      -4.050 -13.096  22.910  1.00  0.00     0.167 HD
BRANCH  16  21
HETATM   21  N1  UNL     1      -3.951  -8.490  20.604  1.00  0.00    -0.302 N 
HETATM   22  C6  UNL     1      -3.475  -7.343  21.166  1.00  0.00     0.072 A 
HETATM   23  C5  UNL     1      -3.597  -6.301  20.267  1.00  0.00     0.091 A 
HETATM   24  C7  UNL     1      -2.929  -7.081  22.401  1.00  0.00     0.069 A 
HETATM   25  C4  UNL     1      -3.186  -5.028  20.591  1.00  0.00     0.037 A 
HETATM   26  N5  UNL     1      -4.154  -6.838  19.160  1.00  0.00    -0.218 N 
HETATM   27  C3  UNL     1      -2.647  -4.795  21.829  1.00  0.00     0.039 A 
HETATM   28  C2  UNL     1      -2.512  -5.808  22.741  1.00  0.00     0.070 A 
HETATM   29  C30 UNL     1      -4.357  -8.146  19.380  1.00  0.00     0.222 A 
BRANCH  28  30
HETATM   30  O1  UNL     1      -1.967  -5.601  24.006  1.00  0.00    -0.356 OA
HETATM   31  C1  UNL     1      -1.798  -6.677  24.908  1.00  0.00     0.210 C 
ENDBRANCH  28  30
BRANCH  26  32
HETATM   32  O3  UNL     1      -4.451  -6.142  18.013  1.00  0.00    -0.282 OA
ATOM     33  H3  UNL     1      -4.935  -6.492  17.275  1.00  0.00     0.245 HD
ENDBRANCH  26  32
ENDBRANCH  16  21
BRANCH  17  34
HETATM   34  C22 UNL     1      -4.628 -10.738  19.090  1.00  0.00    -0.058 C 
HETATM   35  C23 UNL     1      -4.896 -10.614  17.920  1.00  0.00    -0.058 C 
BRANCH  35  36
HETATM   36  C24 UNL     1      -5.230 -10.487  16.532  1.00  0.00     0.059 A 
HETATM   37  C25 UNL     1      -6.524 -10.179  16.194  1.00  0.00     0.066 A 
HETATM   38  C26 UNL     1      -6.858 -10.055  14.865  1.00  0.00     0.117 A 
HETATM   39  F1  UNL     1      -8.150  -9.747  14.526  1.00  0.00    -0.206 F 
HETATM   40  C27 UNL     1      -5.936 -10.228  13.858  1.00  0.00     0.045 A 
HETATM   41  C28 UNL     1      -4.636 -10.537  14.180  1.00  0.00     0.047 A 
HETATM   42  C29 UNL     1      -4.315 -10.659  15.515  1.00  0.00     0.135 A 
HETATM   43  F2  UNL     1      -3.008 -10.968  15.814  1.00  0.00    -0.205 F 
ENDBRANCH  35  36
ENDBRANCH  17  34
ENDBRANCH  13  14
ENDBRANCH   1  13
TORSDOF 7
ENDMDL
