MODEL 1
REMARK VINA RESULT: 2.322466578      0.000      0.000
REMARK  4 active torsions:
REMARK  status: ('A' for Active; 'I' for Inactive)
REMARK    1  A    between atoms: C7_8  and  C8_9 
REMARK    2  A    between atoms: C9_10  and  S1_11 
REMARK    3  A    between atoms: C13_17  and  C14_18 
REMARK    4  A    between atoms: C17_25  and  C18_26 
ROOT
HETATM    1  C1  UNL     1      -7.861 -10.494  27.632  1.00  0.00     0.018 C 
HETATM    2  C2  UNL     1      -6.820  -9.877  27.758  1.00  0.00    -0.078 C 
HETATM    3  C3  UNL     1      -5.596  -9.135  27.889  1.00  0.00     0.020 A 
HETATM    4  C4  UNL     1      -5.230  -8.532  29.073  1.00  0.00     0.062 A 
HETATM    5  C5  UNL     1      -4.057  -7.817  29.195  1.00  0.00     0.118 A 
HETATM    6  F1  UNL     1      -3.715  -7.231  30.369  1.00  0.00    -0.206 F 
HETATM    7  C6  UNL     1      -3.187  -7.672  28.127  1.00  0.00     0.054 A 
HETATM    8  C7  UNL     1      -3.546  -8.271  26.945  1.00  0.00    -0.017 A 
HETATM    9  C28 UNL     1      -4.719  -8.984  26.828  1.00  0.00     0.033 A 
ENDROOT
BRANCH   8  10
HETATM   10  C8  UNL     1      -2.667  -8.139  25.798  1.00  0.00     0.035 A 
HETATM   11  C9  UNL     1      -1.530  -8.904  25.693  1.00  0.00     0.073 A 
HETATM   12  C11 UNL     1      -0.743  -8.735  24.578  1.00  0.00     0.025 A 
HETATM   13  C12 UNL     1      -1.113  -7.811  23.607  1.00  0.00     0.018 A 
HETATM   14  C13 UNL     1      -2.242  -7.029  23.675  1.00  0.00     0.033 A 
HETATM   15  C27 UNL     1      -3.027  -7.218  24.816  1.00  0.00     0.141 A 
HETATM   16  F2  UNL     1      -4.174  -6.521  24.993  1.00  0.00    -0.204 F 
BRANCH  11  17
HETATM   17  S1  UNL     1      -1.056 -10.061  26.895  1.00  0.00     0.172 S 
HETATM   18  C10 UNL     1      -2.412 -11.196  27.205  1.00  0.00     0.167 C 
HETATM   19  O1  UNL     1       0.080 -10.948  26.407  1.00  0.00    -0.223 OA
HETATM   20  O2  UNL     1      -0.684  -9.373  28.153  1.00  0.00    -0.223 OA
ENDBRANCH  11  17
BRANCH  14  21
HETATM   21  C14 UNL     1      -2.699  -6.123  22.639  1.00  0.00     0.073 A 
HETATM   22  N1  UNL     1      -2.808  -4.785  22.689  1.00  0.00    -0.299 N 
HETATM   23  N2  UNL     1      -3.326  -4.300  21.576  1.00  0.00    -0.299 N 
ATOM     24  H1  UNL     1      -2.527  -4.215  23.487  1.00  0.00     0.187 HD
HETATM   25  C15 UNL     1      -3.576  -5.320  20.750  1.00  0.00     0.061 A 
ATOM     26  H2  UNL     1      -3.505  -3.315  21.380  1.00  0.00     0.187 HD
HETATM   27  C16 UNL     1      -4.125  -5.392  19.469  1.00  0.00     0.045 A 
HETATM   28  C26 UNL     1      -3.192  -6.500  21.387  1.00  0.00     0.021 A 
HETATM   29  C17 UNL     1      -4.319  -6.559  18.787  1.00  0.00    -0.005 A 
HETATM   30  C24 UNL     1      -3.940  -7.711  19.428  1.00  0.00     0.015 A 
HETATM   31  C25 UNL     1      -3.384  -7.683  20.712  1.00  0.00     0.017 A 
BRANCH  29  32
HETATM   32  C18 UNL     1      -4.886  -6.640  17.443  1.00  0.00     0.076 A 
HETATM   33  C19 UNL     1      -5.381  -5.607  16.676  1.00  0.00     0.145 A 
HETATM   34  N3  UNL     1      -5.830  -6.084  15.473  1.00  0.00    -0.166 N 
HETATM   35  C20 UNL     1      -6.388  -5.478  14.413  1.00  0.00     0.116 A 
HETATM   36  C23 UNL     1      -5.608  -7.410  15.503  1.00  0.00     0.688 A 
HETATM   37  C21 UNL     1      -6.752  -6.209  13.319  1.00  0.00     0.036 A 
HETATM   38  C22 UNL     1      -6.531  -7.571  13.333  1.00  0.00     0.107 A 
HETATM   39  N4  UNL     1      -5.969  -8.124  14.422  1.00  0.00    -0.201 N 
ATOM     40  H4  UNL     1      -5.808  -9.130  14.428  1.00  0.00     0.183 HD
HETATM   41  N5  UNL     1      -5.045  -7.737  16.682  1.00  0.00    -0.189 N 
ATOM     42  H5  UNL     1      -4.778  -8.681  16.958  1.00  0.00     0.184 HD
ENDBRANCH  29  32
ENDBRANCH  14  21
ENDBRANCH   8  10
TORSDOF 4
ENDMDL
MODEL 2
REMARK VINA RESULT: 3.728576015      0.810      1.163
REMARK  4 active torsions:
REMARK  status: ('A' for Active; 'I' for Inactive)
REMARK    1  A    between atoms: C7_8  and  C8_9 
REMARK    2  A    between atoms: C9_10  and  S1_11 
REMARK    3  A    between atoms: C13_17  and  C14_18 
REMARK    4  A    between atoms: C17_25  and  C18_26 
ROOT
HETATM    1  C1  UNL     1      -8.002 -10.635  27.541  1.00  0.00     0.018 C 
HETATM    2  C2  UNL     1      -6.975 -10.001  27.694  1.00  0.00    -0.078 C 
HETATM    3  C3  UNL     1      -5.768  -9.238  27.855  1.00  0.00     0.020 A 
HETATM    4  C4  UNL     1      -5.445  -8.624  29.046  1.00  0.00     0.062 A 
HETATM    5  C5  UNL     1      -4.288  -7.890  29.198  1.00  0.00     0.118 A 
HETATM    6  F1  UNL     1      -3.988  -7.293  30.378  1.00  0.00    -0.206 F 
HETATM    7  C6  UNL     1      -3.390  -7.735  28.155  1.00  0.00     0.054 A 
HETATM    8  C7  UNL     1      -3.706  -8.345  26.966  1.00  0.00    -0.017 A 
HETATM    9  C28 UNL     1      -4.864  -9.078  26.819  1.00  0.00     0.033 A 
ENDROOT
BRANCH   8  10
HETATM   10  C8  UNL     1      -2.796  -8.204  25.843  1.00  0.00     0.035 A 
HETATM   11  C9  UNL     1      -1.661  -8.973  25.759  1.00  0.00     0.073 A 
HETATM   12  C11 UNL     1      -0.844  -8.795  24.667  1.00  0.00     0.025 A 
HETATM   13  C12 UNL     1      -1.185  -7.858  23.697  1.00  0.00     0.018 A 
HETATM   14  C13 UNL     1      -2.312  -7.071  23.745  1.00  0.00     0.033 A 
HETATM   15  C27 UNL     1      -3.127  -7.270  24.863  1.00  0.00     0.141 A 
HETATM   16  F2  UNL     1      -4.275  -6.570  25.018  1.00  0.00    -0.204 F 
BRANCH  11  17
HETATM   17  S1  UNL     1      -1.223 -10.146  26.959  1.00  0.00     0.172 S 
HETATM   18  C10 UNL     1       0.147 -11.139  26.358  1.00  0.00     0.167 C 
HETATM   19  O1  UNL     1      -0.689  -9.487  28.223  1.00  0.00    -0.223 OA
HETATM   20  O2  UNL     1      -2.376 -11.022  27.268  1.00  0.00    -0.223 OA
ENDBRANCH  11  17
BRANCH  14  21
HETATM   21  C14 UNL     1      -2.738  -6.152  22.708  1.00  0.00     0.073 A 
HETATM   22  N1  UNL     1      -2.820  -4.812  22.764  1.00  0.00    -0.299 N 
HETATM   23  N2  UNL     1      -3.315  -4.311  21.647  1.00  0.00    -0.299 N 
ATOM     24  H1  UNL     1      -2.535  -4.252  23.568  1.00  0.00     0.187 HD
HETATM   25  C15 UNL     1      -3.576  -5.321  20.814  1.00  0.00     0.061 A 
ATOM     26  H2  UNL     1      -3.471  -3.321  21.454  1.00  0.00     0.187 HD
HETATM   27  C16 UNL     1      -4.113  -5.376  19.526  1.00  0.00     0.045 A 
HETATM   28  C26 UNL     1      -3.225  -6.512  21.450  1.00  0.00     0.021 A 
HETATM   29  C17 UNL     1      -4.323  -6.536  18.836  1.00  0.00    -0.005 A 
HETATM   30  C24 UNL     1      -3.976  -7.698  19.476  1.00  0.00     0.015 A 
HETATM   31  C25 UNL     1      -3.435  -7.687  20.767  1.00  0.00     0.017 A 
BRANCH  29  32
HETATM   32  C18 UNL     1      -4.876  -6.599  17.486  1.00  0.00     0.076 A 
HETATM   33  C19 UNL     1      -5.054  -7.718  16.701  1.00  0.00     0.145 A 
HETATM   34  N3  UNL     1      -5.596  -7.368  15.493  1.00  0.00    -0.166 N 
HETATM   35  C20 UNL     1      -5.944  -8.090  14.417  1.00  0.00     0.116 A 
HETATM   36  C23 UNL     1      -5.750  -6.032  15.538  1.00  0.00     0.688 A 
HETATM   37  C21 UNL     1      -6.473  -7.473  13.319  1.00  0.00     0.036 A 
HETATM   38  C22 UNL     1      -6.637  -6.103  13.349  1.00  0.00     0.107 A 
HETATM   39  N4  UNL     1      -6.272  -5.431  14.454  1.00  0.00    -0.201 N 
ATOM     40  H4  UNL     1      -6.395  -4.420  14.471  1.00  0.00     0.183 HD
HETATM   41  N5  UNL     1      -5.318  -5.578  16.730  1.00  0.00    -0.189 N 
ATOM     42  H5  UNL     1      -5.324  -4.600  17.018  1.00  0.00     0.184 HD
ENDBRANCH  29  32
ENDBRANCH  14  21
ENDBRANCH   8  10
TORSDOF 4
ENDMDL
MODEL 3
REMARK VINA RESULT: 3.912212328      1.543      1.878
REMARK  4 active torsions:
REMARK  status: ('A' for Active; 'I' for Inactive)
REMARK    1  A    between atoms: C7_8  and  C8_9 
REMARK    2  A    between atoms: C9_10  and  S1_11 
REMARK    3  A    between atoms: C13_17  and  C14_18 
REMARK    4  A    between atoms: C17_25  and  C18_26 
ROOT
HETATM    1  C1  UNL     1      -5.652 -10.733  29.550  1.00  0.00     0.018 C 
HETATM    2  C2  UNL     1      -4.973  -9.841  29.080  1.00  0.00    -0.078 C 
HETATM    3  C3  UNL     1      -4.181  -8.788  28.503  1.00  0.00     0.020 A 
HETATM    4  C4  UNL     1      -4.113  -7.533  29.066  1.00  0.00     0.062 A 
HETATM    5  C5  UNL     1      -3.356  -6.523  28.510  1.00  0.00     0.118 A 
HETATM    6  F1  UNL     1      -3.302  -5.294  29.079  1.00  0.00    -0.206 F 
HETATM    7  C6  UNL     1      -2.624  -6.727  27.351  1.00  0.00     0.054 A 
HETATM    8  C7  UNL     1      -2.688  -7.976  26.785  1.00  0.00    -0.017 A 
HETATM    9  C28 UNL     1      -3.446  -8.981  27.346  1.00  0.00     0.033 A 
ENDROOT
BRANCH   8  10
HETATM   10  C8  UNL     1      -1.942  -8.232  25.567  1.00  0.00     0.035 A 
HETATM   11  C9  UNL     1      -0.870  -9.091  25.568  1.00  0.00     0.073 A 
HETATM   12  C11 UNL     1      -0.209  -9.295  24.379  1.00  0.00     0.025 A 
HETATM   13  C12 UNL     1      -0.637  -8.636  23.231  1.00  0.00     0.018 A 
HETATM   14  C13 UNL     1      -1.705  -7.771  23.189  1.00  0.00     0.033 A 
HETATM   15  C27 UNL     1      -2.362  -7.580  24.409  1.00  0.00     0.141 A 
HETATM   16  F2  UNL     1      -3.440  -6.766  24.496  1.00  0.00    -0.204 F 
BRANCH  11  17
HETATM   17  S1  UNL     1      -0.324  -9.920  26.990  1.00  0.00     0.172 S 
HETATM   18  C10 UNL     1      -1.416 -11.303  27.336  1.00  0.00     0.167 C 
HETATM   19  O1  UNL     1       1.043 -10.556  26.783  1.00  0.00    -0.223 OA
HETATM   20  O2  UNL     1      -0.306  -8.997  28.148  1.00  0.00    -0.223 OA
ENDBRANCH  11  17
BRANCH  14  21
HETATM   21  C14 UNL     1      -2.228  -7.141  21.993  1.00  0.00     0.073 A 
HETATM   22  N1  UNL     1      -2.313  -5.830  21.710  1.00  0.00    -0.299 N 
HETATM   23  N2  UNL     1      -2.909  -5.623  20.550  1.00  0.00    -0.299 N 
ATOM     24  H1  UNL     1      -1.961  -5.088  22.315  1.00  0.00     0.187 HD
HETATM   25  C15 UNL     1      -3.238  -6.808  20.031  1.00  0.00     0.061 A 
ATOM     26  H2  UNL     1      -3.088  -4.714  20.124  1.00  0.00     0.187 HD
HETATM   27  C16 UNL     1      -3.888  -7.182  18.853  1.00  0.00     0.045 A 
HETATM   28  C26 UNL     1      -2.824  -7.803  20.917  1.00  0.00     0.021 A 
HETATM   29  C17 UNL     1      -4.152  -8.476  18.505  1.00  0.00    -0.005 A 
HETATM   30  C24 UNL     1      -3.742  -9.442  19.389  1.00  0.00     0.015 A 
HETATM   31  C25 UNL     1      -3.087  -9.110  20.580  1.00  0.00     0.017 A 
BRANCH  29  32
HETATM   32  C18 UNL     1      -4.824  -8.873  17.270  1.00  0.00     0.076 A 
HETATM   33  C19 UNL     1      -5.366  -8.051  16.306  1.00  0.00     0.145 A 
HETATM   34  N3  UNL     1      -5.914  -8.799  15.298  1.00  0.00    -0.166 N 
HETATM   35  C20 UNL     1      -6.546  -8.460  14.164  1.00  0.00     0.116 A 
HETATM   36  C23 UNL     1      -5.706 -10.082  15.646  1.00  0.00     0.688 A 
HETATM   37  C21 UNL     1      -7.004  -9.431  13.319  1.00  0.00     0.036 A 
HETATM   38  C22 UNL     1      -6.799 -10.752  13.660  1.00  0.00     0.107 A 
HETATM   39  N4  UNL     1      -6.160 -11.032  14.809  1.00  0.00    -0.201 N 
ATOM     40  H4  UNL     1      -6.011 -12.009  15.057  1.00  0.00     0.183 HD
HETATM   41  N5  UNL     1      -5.056 -10.120  16.824  1.00  0.00    -0.189 N 
ATOM     42  H5  UNL     1      -4.779 -10.973  17.309  1.00  0.00     0.184 HD
ENDBRANCH  29  32
ENDBRANCH  14  21
ENDBRANCH   8  10
TORSDOF 4
ENDMDL
MODEL 4
REMARK VINA RESULT: 3.917995233      2.786      3.631
REMARK  4 active torsions:
REMARK  status: ('A' for Active; 'I' for Inactive)
REMARK    1  A    between atoms: C7_8  and  C8_9 
REMARK    2  A    between atoms: C9_10  and  S1_11 
REMARK    3  A    between atoms: C13_17  and  C14_18 
REMARK    4  A    between atoms: C17_25  and  C18_26 
ROOT
HETATM    1  C1  UNL     1      -3.514 -11.983  31.158  1.00  0.00     0.018 C 
HETATM    2  C2  UNL     1      -3.937 -11.324  30.227  1.00  0.00    -0.078 C 
HETATM    3  C3  UNL     1      -4.426 -10.559  29.113  1.00  0.00     0.020 A 
HETATM    4  C4  UNL     1      -5.770 -10.327  28.919  1.00  0.00     0.062 A 
HETATM    5  C5  UNL     1      -6.237  -9.596  27.847  1.00  0.00     0.118 A 
HETATM    6  F1  UNL     1      -7.564  -9.379  27.674  1.00  0.00    -0.206 F 
HETATM    7  C6  UNL     1      -5.371  -9.058  26.909  1.00  0.00     0.054 A 
HETATM    8  C7  UNL     1      -4.030  -9.286  27.097  1.00  0.00    -0.017 A 
HETATM    9  C28 UNL     1      -3.569 -10.017  28.170  1.00  0.00     0.033 A 
ENDROOT
BRANCH   8  10
HETATM   10  C8  UNL     1      -3.087  -8.746  26.135  1.00  0.00     0.035 A 
HETATM   11  C9  UNL     1      -2.301  -7.664  26.454  1.00  0.00     0.073 A 
HETATM   12  C11 UNL     1      -1.423  -7.205  25.500  1.00  0.00     0.025 A 
HETATM   13  C12 UNL     1      -1.358  -7.836  24.263  1.00  0.00     0.018 A 
HETATM   14  C13 UNL     1      -2.125  -8.921  23.907  1.00  0.00     0.033 A 
HETATM   15  C27 UNL     1      -3.009  -9.370  24.892  1.00  0.00     0.141 A 
HETATM   16  F2  UNL     1      -3.807 -10.442  24.672  1.00  0.00    -0.204 F 
BRANCH  11  17
HETATM   17  S1  UNL     1      -2.371  -6.866  27.992  1.00  0.00     0.172 S 
HETATM   18  C10 UNL     1      -3.247  -5.307  27.821  1.00  0.00     0.167 C 
HETATM   19  O1  UNL     1      -3.194  -7.656  29.000  1.00  0.00    -0.223 OA
HETATM   20  O2  UNL     1      -1.005  -6.617  28.506  1.00  0.00    -0.223 OA
ENDBRANCH  11  17
BRANCH  14  21
HETATM   21  C14 UNL     1      -2.016  -9.653  22.661  1.00  0.00     0.073 A 
HETATM   22  N1  UNL     1      -1.112 -10.587  22.318  1.00  0.00    -0.299 N 
HETATM   23  N2  UNL     1      -1.281 -10.989  21.072  1.00  0.00    -0.299 N 
ATOM     24  H1  UNL     1      -0.387 -10.940  22.942  1.00  0.00     0.187 HD
HETATM   25  C15 UNL     1      -2.315 -10.322  20.552  1.00  0.00     0.061 A 
ATOM     26  H2  UNL     1      -0.719 -11.689  20.588  1.00  0.00     0.187 HD
HETATM   27  C16 UNL     1      -2.918 -10.335  19.293  1.00  0.00     0.045 A 
HETATM   28  C26 UNL     1      -2.812  -9.460  21.530  1.00  0.00     0.021 A 
HETATM   29  C17 UNL     1      -3.977  -9.545  18.947  1.00  0.00    -0.005 A 
HETATM   30  C24 UNL     1      -4.452  -8.700  19.917  1.00  0.00     0.015 A 
HETATM   31  C25 UNL     1      -3.877  -8.657  21.192  1.00  0.00     0.017 A 
BRANCH  29  32
HETATM   32  C18 UNL     1      -4.617  -9.561  17.633  1.00  0.00     0.076 A 
HETATM   33  C19 UNL     1      -5.062 -10.659  16.928  1.00  0.00     0.145 A 
HETATM   34  N3  UNL     1      -5.600 -10.266  15.731  1.00  0.00    -0.166 N 
HETATM   35  C20 UNL     1      -6.152 -10.955  14.721  1.00  0.00     0.116 A 
HETATM   36  C23 UNL     1      -5.486  -8.926  15.705  1.00  0.00     0.688 A 
HETATM   37  C21 UNL     1      -6.618 -10.298  13.618  1.00  0.00     0.036 A 
HETATM   38  C22 UNL     1      -6.508  -8.924  13.574  1.00  0.00     0.107 A 
HETATM   39  N4  UNL     1      -5.948  -8.286  14.616  1.00  0.00    -0.201 N 
ATOM     40  H4  UNL     1      -5.869  -7.270  14.579  1.00  0.00     0.183 HD
HETATM   41  N5  UNL     1      -4.897  -8.511  16.842  1.00  0.00    -0.189 N 
ATOM     42  H5  UNL     1      -4.693  -7.539  17.071  1.00  0.00     0.184 HD
ENDBRANCH  29  32
ENDBRANCH  14  21
ENDBRANCH   8  10
TORSDOF 4
ENDMDL
MODEL 5
REMARK VINA RESULT: 4.226382848      1.378      1.871
REMARK  4 active torsions:
REMARK  status: ('A' for Active; 'I' for Inactive)
REMARK    1  A    between atoms: C7_8  and  C8_9 
REMARK    2  A    between atoms: C9_10  and  S1_11 
REMARK    3  A    between atoms: C13_17  and  C14_18 
REMARK    4  A    between atoms: C17_25  and  C18_26 
ROOT
HETATM    1  C1  UNL     1      -3.187 -11.136  31.168  1.00  0.00     0.018 C 
HETATM    2  C2  UNL     1      -3.613 -10.656  30.134  1.00  0.00    -0.078 C 
HETATM    3  C3  UNL     1      -4.102 -10.103  28.901  1.00  0.00     0.020 A 
HETATM    4  C4  UNL     1      -5.449  -9.996  28.632  1.00  0.00     0.062 A 
HETATM    5  C5  UNL     1      -5.917  -9.469  27.447  1.00  0.00     0.118 A 
HETATM    6  F1  UNL     1      -7.246  -9.372  27.200  1.00  0.00    -0.206 F 
HETATM    7  C6  UNL     1      -5.048  -9.020  26.465  1.00  0.00     0.054 A 
HETATM    8  C7  UNL     1      -3.705  -9.124  26.728  1.00  0.00    -0.017 A 
HETATM    9  C28 UNL     1      -3.243  -9.651  27.914  1.00  0.00     0.033 A 
ENDROOT
BRANCH   8  10
HETATM   10  C8  UNL     1      -2.758  -8.671  25.725  1.00  0.00     0.035 A 
HETATM   11  C9  UNL     1      -1.478  -9.170  25.692  1.00  0.00     0.073 A 
HETATM   12  C11 UNL     1      -0.632  -8.703  24.713  1.00  0.00     0.025 A 
HETATM   13  C12 UNL     1      -1.089  -7.758  23.801  1.00  0.00     0.018 A 
HETATM   14  C13 UNL     1      -2.361  -7.237  23.800  1.00  0.00     0.033 A 
HETATM   15  C27 UNL     1      -3.203  -7.726  24.803  1.00  0.00     0.141 A 
HETATM   16  F2  UNL     1      -4.486  -7.305  24.898  1.00  0.00    -0.204 F 
BRANCH  11  17
HETATM   17  S1  UNL     1      -0.894 -10.348  26.822  1.00  0.00     0.172 S 
HETATM   18  C10 UNL     1       0.726 -10.925  26.305  1.00  0.00     0.167 C 
HETATM   19  O1  UNL     1      -0.661  -9.743  28.199  1.00  0.00    -0.223 OA
HETATM   20  O2  UNL     1      -1.830 -11.493  26.902  1.00  0.00    -0.223 OA
ENDBRANCH  11  17
BRANCH  14  21
HETATM   21  C14 UNL     1      -2.891  -6.319  22.810  1.00  0.00     0.073 A 
HETATM   22  N1  UNL     1      -3.155  -5.009  22.945  1.00  0.00    -0.299 N 
HETATM   23  N2  UNL     1      -3.696  -4.509  21.849  1.00  0.00    -0.299 N 
ATOM     24  H1  UNL     1      -2.962  -4.467  23.788  1.00  0.00     0.187 HD
HETATM   25  C15 UNL     1      -3.804  -5.490  20.950  1.00  0.00     0.061 A 
ATOM     26  H2  UNL     1      -3.981  -3.539  21.712  1.00  0.00     0.187 HD
HETATM   27  C16 UNL     1      -4.307  -5.535  19.648  1.00  0.00     0.045 A 
HETATM   28  C26 UNL     1      -3.304  -6.661  21.521  1.00  0.00     0.021 A 
HETATM   29  C17 UNL     1      -4.347  -6.667  18.885  1.00  0.00    -0.005 A 
HETATM   30  C24 UNL     1      -3.856  -7.810  19.461  1.00  0.00     0.015 A 
HETATM   31  C25 UNL     1      -3.342  -7.809  20.763  1.00  0.00     0.017 A 
BRANCH  29  32
HETATM   32  C18 UNL     1      -4.864  -6.718  17.519  1.00  0.00     0.076 A 
HETATM   33  C19 UNL     1      -5.246  -5.658  16.725  1.00  0.00     0.145 A 
HETATM   34  N3  UNL     1      -5.683  -6.111  15.508  1.00  0.00    -0.166 N 
HETATM   35  C20 UNL     1      -6.148  -5.474  14.422  1.00  0.00     0.116 A 
HETATM   36  C23 UNL     1      -5.568  -7.450  15.558  1.00  0.00     0.688 A 
HETATM   37  C21 UNL     1      -6.525  -6.187  13.320  1.00  0.00     0.036 A 
HETATM   38  C22 UNL     1      -6.414  -7.562  13.354  1.00  0.00     0.107 A 
HETATM   39  N4  UNL     1      -5.941  -8.145  14.469  1.00  0.00    -0.201 N 
ATOM     40  H4  UNL     1      -5.860  -9.161  14.489  1.00  0.00     0.183 HD
HETATM   41  N5  UNL     1      -5.080  -7.807  16.761  1.00  0.00    -0.189 N 
ATOM     42  H5  UNL     1      -4.900  -8.766  17.055  1.00  0.00     0.184 HD
ENDBRANCH  29  32
ENDBRANCH  14  21
ENDBRANCH   8  10
TORSDOF 4
ENDMDL
