MODEL 1
REMARK VINA RESULT: -5.925757320      0.000      0.000
REMARK  5 active torsions:
REMARK  status: ('A' for Active; 'I' for Inactive)
REMARK    1  A    between atoms: C4_7  and  C5_8 
REMARK    2  A    between atoms: C9_12  and  C10_13 
REMARK    3  A    between atoms: C15_20  and  S1_21 
REMARK    4  A    between atoms: S1_21  and  N4_24 
REMARK    5  A    between atoms: N4_24  and  C16_26 
ROOT
HETATM    1  C10 UNL     1      -2.668  -6.357  24.051  1.00  0.00     0.057 A 
HETATM    2  N3  UNL     1      -1.599  -5.577  24.295  1.00  0.00    -0.364 N 
ATOM      3  H3  UNL     1      -1.114  -5.112  23.529  1.00  0.00     0.165 HD
HETATM    4  C11 UNL     1      -1.175  -5.417  25.580  1.00  0.00     0.089 A 
HETATM    5  C12 UNL     1      -1.817  -6.039  26.630  1.00  0.00     0.029 A 
HETATM    6  C13 UNL     1      -2.919  -6.848  26.408  1.00  0.00    -0.021 A 
HETATM    7  C14 UNL     1      -3.589  -7.487  27.443  1.00  0.00     0.037 A 
HETATM    8  C15 UNL     1      -4.685  -8.288  27.194  1.00  0.00     0.080 A 
HETATM    9  C19 UNL     1      -5.081  -8.423  25.880  1.00  0.00     0.026 A 
HETATM   10  C20 UNL     1      -4.415  -7.785  24.843  1.00  0.00     0.016 A 
HETATM   11  C21 UNL     1      -3.320  -6.984  25.092  1.00  0.00     0.002 A 
ENDROOT
BRANCH   1  12
HETATM   12  C9  UNL     1      -3.088  -6.501  22.661  1.00  0.00     0.044 A 
HETATM   13  C8  UNL     1      -3.274  -7.754  22.138  1.00  0.00    -0.010 A 
HETATM   14  C7  UNL     1      -3.076  -8.881  22.883  1.00  0.00     0.014 A 
HETATM   15  C25 UNL     1      -3.667  -7.899  20.840  1.00  0.00    -0.021 A 
HETATM   16  C6  UNL     1      -3.257 -10.184  22.378  1.00  0.00     0.014 A 
HETATM   17  C5  UNL     1      -3.650 -10.307  21.076  1.00  0.00    -0.007 A 
HETATM   18  C26 UNL     1      -3.853  -9.142  20.316  1.00  0.00     0.026 A 
HETATM   19  C24 UNL     1      -3.869  -6.743  20.079  1.00  0.00     0.058 A 
HETATM   20  C23 UNL     1      -3.680  -5.481  20.610  1.00  0.00     0.156 A 
HETATM   21  C22 UNL     1      -3.280  -5.345  21.931  1.00  0.00     0.168 A 
HETATM   22  F2  UNL     1      -3.886  -4.376  19.838  1.00  0.00    -0.203 F 
HETATM   23  F1  UNL     1      -3.082  -4.132  22.493  1.00  0.00    -0.202 F 
BRANCH  17  24
HETATM   24  C4  UNL     1      -3.825 -11.599  20.441  1.00  0.00     0.061 A 
HETATM   25  N1  UNL     1      -4.022 -11.981  19.194  1.00  0.00    -0.296 N 
HETATM   26  C1  UNL     1      -4.114 -11.142  18.022  1.00  0.00     0.178 C 
HETATM   27  N2  UNL     1      -4.163 -13.331  19.116  1.00  0.00    -0.310 N 
HETATM   28  C2  UNL     1      -4.061 -13.858  20.331  1.00  0.00     0.109 A 
ATOM     29  H2  UNL     1      -4.323 -13.859  18.257  1.00  0.00     0.186 HD
HETATM   30  C3  UNL     1      -3.849 -12.795  21.178  1.00  0.00     0.050 A 
ENDBRANCH  17  24
ENDBRANCH   1  12
BRANCH   8  31
HETATM   31  S1  UNL     1      -5.541  -9.104  28.499  1.00  0.00     0.264 S 
HETATM   32  O1  UNL     1      -6.850  -9.562  27.954  1.00  0.00    -0.200 OA
HETATM   33  O2  UNL     1      -5.790  -8.040  29.555  1.00  0.00    -0.200 OA
BRANCH  31  34
HETATM   34  N4  UNL     1      -4.570 -10.357  29.113  1.00  0.00    -0.260 N 
ATOM     35  H4  UNL     1      -4.914 -10.963  29.858  1.00  0.00     0.181 HD
BRANCH  34  36
HETATM   36  C16 UNL     1      -3.366 -10.531  28.609  1.00  0.00     0.158 A 
HETATM   37  N5  UNL     1      -2.202 -10.105  29.099  1.00  0.00    -0.345 N 
HETATM   38  C17 UNL     1      -1.111 -10.382  28.447  1.00  0.00     0.097 A 
ATOM     39  H5  UNL     1      -2.168  -9.573  29.969  1.00  0.00     0.167 HD
HETATM   40  C18 UNL     1      -1.217 -11.098  27.287  1.00  0.00     0.070 A 
HETATM   41  S2  UNL     1      -2.903 -11.347  27.180  1.00  0.00    -0.064 SA
ENDBRANCH  34  36
ENDBRANCH  31  34
ENDBRANCH   8  31
TORSDOF 5
ENDMDL
MODEL 2
REMARK VINA RESULT: -3.742478658      2.046      2.583
REMARK  5 active torsions:
REMARK  status: ('A' for Active; 'I' for Inactive)
REMARK    1  A    between atoms: C4_7  and  C5_8 
REMARK    2  A    between atoms: C9_12  and  C10_13 
REMARK    3  A    between atoms: C15_20  and  S1_21 
REMARK    4  A    between atoms: S1_21  and  N4_24 
REMARK    5  A    between atoms: N4_24  and  C16_26 
ROOT
HETATM    1  C10 UNL     1      -3.540  -6.278  24.187  1.00  0.00     0.057 A 
HETATM    2  N3  UNL     1      -4.414  -5.374  24.666  1.00  0.00    -0.364 N 
ATOM      3  H3  UNL     1      -4.937  -4.774  24.029  1.00  0.00     0.165 HD
HETATM    4  C11 UNL     1      -4.591  -5.271  26.013  1.00  0.00     0.089 A 
HETATM    5  C12 UNL     1      -3.892  -6.073  26.891  1.00  0.00     0.029 A 
HETATM    6  C13 UNL     1      -2.986  -7.012  26.426  1.00  0.00    -0.021 A 
HETATM    7  C14 UNL     1      -2.268  -7.834  27.284  1.00  0.00     0.037 A 
HETATM    8  C15 UNL     1      -1.370  -8.762  26.795  1.00  0.00     0.080 A 
HETATM    9  C19 UNL     1      -1.222  -8.833  25.426  1.00  0.00     0.026 A 
HETATM   10  C20 UNL     1      -1.939  -8.013  24.566  1.00  0.00     0.016 A 
HETATM   11  C21 UNL     1      -2.835  -7.086  25.054  1.00  0.00     0.002 A 
ENDROOT
BRANCH   1  12
HETATM   12  C9  UNL     1      -3.382  -6.354  22.739  1.00  0.00     0.044 A 
HETATM   13  C8  UNL     1      -3.528  -7.562  22.107  1.00  0.00    -0.010 A 
HETATM   14  C7  UNL     1      -3.817  -8.705  22.796  1.00  0.00     0.014 A 
HETATM   15  C25 UNL     1      -3.382  -7.644  20.753  1.00  0.00    -0.021 A 
HETATM   16  C6  UNL     1      -3.972  -9.962  22.179  1.00  0.00     0.014 A 
HETATM   17  C5  UNL     1      -3.822 -10.023  20.824  1.00  0.00    -0.007 A 
HETATM   18  C26 UNL     1      -3.525  -8.842  20.121  1.00  0.00     0.026 A 
HETATM   19  C24 UNL     1      -3.086  -6.472  20.049  1.00  0.00     0.058 A 
HETATM   20  C23 UNL     1      -2.940  -5.257  20.690  1.00  0.00     0.156 A 
HETATM   21  C22 UNL     1      -3.089  -5.184  22.068  1.00  0.00     0.168 A 
HETATM   22  F2  UNL     1      -2.650  -4.135  19.972  1.00  0.00    -0.203 F 
HETATM   23  F1  UNL     1      -2.956  -4.018  22.737  1.00  0.00    -0.202 F 
BRANCH  17  24
HETATM   24  C4  UNL     1      -3.918 -11.270  20.091  1.00  0.00     0.061 A 
HETATM   25  N1  UNL     1      -4.095 -11.567  18.817  1.00  0.00    -0.296 N 
HETATM   26  C1  UNL     1      -4.244 -10.647  17.714  1.00  0.00     0.178 C 
HETATM   27  N2  UNL     1      -4.152 -12.913  18.636  1.00  0.00    -0.310 N 
HETATM   28  C2  UNL     1      -4.012 -13.524  19.806  1.00  0.00     0.109 A 
ATOM     29  H2  UNL     1      -4.281 -13.382  17.738  1.00  0.00     0.186 HD
HETATM   30  C3  UNL     1      -3.865 -12.518  20.733  1.00  0.00     0.050 A 
ENDBRANCH  17  24
ENDBRANCH   1  12
BRANCH   8  31
HETATM   31  S1  UNL     1      -0.454  -9.810  27.874  1.00  0.00     0.264 S 
HETATM   32  O1  UNL     1      -0.052  -8.992  29.053  1.00  0.00    -0.200 OA
HETATM   33  O2  UNL     1       0.792 -10.207  27.100  1.00  0.00    -0.200 OA
BRANCH  31  34
HETATM   34  N4  UNL     1      -1.390 -11.174  28.264  1.00  0.00    -0.260 N 
ATOM     35  H4  UNL     1      -1.021 -12.115  28.127  1.00  0.00     0.181 HD
BRANCH  34  36
HETATM   36  C16 UNL     1      -2.602 -10.993  28.746  1.00  0.00     0.158 A 
HETATM   37  N5  UNL     1      -3.053 -11.287  29.965  1.00  0.00    -0.345 N 
HETATM   38  C17 UNL     1      -4.296 -11.029  30.251  1.00  0.00     0.097 A 
ATOM     39  H5  UNL     1      -2.435 -11.705  30.660  1.00  0.00     0.167 HD
HETATM   40  C18 UNL     1      -5.078 -10.469  29.280  1.00  0.00     0.070 A 
HETATM   41  S2  UNL     1      -3.980 -10.333  27.979  1.00  0.00    -0.064 SA
ENDBRANCH  34  36
ENDBRANCH  31  34
ENDBRANCH   8  31
TORSDOF 5
ENDMDL
MODEL 3
REMARK VINA RESULT: -2.502657148      3.182      5.079
REMARK  5 active torsions:
REMARK  status: ('A' for Active; 'I' for Inactive)
REMARK    1  A    between atoms: C4_7  and  C5_8 
REMARK    2  A    between atoms: C9_12  and  C10_13 
REMARK    3  A    between atoms: C15_20  and  S1_21 
REMARK    4  A    between atoms: S1_21  and  N4_24 
REMARK    5  A    between atoms: N4_24  and  C16_26 
ROOT
HETATM    1  C10 UNL     1      -1.526 -10.347  23.745  1.00  0.00     0.057 A 
HETATM    2  N3  UNL     1      -0.181 -10.340  23.706  1.00  0.00    -0.364 N 
ATOM      3  H3  UNL     1       0.309 -10.409  22.815  1.00  0.00     0.165 HD
HETATM    4  C11 UNL     1       0.517 -10.241  24.872  1.00  0.00     0.089 A 
HETATM    5  C12 UNL     1      -0.129 -10.148  26.087  1.00  0.00     0.029 A 
HETATM    6  C13 UNL     1      -1.512 -10.153  26.158  1.00  0.00    -0.021 A 
HETATM    7  C14 UNL     1      -2.191 -10.060  27.366  1.00  0.00     0.037 A 
HETATM    8  C15 UNL     1      -3.571 -10.067  27.409  1.00  0.00     0.080 A 
HETATM    9  C19 UNL     1      -4.237 -10.169  26.206  1.00  0.00     0.026 A 
HETATM   10  C20 UNL     1      -3.562 -10.261  24.997  1.00  0.00     0.016 A 
HETATM   11  C21 UNL     1      -2.183 -10.254  24.954  1.00  0.00     0.002 A 
ENDROOT
BRANCH   1  12
HETATM   12  C9  UNL     1      -2.233 -10.455  22.474  1.00  0.00     0.044 A 
HETATM   13  C8  UNL     1      -2.785  -9.334  21.911  1.00  0.00    -0.010 A 
HETATM   14  C7  UNL     1      -2.697  -8.110  22.510  1.00  0.00     0.014 A 
HETATM   15  C25 UNL     1      -3.448  -9.424  20.722  1.00  0.00    -0.021 A 
HETATM   16  C6  UNL     1      -3.254  -6.938  21.961  1.00  0.00     0.014 A 
HETATM   17  C5  UNL     1      -3.913  -7.050  20.771  1.00  0.00    -0.007 A 
HETATM   18  C26 UNL     1      -3.999  -8.313  20.160  1.00  0.00     0.026 A 
HETATM   19  C24 UNL     1      -3.538 -10.679  20.111  1.00  0.00     0.058 A 
HETATM   20  C23 UNL     1      -2.979 -11.807  20.681  1.00  0.00     0.156 A 
HETATM   21  C22 UNL     1      -2.308 -11.704  21.891  1.00  0.00     0.168 A 
HETATM   22  F2  UNL     1      -3.087 -13.014  20.057  1.00  0.00    -0.203 F 
HETATM   23  F1  UNL     1      -1.746 -12.779  22.486  1.00  0.00    -0.202 F 
BRANCH  17  24
HETATM   24  C4  UNL     1      -4.561  -5.918  20.137  1.00  0.00     0.061 A 
HETATM   25  N1  UNL     1      -4.114  -4.808  19.579  1.00  0.00    -0.296 N 
HETATM   26  C1  UNL     1      -2.739  -4.392  19.430  1.00  0.00     0.178 C 
HETATM   27  N2  UNL     1      -5.144  -4.031  19.152  1.00  0.00    -0.310 N 
HETATM   28  C2  UNL     1      -6.296  -4.630  19.430  1.00  0.00     0.109 A 
ATOM     29  H2  UNL     1      -5.047  -3.127  18.688  1.00  0.00     0.186 HD
HETATM   30  C3  UNL     1      -5.958  -5.812  20.047  1.00  0.00     0.050 A 
ENDBRANCH  17  24
ENDBRANCH   1  12
BRANCH   8  31
HETATM   31  S1  UNL     1      -4.443  -9.951  28.934  1.00  0.00     0.264 S 
HETATM   32  O1  UNL     1      -3.642 -10.676  29.961  1.00  0.00    -0.200 OA
HETATM   33  O2  UNL     1      -5.753 -10.690  28.716  1.00  0.00    -0.200 OA
BRANCH  31  34
HETATM   34  N4  UNL     1      -4.719  -8.314  29.302  1.00  0.00    -0.260 N 
ATOM     35  H4  UNL     1      -5.146  -8.045  30.188  1.00  0.00     0.181 HD
BRANCH  34  36
HETATM   36  C16 UNL     1      -4.373  -7.400  28.420  1.00  0.00     0.158 A 
HETATM   37  N5  UNL     1      -5.058  -6.987  27.354  1.00  0.00    -0.345 N 
HETATM   38  C17 UNL     1      -4.540  -6.063  26.597  1.00  0.00     0.097 A 
ATOM     39  H5  UNL     1      -5.971  -7.387  27.136  1.00  0.00     0.167 HD
HETATM   40  C18 UNL     1      -3.314  -5.564  26.938  1.00  0.00     0.070 A 
HETATM   41  S2  UNL     1      -2.951  -6.453  28.349  1.00  0.00    -0.064 SA
ENDBRANCH  34  36
ENDBRANCH  31  34
ENDBRANCH   8  31
TORSDOF 5
ENDMDL
MODEL 4
REMARK VINA RESULT: -2.116314568      3.287      4.688
REMARK  5 active torsions:
REMARK  status: ('A' for Active; 'I' for Inactive)
REMARK    1  A    between atoms: C4_7  and  C5_8 
REMARK    2  A    between atoms: C9_12  and  C10_13 
REMARK    3  A    between atoms: C15_20  and  S1_21 
REMARK    4  A    between atoms: S1_21  and  N4_24 
REMARK    5  A    between atoms: N4_24  and  C16_26 
ROOT
HETATM    1  C10 UNL     1      -2.267  -9.103  21.457  1.00  0.00     0.057 A 
HETATM    2  N3  UNL     1      -1.242  -8.512  20.815  1.00  0.00    -0.364 N 
ATOM      3  H3  UNL     1      -0.914  -8.878  19.921  1.00  0.00     0.165 HD
HETATM    4  C11 UNL     1      -0.649  -7.421  21.373  1.00  0.00     0.089 A 
HETATM    5  C12 UNL     1      -1.077  -6.912  22.582  1.00  0.00     0.029 A 
HETATM    6  C13 UNL     1      -2.129  -7.499  23.265  1.00  0.00    -0.021 A 
HETATM    7  C14 UNL     1      -2.585  -7.011  24.483  1.00  0.00     0.037 A 
HETATM    8  C15 UNL     1      -3.635  -7.615  25.144  1.00  0.00     0.080 A 
HETATM    9  C19 UNL     1      -4.207  -8.717  24.543  1.00  0.00     0.026 A 
HETATM   10  C20 UNL     1      -3.754  -9.207  23.327  1.00  0.00     0.016 A 
HETATM   11  C21 UNL     1      -2.705  -8.604  22.666  1.00  0.00     0.002 A 
ENDROOT
BRANCH   1  12
HETATM   12  C9  UNL     1      -2.872 -10.268  20.823  1.00  0.00     0.044 A 
HETATM   13  C8  UNL     1      -3.513 -10.126  19.620  1.00  0.00    -0.010 A 
HETATM   14  C7  UNL     1      -3.604  -8.916  18.992  1.00  0.00     0.014 A 
HETATM   15  C25 UNL     1      -4.082 -11.209  19.018  1.00  0.00    -0.021 A 
HETATM   16  C6  UNL     1      -4.256  -8.734  17.756  1.00  0.00     0.014 A 
HETATM   17  C5  UNL     1      -4.819  -9.830  17.172  1.00  0.00    -0.007 A 
HETATM   18  C26 UNL     1      -4.720 -11.072  17.823  1.00  0.00     0.026 A 
HETATM   19  C24 UNL     1      -3.988 -12.447  19.663  1.00  0.00     0.058 A 
HETATM   20  C23 UNL     1      -3.341 -12.587  20.876  1.00  0.00     0.156 A 
HETATM   21  C22 UNL     1      -2.765 -11.478  21.480  1.00  0.00     0.168 A 
HETATM   22  F2  UNL     1      -3.269 -13.809  21.476  1.00  0.00    -0.203 F 
HETATM   23  F1  UNL     1      -2.123 -11.566  22.665  1.00  0.00    -0.202 F 
BRANCH  17  24
HETATM   24  C4  UNL     1      -5.550  -9.750  15.921  1.00  0.00     0.061 A 
HETATM   25  N1  UNL     1      -5.868  -8.755  15.115  1.00  0.00    -0.296 N 
HETATM   26  C1  UNL     1      -5.537  -7.358  15.271  1.00  0.00     0.178 C 
HETATM   27  N2  UNL     1      -6.609  -9.199  14.065  1.00  0.00    -0.310 N 
HETATM   28  C2  UNL     1      -6.789 -10.510  14.173  1.00  0.00     0.109 A 
ATOM     29  H2  UNL     1      -6.970  -8.615  13.310  1.00  0.00     0.186 HD
HETATM   30  C3  UNL     1      -6.136 -10.879  15.326  1.00  0.00     0.050 A 
ENDBRANCH  17  24
ENDBRANCH   1  12
BRANCH   8  31
HETATM   31  S1  UNL     1      -4.220  -7.005  26.689  1.00  0.00     0.264 S 
HETATM   32  O1  UNL     1      -4.955  -5.737  26.416  1.00  0.00    -0.200 OA
HETATM   33  O2  UNL     1      -2.977  -6.689  27.504  1.00  0.00    -0.200 OA
BRANCH  31  34
HETATM   34  N4  UNL     1      -5.160  -8.201  27.448  1.00  0.00    -0.260 N 
ATOM     35  H4  UNL     1      -6.176  -8.197  27.359  1.00  0.00     0.181 HD
BRANCH  34  36
HETATM   36  C16 UNL     1      -4.552  -9.131  28.154  1.00  0.00     0.158 A 
HETATM   37  N5  UNL     1      -3.259  -9.455  28.144  1.00  0.00    -0.345 N 
HETATM   38  C17 UNL     1      -2.849 -10.413  28.922  1.00  0.00     0.097 A 
ATOM     39  H5  UNL     1      -2.605  -8.961  27.537  1.00  0.00     0.167 HD
HETATM   40  C18 UNL     1      -3.772 -11.040  29.713  1.00  0.00     0.070 A 
HETATM   41  S2  UNL     1      -5.208 -10.216  29.300  1.00  0.00    -0.064 SA
ENDBRANCH  34  36
ENDBRANCH  31  34
ENDBRANCH   8  31
TORSDOF 5
ENDMDL
MODEL 5
REMARK VINA RESULT: -1.999107035      3.107      4.472
REMARK  5 active torsions:
REMARK  status: ('A' for Active; 'I' for Inactive)
REMARK    1  A    between atoms: C4_7  and  C5_8 
REMARK    2  A    between atoms: C9_12  and  C10_13 
REMARK    3  A    between atoms: C15_20  and  S1_21 
REMARK    4  A    between atoms: S1_21  and  N4_24 
REMARK    5  A    between atoms: N4_24  and  C16_26 
ROOT
HETATM    1  C10 UNL     1      -2.508  -9.886  22.628  1.00  0.00     0.057 A 
HETATM    2  N3  UNL     1      -1.286  -9.746  22.082  1.00  0.00    -0.364 N 
ATOM      3  H3  UNL     1      -1.004 -10.326  21.292  1.00  0.00     0.165 HD
HETATM    4  C11 UNL     1      -0.430  -8.821  22.598  1.00  0.00     0.089 A 
HETATM    5  C12 UNL     1      -0.791  -8.029  23.668  1.00  0.00     0.029 A 
HETATM    6  C13 UNL     1      -2.042  -8.150  24.250  1.00  0.00    -0.021 A 
HETATM    7  C14 UNL     1      -2.437  -7.367  25.327  1.00  0.00     0.037 A 
HETATM    8  C15 UNL     1      -3.689  -7.509  25.888  1.00  0.00     0.080 A 
HETATM    9  C19 UNL     1      -4.524  -8.457  25.335  1.00  0.00     0.026 A 
HETATM   10  C20 UNL     1      -4.133  -9.240  24.259  1.00  0.00     0.016 A 
HETATM   11  C21 UNL     1      -2.882  -9.099  23.697  1.00  0.00     0.002 A 
ENDROOT
BRANCH   1  12
HETATM   12  C9  UNL     1      -3.392 -10.888  22.043  1.00  0.00     0.044 A 
HETATM   13  C8  UNL     1      -3.729 -10.800  20.718  1.00  0.00    -0.010 A 
HETATM   14  C7  UNL     1      -3.262  -9.793  19.922  1.00  0.00     0.014 A 
HETATM   15  C25 UNL     1      -4.555 -11.732  20.161  1.00  0.00    -0.021 A 
HETATM   16  C6  UNL     1      -3.590  -9.671  18.557  1.00  0.00     0.014 A 
HETATM   17  C5  UNL     1      -4.418 -10.614  18.020  1.00  0.00    -0.007 A 
HETATM   18  C26 UNL     1      -4.894 -11.648  18.846  1.00  0.00     0.026 A 
HETATM   19  C24 UNL     1      -5.033 -12.762  20.979  1.00  0.00     0.058 A 
HETATM   20  C23 UNL     1      -4.690 -12.848  22.315  1.00  0.00     0.156 A 
HETATM   21  C22 UNL     1      -3.849 -11.894  22.871  1.00  0.00     0.168 A 
HETATM   22  F2  UNL     1      -5.174 -13.865  23.082  1.00  0.00    -0.203 F 
HETATM   23  F1  UNL     1      -3.487 -11.937  24.172  1.00  0.00    -0.202 F 
BRANCH  17  24
HETATM   24  C4  UNL     1      -4.854 -10.562  16.638  1.00  0.00     0.061 A 
HETATM   25  N1  UNL     1      -4.231 -10.688  15.481  1.00  0.00    -0.296 N 
HETATM   26  C1  UNL     1      -2.827 -10.941  15.263  1.00  0.00     0.178 C 
HETATM   27  N2  UNL     1      -5.094 -10.520  14.444  1.00  0.00    -0.310 N 
HETATM   28  C2  UNL     1      -6.311 -10.276  14.916  1.00  0.00     0.109 A 
ATOM     29  H2  UNL     1      -4.845 -10.572  13.456  1.00  0.00     0.186 HD
HETATM   30  C3  UNL     1      -6.188 -10.298  16.286  1.00  0.00     0.050 A 
ENDBRANCH  17  24
ENDBRANCH   1  12
BRANCH   8  31
HETATM   31  S1  UNL     1      -4.200  -6.521  27.254  1.00  0.00     0.264 S 
HETATM   32  O1  UNL     1      -5.043  -5.417  26.714  1.00  0.00    -0.200 OA
HETATM   33  O2  UNL     1      -2.925  -5.932  27.834  1.00  0.00    -0.200 OA
BRANCH  31  34
HETATM   34  N4  UNL     1      -4.993  -7.502  28.394  1.00  0.00    -0.260 N 
ATOM     35  H4  UNL     1      -5.880  -7.210  28.804  1.00  0.00     0.181 HD
BRANCH  34  36
HETATM   36  C16 UNL     1      -4.439  -8.646  28.738  1.00  0.00     0.158 A 
HETATM   37  N5  UNL     1      -3.144  -8.958  28.760  1.00  0.00    -0.345 N 
HETATM   38  C17 UNL     1      -2.794 -10.154  29.134  1.00  0.00     0.097 A 
ATOM     39  H5  UNL     1      -2.440  -8.272  28.487  1.00  0.00     0.167 HD
HETATM   40  C18 UNL     1      -3.781 -11.032  29.488  1.00  0.00     0.070 A 
HETATM   41  S2  UNL     1      -5.188 -10.091  29.264  1.00  0.00    -0.064 SA
ENDBRANCH  34  36
ENDBRANCH  31  34
ENDBRANCH   8  31
TORSDOF 5
ENDMDL
