MODEL 1
REMARK VINA RESULT: -6.347625368      0.000      0.000
REMARK  5 active torsions:
REMARK  status: ('A' for Active; 'I' for Inactive)
REMARK    1  A    between atoms: C2_2  and  C3_3 
REMARK    2  A    between atoms: C3_3  and  C4_4 
REMARK    3  A    between atoms: C4_4  and  N1_5 
REMARK    4  A    between atoms: C5_6  and  O1_7 
REMARK    5  A    between atoms: C10_14  and  O2_15 
ROOT
HETATM    1  N1  UNL     1      33.007  12.683  -6.158  1.00  0.00    -0.307 N 
HETATM    2  C5  UNL     1      31.813  12.169  -6.368  1.00  0.00     0.162 A 
HETATM    3  C6  UNL     1      31.191  13.043  -7.276  1.00  0.00     0.071 A 
HETATM    4  S1  UNL     1      29.777  13.364  -8.174  1.00  0.00    -0.089 SA
HETATM    5  C7  UNL     1      30.254  14.802  -8.950  1.00  0.00    -0.009 A 
HETATM    6  C8  UNL     1      31.519  15.000  -8.485  1.00  0.00    -0.029 A 
HETATM    7  C9  UNL     1      32.014  14.082  -7.608  1.00  0.00     0.044 A 
HETATM    8  C10 UNL     1      33.182  13.815  -6.864  1.00  0.00     0.156 A 
HETATM    9  C11 UNL     1      31.993  16.289  -9.158  1.00  0.00     0.041 C 
HETATM   10  C12 UNL     1      30.699  17.030  -9.376  1.00  0.00     0.010 C 
HETATM   11  C13 UNL     1      29.836  15.895  -9.911  1.00  0.00     0.047 C 
ENDROOT
BRANCH   1  12
HETATM   12  C4  UNL     1      34.001  12.127  -5.292  1.00  0.00     0.133 C 
BRANCH  12  13
HETATM   13  C3  UNL     1      34.493  10.778  -5.658  1.00  0.00     0.020 C 
BRANCH  13  14
HETATM   14  C2  UNL     1      34.447   9.768  -4.531  1.00  0.00    -0.003 C 
HETATM   15  C1  UNL     1      33.536  10.284  -3.408  1.00  0.00     0.005 C 
ENDBRANCH  13  14
ENDBRANCH  12  13
ENDBRANCH   1  12
BRANCH   2  16
HETATM   16  O1  UNL     1      31.187  11.045  -5.883  1.00  0.00    -0.345 OA
ATOM     17  H1  UNL     1      30.277  10.773  -5.867  1.00  0.00     0.219 HD
ENDBRANCH   2  16
BRANCH   8  18
HETATM   18  O2  UNL     1      34.346  14.596  -6.853  1.00  0.00    -0.345 OA
ATOM     19  H2  UNL     1      34.387  15.514  -7.092  1.00  0.00     0.219 HD
ENDBRANCH   8  18
TORSDOF 5
ENDMDL
MODEL 2
REMARK VINA RESULT: -6.061900618      2.184      6.130
REMARK  5 active torsions:
REMARK  status: ('A' for Active; 'I' for Inactive)
REMARK    1  A    between atoms: C2_2  and  C3_3 
REMARK    2  A    between atoms: C3_3  and  C4_4 
REMARK    3  A    between atoms: C4_4  and  N1_5 
REMARK    4  A    between atoms: C5_6  and  O1_7 
REMARK    5  A    between atoms: C10_14  and  O2_15 
ROOT
HETATM    1  N1  UNL     1      30.983  14.714  -8.364  1.00  0.00    -0.307 N 
HETATM    2  C5  UNL     1      32.192  15.093  -8.008  1.00  0.00     0.162 A 
HETATM    3  C6  UNL     1      32.678  14.055  -7.194  1.00  0.00     0.071 A 
HETATM    4  S1  UNL     1      33.992  13.499  -6.259  1.00  0.00    -0.089 SA
HETATM    5  C7  UNL     1      33.351  12.016  -5.723  1.00  0.00    -0.009 A 
HETATM    6  C8  UNL     1      32.113  11.990  -6.292  1.00  0.00    -0.029 A 
HETATM    7  C9  UNL     1      31.756  13.056  -7.063  1.00  0.00     0.044 A 
HETATM    8  C10 UNL     1      30.670  13.517  -7.835  1.00  0.00     0.156 A 
HETATM    9  C11 UNL     1      31.494  10.668  -5.836  1.00  0.00     0.041 C 
HETATM   10  C12 UNL     1      32.178  10.435  -4.513  1.00  0.00     0.010 C 
HETATM   11  C13 UNL     1      33.612  10.774  -4.897  1.00  0.00     0.047 C 
ENDROOT
BRANCH   1  12
HETATM   12  C4  UNL     1      30.100  15.466  -9.202  1.00  0.00     0.133 C 
BRANCH  12  13
HETATM   13  C3  UNL     1      29.882  14.922 -10.563  1.00  0.00     0.020 C 
BRANCH  13  14
HETATM   14  C2  UNL     1      28.476  14.424 -10.821  1.00  0.00    -0.003 C 
HETATM   15  C1  UNL     1      28.525  12.996 -11.385  1.00  0.00     0.005 C 
ENDBRANCH  13  14
ENDBRANCH  12  13
ENDBRANCH   1  12
BRANCH   2  16
HETATM   16  O1  UNL     1      32.937  16.215  -8.292  1.00  0.00    -0.345 OA
ATOM     17  H1  UNL     1      33.784  16.335  -8.705  1.00  0.00     0.219 HD
ENDBRANCH   2  16
BRANCH   8  18
HETATM   18  O2  UNL     1      29.454  12.848  -8.028  1.00  0.00    -0.345 OA
ATOM     19  H2  UNL     1      29.292  12.201  -8.704  1.00  0.00     0.219 HD
ENDBRANCH   8  18
TORSDOF 5
ENDMDL
MODEL 3
REMARK VINA RESULT: -5.785215348      1.837      6.225
REMARK  5 active torsions:
REMARK  status: ('A' for Active; 'I' for Inactive)
REMARK    1  A    between atoms: C2_2  and  C3_3 
REMARK    2  A    between atoms: C3_3  and  C4_4 
REMARK    3  A    between atoms: C4_4  and  N1_5 
REMARK    4  A    between atoms: C5_6  and  O1_7 
REMARK    5  A    between atoms: C10_14  and  O2_15 
ROOT
HETATM    1  N1  UNL     1      31.693  13.842  -8.210  1.00  0.00    -0.307 N 
HETATM    2  C5  UNL     1      32.646  14.549  -7.642  1.00  0.00     0.162 A 
HETATM    3  C6  UNL     1      33.157  13.726  -6.623  1.00  0.00     0.071 A 
HETATM    4  S1  UNL     1      34.297  13.595  -5.361  1.00  0.00    -0.089 SA
HETATM    5  C7  UNL     1      33.929  12.027  -4.809  1.00  0.00    -0.009 A 
HETATM    6  C8  UNL     1      32.914  11.640  -5.631  1.00  0.00    -0.029 A 
HETATM    7  C9  UNL     1      32.506  12.526  -6.583  1.00  0.00     0.044 A 
HETATM    8  C10 UNL     1      31.564  12.637  -7.626  1.00  0.00     0.156 A 
HETATM    9  C11 UNL     1      32.546  10.228  -5.171  1.00  0.00     0.041 C 
HETATM   10  C12 UNL     1      32.920  10.261  -3.711  1.00  0.00     0.010 C 
HETATM   11  C13 UNL     1      34.276  10.949  -3.805  1.00  0.00     0.047 C 
ENDROOT
BRANCH   1  12
HETATM   12  C4  UNL     1      30.885  14.282  -9.307  1.00  0.00     0.133 C 
BRANCH  12  13
HETATM   13  C3  UNL     1      29.840  15.279  -8.978  1.00  0.00     0.020 C 
BRANCH  13  14
HETATM   14  C2  UNL     1      29.894  16.541  -9.813  1.00  0.00    -0.003 C 
HETATM   15  C1  UNL     1      30.900  17.526  -9.202  1.00  0.00     0.005 C 
ENDBRANCH  13  14
ENDBRANCH  12  13
ENDBRANCH   1  12
BRANCH   2  16
HETATM   16  O1  UNL     1      33.138  15.811  -7.884  1.00  0.00    -0.345 OA
ATOM     17  H1  UNL     1      33.320  16.286  -8.686  1.00  0.00     0.219 HD
ENDBRANCH   2  16
BRANCH   8  18
HETATM   18  O2  UNL     1      30.636  11.657  -8.004  1.00  0.00    -0.345 OA
ATOM     19  H2  UNL     1      29.694  11.737  -7.914  1.00  0.00     0.219 HD
ENDBRANCH   8  18
TORSDOF 5
ENDMDL
MODEL 4
REMARK VINA RESULT: -5.755658624      1.327      2.562
REMARK  5 active torsions:
REMARK  status: ('A' for Active; 'I' for Inactive)
REMARK    1  A    between atoms: C2_2  and  C3_3 
REMARK    2  A    between atoms: C3_3  and  C4_4 
REMARK    3  A    between atoms: C4_4  and  N1_5 
REMARK    4  A    between atoms: C5_6  and  O1_7 
REMARK    5  A    between atoms: C10_14  and  O2_15 
ROOT
HETATM    1  N1  UNL     1      32.803  12.353  -5.593  1.00  0.00    -0.307 N 
HETATM    2  C5  UNL     1      33.533  13.342  -6.065  1.00  0.00     0.162 A 
HETATM    3  C6  UNL     1      32.735  13.951  -7.049  1.00  0.00     0.071 A 
HETATM    4  S1  UNL     1      32.641  15.198  -8.209  1.00  0.00    -0.089 SA
HETATM    5  C7  UNL     1      31.079  14.902  -8.817  1.00  0.00    -0.009 A 
HETATM    6  C8  UNL     1      30.664  13.825  -8.094  1.00  0.00    -0.029 A 
HETATM    7  C9  UNL     1      31.528  13.324  -7.166  1.00  0.00     0.044 A 
HETATM    8  C10 UNL     1      31.607  12.293  -6.207  1.00  0.00     0.156 A 
HETATM    9  C11 UNL     1      29.256  13.519  -8.608  1.00  0.00     0.041 C 
HETATM   10  C12 UNL     1      29.320  14.018 -10.028  1.00  0.00     0.010 C 
HETATM   11  C13 UNL     1      30.024  15.350  -9.806  1.00  0.00     0.047 C 
ENDROOT
BRANCH   1  12
HETATM   12  C4  UNL     1      33.212  11.447  -4.564  1.00  0.00     0.133 C 
BRANCH  12  13
HETATM   13  C3  UNL     1      33.556  10.077  -5.010  1.00  0.00     0.020 C 
BRANCH  13  14
HETATM   14  C2  UNL     1      34.974   9.652  -4.693  1.00  0.00    -0.003 C 
HETATM   15  C1  UNL     1      35.755  10.840  -4.113  1.00  0.00     0.005 C 
ENDBRANCH  13  14
ENDBRANCH  12  13
ENDBRANCH   1  12
BRANCH   2  16
HETATM   16  O1  UNL     1      34.796  13.793  -5.759  1.00  0.00    -0.345 OA
ATOM     17  H1  UNL     1      35.442  14.280  -6.257  1.00  0.00     0.219 HD
ENDBRANCH   2  16
BRANCH   8  18
HETATM   18  O2  UNL     1      30.609  11.350  -5.928  1.00  0.00    -0.345 OA
ATOM     19  H2  UNL     1      30.025  10.969  -6.573  1.00  0.00     0.219 HD
ENDBRANCH   8  18
TORSDOF 5
ENDMDL
MODEL 5
REMARK VINA RESULT: -5.725170070      2.083      6.064
REMARK  5 active torsions:
REMARK  status: ('A' for Active; 'I' for Inactive)
REMARK    1  A    between atoms: C2_2  and  C3_3 
REMARK    2  A    between atoms: C3_3  and  C4_4 
REMARK    3  A    between atoms: C4_4  and  N1_5 
REMARK    4  A    between atoms: C5_6  and  O1_7 
REMARK    5  A    between atoms: C10_14  and  O2_15 
ROOT
HETATM    1  N1  UNL     1      31.559  13.688  -7.730  1.00  0.00    -0.307 N 
HETATM    2  C5  UNL     1      32.602  14.437  -7.439  1.00  0.00     0.162 A 
HETATM    3  C6  UNL     1      33.376  13.663  -6.558  1.00  0.00     0.071 A 
HETATM    4  S1  UNL     1      34.799  13.602  -5.619  1.00  0.00    -0.089 SA
HETATM    5  C7  UNL     1      34.628  12.047  -4.947  1.00  0.00    -0.009 A 
HETATM    6  C8  UNL     1      33.453  11.608  -5.476  1.00  0.00    -0.029 A 
HETATM    7  C9  UNL     1      32.793  12.450  -6.321  1.00  0.00     0.044 A 
HETATM    8  C10 UNL     1      31.617  12.502  -7.097  1.00  0.00     0.156 A 
HETATM    9  C11 UNL     1      33.255  10.206  -4.898  1.00  0.00     0.041 C 
HETATM   10  C12 UNL     1      33.981  10.299  -3.581  1.00  0.00     0.010 C 
HETATM   11  C13 UNL     1      35.248  11.014  -4.031  1.00  0.00     0.047 C 
ENDROOT
BRANCH   1  12
HETATM   12  C4  UNL     1      30.490  14.070  -8.601  1.00  0.00     0.133 C 
BRANCH  12  13
HETATM   13  C3  UNL     1      30.604  13.609 -10.005  1.00  0.00     0.020 C 
BRANCH  13  14
HETATM   14  C2  UNL     1      29.644  12.500 -10.380  1.00  0.00    -0.003 C 
HETATM   15  C1  UNL     1      28.210  12.909 -10.015  1.00  0.00     0.005 C 
ENDBRANCH  13  14
ENDBRANCH  12  13
ENDBRANCH   1  12
BRANCH   2  16
HETATM   16  O1  UNL     1      32.979  15.700  -7.834  1.00  0.00    -0.345 OA
ATOM     17  H1  UNL     1      33.640  16.302  -7.513  1.00  0.00     0.219 HD
ENDBRANCH   2  16
BRANCH   8  18
HETATM   18  O2  UNL     1      30.655  11.489  -7.202  1.00  0.00    -0.345 OA
ATOM     19  H2  UNL     1      30.780  10.590  -6.923  1.00  0.00     0.219 HD
ENDBRANCH   8  18
TORSDOF 5
ENDMDL
