MODEL 1
REMARK VINA RESULT: -8.284132990      0.000      0.000
REMARK  3 active torsions:
REMARK  status: ('A' for Active; 'I' for Inactive)
REMARK    1  A    between atoms: C3_5  and  C4_6 
REMARK    2  A    between atoms: C7_10  and  N2_11 
REMARK    3  A    between atoms: N2_11  and  C8_13 
ROOT
HETATM    1  C4  UNL     1      30.634  14.273  -9.002  1.00  0.00     0.076 A 
HETATM    2  S1  UNL     1      30.848  15.964  -9.306  1.00  0.00    -0.096 SA
HETATM    3  C5  UNL     1      32.217  16.242  -8.349  1.00  0.00     0.053 A 
HETATM    4  C6  UNL     1      32.481  15.012  -7.813  1.00  0.00     0.038 A 
HETATM    5  C7  UNL     1      31.663  13.994  -8.150  1.00  0.00     0.050 A 
ENDROOT
BRANCH   1   6
HETATM    6  C3  UNL     1      29.570  13.414  -9.572  1.00  0.00     0.141 A 
HETATM    7  N1  UNL     1      29.651  12.331 -10.329  1.00  0.00    -0.329 N 
HETATM    8  C2  UNL     1      28.417  11.888 -10.606  1.00  0.00     0.093 A 
ATOM      9  H1  UNL     1      30.517  11.900 -10.652  1.00  0.00     0.168 HD
HETATM   10  C1  UNL     1      27.981  10.723 -11.406  1.00  0.00     0.090 C 
HETATM   11  N4  UNL     1      27.573  12.728  -9.998  1.00  0.00    -0.288 N 
HETATM   12  N3  UNL     1      28.266  13.647  -9.376  1.00  0.00    -0.283 N 
ATOM     13  H4  UNL     1      26.556  12.663 -10.015  1.00  0.00     0.188 HD
ATOM     14  H3  UNL     1      27.876  14.415  -8.830  1.00  0.00     0.188 HD
ENDBRANCH   1   6
BRANCH   5  15
HETATM   15  N2  UNL     1      31.844  12.647  -7.624  1.00  0.00    -0.384 N 
ATOM     16  H2  UNL     1      31.763  11.855  -8.262  1.00  0.00     0.160 HD
BRANCH  15  17
HETATM   17  C8  UNL     1      32.135  12.390  -6.226  1.00  0.00     0.081 C 
HETATM   18  C9  UNL     1      33.599  12.469  -6.022  1.00  0.00     0.025 C 
HETATM   19  C10 UNL     1      34.199  11.097  -5.776  1.00  0.00     0.002 C 
HETATM   20  C11 UNL     1      33.583  10.627  -4.476  1.00  0.00     0.000 C 
HETATM   21  C12 UNL     1      32.092  10.475  -4.573  1.00  0.00     0.002 C 
HETATM   22  C13 UNL     1      31.467  11.150  -5.741  1.00  0.00     0.025 C 
ENDBRANCH  15  17
ENDBRANCH   5  15
TORSDOF 3
ENDMDL
MODEL 2
REMARK VINA RESULT: -7.935385275      1.329      5.462
REMARK  3 active torsions:
REMARK  status: ('A' for Active; 'I' for Inactive)
REMARK    1  A    between atoms: C3_5  and  C4_6 
REMARK    2  A    between atoms: C7_10  and  N2_11 
REMARK    3  A    between atoms: N2_11  and  C8_13 
ROOT
HETATM    1  C4  UNL     1      31.242  14.550  -8.302  1.00  0.00     0.076 A 
HETATM    2  S1  UNL     1      31.896  16.139  -8.503  1.00  0.00    -0.096 SA
HETATM    3  C5  UNL     1      30.728  16.786  -9.545  1.00  0.00     0.053 A 
HETATM    4  C6  UNL     1      29.851  15.750  -9.714  1.00  0.00     0.038 A 
HETATM    5  C7  UNL     1      30.116  14.594  -9.071  1.00  0.00     0.050 A 
ENDROOT
BRANCH   1   6
HETATM    6  C3  UNL     1      31.824  13.467  -7.474  1.00  0.00     0.141 A 
HETATM    7  N1  UNL     1      31.246  12.609  -6.648  1.00  0.00    -0.329 N 
HETATM    8  C2  UNL     1      32.177  11.806  -6.115  1.00  0.00     0.093 A 
ATOM      9  H1  UNL     1      30.247  12.565  -6.448  1.00  0.00     0.168 HD
HETATM   10  C1  UNL     1      32.037  10.697  -5.148  1.00  0.00     0.090 C 
HETATM   11  N4  UNL     1      33.346  12.194  -6.637  1.00  0.00    -0.288 N 
HETATM   12  N3  UNL     1      33.135  13.193  -7.454  1.00  0.00    -0.283 N 
ATOM     13  H4  UNL     1      34.254  11.779  -6.431  1.00  0.00     0.188 HD
ATOM     14  H3  UNL     1      33.851  13.684  -7.989  1.00  0.00     0.188 HD
ENDBRANCH   1   6
BRANCH   5  15
HETATM   15  N2  UNL     1      29.256  13.424  -9.195  1.00  0.00    -0.384 N 
ATOM     16  H2  UNL     1      28.792  13.065  -8.360  1.00  0.00     0.160 HD
BRANCH  15  17
HETATM   17  C8  UNL     1      29.036  12.750 -10.461  1.00  0.00     0.081 C 
HETATM   18  C9  UNL     1      27.592  12.451 -10.597  1.00  0.00     0.025 C 
HETATM   19  C10 UNL     1      27.318  10.967 -10.446  1.00  0.00     0.002 C 
HETATM   20  C11 UNL     1      28.029  10.316 -11.613  1.00  0.00     0.000 C 
HETATM   21  C12 UNL     1      29.515  10.523 -11.563  1.00  0.00     0.002 C 
HETATM   22  C13 UNL     1      29.967  11.603 -10.646  1.00  0.00     0.025 C 
ENDBRANCH  15  17
ENDBRANCH   5  15
TORSDOF 3
ENDMDL
MODEL 3
REMARK VINA RESULT: -7.543830924      1.433      5.622
REMARK  3 active torsions:
REMARK  status: ('A' for Active; 'I' for Inactive)
REMARK    1  A    between atoms: C3_5  and  C4_6 
REMARK    2  A    between atoms: C7_10  and  N2_11 
REMARK    3  A    between atoms: N2_11  and  C8_13 
ROOT
HETATM    1  C4  UNL     1      31.271  14.658  -8.230  1.00  0.00     0.076 A 
HETATM    2  S1  UNL     1      32.092  16.147  -8.552  1.00  0.00    -0.096 SA
HETATM    3  C5  UNL     1      30.903  16.919  -9.479  1.00  0.00     0.053 A 
HETATM    4  C6  UNL     1      29.890  16.001  -9.518  1.00  0.00     0.038 A 
HETATM    5  C7  UNL     1      30.080  14.832  -8.873  1.00  0.00     0.050 A 
ENDROOT
BRANCH   1   6
HETATM    6  C3  UNL     1      31.802  13.525  -7.438  1.00  0.00     0.141 A 
HETATM    7  N1  UNL     1      31.190  12.682  -6.620  1.00  0.00    -0.329 N 
HETATM    8  C2  UNL     1      32.082  11.815  -6.123  1.00  0.00     0.093 A 
ATOM      9  H1  UNL     1      30.193  12.692  -6.403  1.00  0.00     0.168 HD
HETATM   10  C1  UNL     1      31.894  10.694  -5.177  1.00  0.00     0.090 C 
HETATM   11  N4  UNL     1      33.262  12.146  -6.657  1.00  0.00    -0.288 N 
HETATM   12  N3  UNL     1      33.096  13.174  -7.448  1.00  0.00    -0.283 N 
ATOM     13  H4  UNL     1      34.148  11.674  -6.478  1.00  0.00     0.188 HD
ATOM     14  H3  UNL     1      33.830  13.635  -7.985  1.00  0.00     0.188 HD
ENDBRANCH   1   6
BRANCH   5  15
HETATM   15  N2  UNL     1      29.072  13.779  -8.864  1.00  0.00    -0.384 N 
ATOM     16  H2  UNL     1      28.418  13.732  -8.083  1.00  0.00     0.160 HD
BRANCH  15  17
HETATM   17  C8  UNL     1      28.965  12.796  -9.926  1.00  0.00     0.081 C 
HETATM   18  C9  UNL     1      29.779  13.247 -11.077  1.00  0.00     0.025 C 
HETATM   19  C10 UNL     1      28.903  13.702 -12.229  1.00  0.00     0.002 C 
HETATM   20  C11 UNL     1      28.150  12.463 -12.662  1.00  0.00     0.000 C 
HETATM   21  C12 UNL     1      27.256  11.930 -11.579  1.00  0.00     0.002 C 
HETATM   22  C13 UNL     1      27.546  12.449 -10.216  1.00  0.00     0.025 C 
ENDBRANCH  15  17
ENDBRANCH   5  15
TORSDOF 3
ENDMDL
MODEL 4
REMARK VINA RESULT: -7.182162426      0.862      1.466
REMARK  3 active torsions:
REMARK  status: ('A' for Active; 'I' for Inactive)
REMARK    1  A    between atoms: C3_5  and  C4_6 
REMARK    2  A    between atoms: C7_10  and  N2_11 
REMARK    3  A    between atoms: N2_11  and  C8_13 
ROOT
HETATM    1  C4  UNL     1      30.319  14.513  -9.201  1.00  0.00     0.076 A 
HETATM    2  S1  UNL     1      30.722  16.109  -9.738  1.00  0.00    -0.096 SA
HETATM    3  C5  UNL     1      32.014  16.431  -8.692  1.00  0.00     0.053 A 
HETATM    4  C6  UNL     1      32.106  15.288  -7.946  1.00  0.00     0.038 A 
HETATM    5  C7  UNL     1      31.230  14.297  -8.209  1.00  0.00     0.050 A 
ENDROOT
BRANCH   1   6
HETATM    6  C3  UNL     1      29.237  13.660  -9.744  1.00  0.00     0.141 A 
HETATM    7  N1  UNL     1      29.220  12.367 -10.029  1.00  0.00    -0.329 N 
HETATM    8  C2  UNL     1      28.013  12.030 -10.502  1.00  0.00     0.093 A 
ATOM      9  H1  UNL     1      30.004  11.726  -9.906  1.00  0.00     0.168 HD
HETATM   10  C1  UNL     1      27.499  10.719 -10.955  1.00  0.00     0.090 C 
HETATM   11  N4  UNL     1      27.285  13.152 -10.502  1.00  0.00    -0.288 N 
HETATM   12  N3  UNL     1      28.021  14.133 -10.046  1.00  0.00    -0.283 N 
ATOM     13  H4  UNL     1      26.316  13.231 -10.806  1.00  0.00     0.188 HD
ATOM     14  H3  UNL     1      27.718  15.101  -9.938  1.00  0.00     0.188 HD
ENDBRANCH   1   6
BRANCH   5  15
HETATM   15  N2  UNL     1      31.230  13.044  -7.464  1.00  0.00    -0.384 N 
ATOM     16  H2  UNL     1      30.342  12.573  -7.293  1.00  0.00     0.160 HD
BRANCH  15  17
HETATM   17  C8  UNL     1      32.448  12.441  -6.954  1.00  0.00     0.081 C 
HETATM   18  C9  UNL     1      32.090  11.444  -5.920  1.00  0.00     0.025 C 
HETATM   19  C10 UNL     1      32.464  11.929  -4.532  1.00  0.00     0.002 C 
HETATM   20  C11 UNL     1      33.973  12.044  -4.550  1.00  0.00     0.000 C 
HETATM   21  C12 UNL     1      34.457  13.060  -5.545  1.00  0.00     0.002 C 
HETATM   22  C13 UNL     1      33.451  13.470  -6.561  1.00  0.00     0.025 C 
ENDBRANCH  15  17
ENDBRANCH   5  15
TORSDOF 3
ENDMDL
MODEL 5
REMARK VINA RESULT: -6.601750958      3.244      5.504
REMARK  3 active torsions:
REMARK  status: ('A' for Active; 'I' for Inactive)
REMARK    1  A    between atoms: C3_5  and  C4_6 
REMARK    2  A    between atoms: C7_10  and  N2_11 
REMARK    3  A    between atoms: N2_11  and  C8_13 
ROOT
HETATM    1  C4  UNL     1      27.907  11.621 -12.233  1.00  0.00     0.076 A 
HETATM    2  S1  UNL     1      28.091  10.168 -13.156  1.00  0.00    -0.096 SA
HETATM    3  C5  UNL     1      29.191   9.350 -12.161  1.00  0.00     0.053 A 
HETATM    4  C6  UNL     1      29.390  10.225 -11.128  1.00  0.00     0.038 A 
HETATM    5  C7  UNL     1      28.727  11.398 -11.166  1.00  0.00     0.050 A 
ENDROOT
BRANCH   1   6
HETATM    6  C3  UNL     1      27.045  12.772 -12.586  1.00  0.00     0.141 A 
HETATM    7  N1  UNL     1      27.189  13.703 -13.517  1.00  0.00    -0.329 N 
HETATM    8  C2  UNL     1      26.151  14.549 -13.466  1.00  0.00     0.093 A 
ATOM      9  H1  UNL     1      27.968  13.766 -14.172  1.00  0.00     0.168 HD
HETATM   10  C1  UNL     1      25.854  15.741 -14.289  1.00  0.00     0.090 C 
HETATM   11  N4  UNL     1      25.363  14.114 -12.478  1.00  0.00    -0.288 N 
HETATM   12  N3  UNL     1      25.899  13.046 -11.947  1.00  0.00    -0.283 N 
ATOM     13  H4  UNL     1      24.486  14.545 -12.185  1.00  0.00     0.188 HD
ATOM     14  H3  UNL     1      25.509  12.508 -11.174  1.00  0.00     0.188 HD
ENDBRANCH   1   6
BRANCH   5  15
HETATM   15  N2  UNL     1      28.879  12.408 -10.125  1.00  0.00    -0.384 N 
ATOM     16  H2  UNL     1      28.220  12.415  -9.347  1.00  0.00     0.160 HD
BRANCH  15  17
HETATM   17  C8  UNL     1      29.935  13.404 -10.155  1.00  0.00     0.081 C 
HETATM   18  C9  UNL     1      31.022  12.972  -9.248  1.00  0.00     0.025 C 
HETATM   19  C10 UNL     1      31.073  13.831  -7.998  1.00  0.00     0.002 C 
HETATM   20  C11 UNL     1      31.415  15.221  -8.490  1.00  0.00     0.000 C 
HETATM   21  C12 UNL     1      30.358  15.781  -9.399  1.00  0.00     0.002 C 
HETATM   22  C13 UNL     1      29.404  14.779  -9.942  1.00  0.00     0.025 C 
ENDBRANCH  15  17
ENDBRANCH   5  15
TORSDOF 3
ENDMDL
