MODEL 1
REMARK VINA RESULT: -8.294040287      0.000      0.000
REMARK  5 active torsions:
REMARK  status: ('A' for Active; 'I' for Inactive)
REMARK    1  A    between atoms: O1_1  and  N1_3 
REMARK    2  A    between atoms: C1_5  and  O2_6 
REMARK    3  A    between atoms: C1_5  and  C2_8 
REMARK    4  A    between atoms: C3_9  and  C4_10 
REMARK    5  A    between atoms: C6_13  and  C7_14 
ROOT
HETATM    1  C4  UNL     1      30.607  13.768  -8.215  1.00  0.00     0.039 A 
HETATM    2  C5  UNL     1      31.448  14.834  -8.433  1.00  0.00     0.081 A 
HETATM    3  S1  UNL     1      32.839  14.358  -7.554  1.00  0.00    -0.086 SA
HETATM    4  C6  UNL     1      32.272  12.859  -6.975  1.00  0.00     0.055 A 
HETATM    5  N2  UNL     1      31.054  12.798  -7.482  1.00  0.00    -0.353 N 
ATOM      6  H2  UNL     1      30.464  11.987  -7.295  1.00  0.00     0.166 HD
ENDROOT
BRANCH   1   7
HETATM    7  C3  UNL     1      29.243  13.746  -8.808  1.00  0.00     0.034 C 
HETATM    8  C2  UNL     1      28.966  12.972  -9.837  1.00  0.00     0.060 C 
BRANCH   8   9
HETATM    9  C1  UNL     1      27.622  12.982 -10.385  1.00  0.00     0.159 C 
HETATM   10  N1  UNL     1      27.163  14.042 -10.952  1.00  0.00    -0.248 N 
ATOM     11  H1  UNL     1      27.755  14.871 -11.011  1.00  0.00     0.196 HD
BRANCH  10  12
HETATM   12  O1  UNL     1      25.896  14.086 -11.481  1.00  0.00    -0.288 OA
ATOM     13  H1  UNL     1      25.739  14.347 -12.381  1.00  0.00     0.244 HD
ENDBRANCH  10  12
BRANCH   9  14
HETATM   14  O2  UNL     1      26.810  11.843 -10.305  1.00  0.00    -0.345 OA
ATOM     15  H2  UNL     1      26.795  11.232 -11.033  1.00  0.00     0.219 HD
ENDBRANCH   9  14
ENDBRANCH   8   9
ENDBRANCH   1   7
BRANCH   4  16
HETATM   16  C7  UNL     1      32.965  11.850  -6.110  1.00  0.00     0.043 C 
HETATM   17  C8  UNL     1      33.784  12.559  -5.042  1.00  0.00     0.011 C 
HETATM   18  C9  UNL     1      34.719  11.527  -4.450  1.00  0.00     0.001 C 
HETATM   19  C10 UNL     1      33.979  10.230  -4.217  1.00  0.00     0.000 C 
HETATM   20  C11 UNL     1      32.493  10.528  -4.040  1.00  0.00     0.001 C 
HETATM   21  C12 UNL     1      31.965  10.978  -5.384  1.00  0.00     0.011 C 
ENDBRANCH   4  16
TORSDOF 5
ENDMDL
MODEL 2
REMARK VINA RESULT: -8.212637806      0.529      1.235
REMARK  5 active torsions:
REMARK  status: ('A' for Active; 'I' for Inactive)
REMARK    1  A    between atoms: O1_1  and  N1_3 
REMARK    2  A    between atoms: C1_5  and  O2_6 
REMARK    3  A    between atoms: C1_5  and  C2_8 
REMARK    4  A    between atoms: C3_9  and  C4_10 
REMARK    5  A    between atoms: C6_13  and  C7_14 
ROOT
HETATM    1  C4  UNL     1      30.552  13.704  -8.181  1.00  0.00     0.039 A 
HETATM    2  C5  UNL     1      31.515  14.571  -8.642  1.00  0.00     0.081 A 
HETATM    3  S1  UNL     1      32.835  14.192  -7.619  1.00  0.00    -0.086 SA
HETATM    4  C6  UNL     1      32.091  12.976  -6.685  1.00  0.00     0.055 A 
HETATM    5  N2  UNL     1      30.877  12.921  -7.202  1.00  0.00    -0.353 N 
ATOM      6  H2  UNL     1      30.194  12.262  -6.829  1.00  0.00     0.166 HD
ENDROOT
BRANCH   1   7
HETATM    7  C3  UNL     1      29.198  13.681  -8.796  1.00  0.00     0.034 C 
HETATM    8  C2  UNL     1      28.952  12.942  -9.859  1.00  0.00     0.060 C 
BRANCH   8   9
HETATM    9  C1  UNL     1      27.617  12.948 -10.428  1.00  0.00     0.159 C 
HETATM   10  N1  UNL     1      27.142  14.024 -10.952  1.00  0.00    -0.248 N 
ATOM     11  H1  UNL     1      27.716  14.867 -10.961  1.00  0.00     0.196 HD
BRANCH  10  12
HETATM   12  O1  UNL     1      25.883  14.065 -11.498  1.00  0.00    -0.288 OA
ATOM     13  H1  UNL     1      25.415  14.884 -11.613  1.00  0.00     0.244 HD
ENDBRANCH  10  12
BRANCH   9  14
HETATM   14  O2  UNL     1      26.830  11.789 -10.416  1.00  0.00    -0.345 OA
ATOM     15  H2  UNL     1      27.254  10.942 -10.342  1.00  0.00     0.219 HD
ENDBRANCH   9  14
ENDBRANCH   8   9
ENDBRANCH   1   7
BRANCH   4  16
HETATM   16  C7  UNL     1      32.655  12.162  -5.560  1.00  0.00     0.043 C 
HETATM   17  C8  UNL     1      31.833  10.896  -5.374  1.00  0.00     0.011 C 
HETATM   18  C9  UNL     1      32.220  10.316  -4.031  1.00  0.00     0.001 C 
HETATM   19  C10 UNL     1      33.719  10.378  -3.851  1.00  0.00     0.000 C 
HETATM   20  C11 UNL     1      34.386  10.389  -5.224  1.00  0.00     0.001 C 
HETATM   21  C12 UNL     1      34.070  11.722  -5.863  1.00  0.00     0.011 C 
ENDBRANCH   4  16
TORSDOF 5
ENDMDL
MODEL 3
REMARK VINA RESULT: -7.307058166      4.035      7.489
REMARK  5 active torsions:
REMARK  status: ('A' for Active; 'I' for Inactive)
REMARK    1  A    between atoms: O1_1  and  N1_3 
REMARK    2  A    between atoms: C1_5  and  O2_6 
REMARK    3  A    between atoms: C1_5  and  C2_8 
REMARK    4  A    between atoms: C3_9  and  C4_10 
REMARK    5  A    between atoms: C6_13  and  C7_14 
ROOT
HETATM    1  C4  UNL     1      31.920  13.547  -7.914  1.00  0.00     0.039 A 
HETATM    2  C5  UNL     1      31.996  14.912  -8.070  1.00  0.00     0.081 A 
HETATM    3  S1  UNL     1      30.632  15.220  -9.059  1.00  0.00    -0.086 SA
HETATM    4  C6  UNL     1      30.062  13.620  -9.210  1.00  0.00     0.055 A 
HETATM    5  N2  UNL     1      30.940  12.936  -8.498  1.00  0.00    -0.353 N 
ATOM      6  H2  UNL     1      30.845  11.924  -8.409  1.00  0.00     0.166 HD
ENDROOT
BRANCH   1   7
HETATM    7  C3  UNL     1      32.934  12.821  -7.103  1.00  0.00     0.034 C 
HETATM    8  C2  UNL     1      33.713  13.467  -6.260  1.00  0.00     0.060 C 
BRANCH   8   9
HETATM    9  C1  UNL     1      34.689  12.720  -5.488  1.00  0.00     0.159 C 
HETATM   10  N1  UNL     1      35.717  13.317  -4.995  1.00  0.00    -0.248 N 
ATOM     11  H1  UNL     1      35.833  14.319  -5.153  1.00  0.00     0.196 HD
BRANCH  10  12
HETATM   12  O1  UNL     1      36.661  12.641  -4.261  1.00  0.00    -0.288 OA
ATOM     13  H1  UNL     1      37.388  13.091  -3.847  1.00  0.00     0.244 HD
ENDBRANCH  10  12
BRANCH   9  14
HETATM   14  O2  UNL     1      34.528  11.346  -5.271  1.00  0.00    -0.345 OA
ATOM     15  H2  UNL     1      34.711  10.740  -5.980  1.00  0.00     0.219 HD
ENDBRANCH   9  14
ENDBRANCH   8   9
ENDBRANCH   1   7
BRANCH   4  16
HETATM   16  C7  UNL     1      28.870  13.102  -9.956  1.00  0.00     0.043 C 
HETATM   17  C8  UNL     1      28.370  14.157 -10.930  1.00  0.00     0.011 C 
HETATM   18  C9  UNL     1      26.990  13.724 -11.375  1.00  0.00     0.001 C 
HETATM   19  C10 UNL     1      26.980  12.241 -11.665  1.00  0.00     0.000 C 
HETATM   20  C11 UNL     1      28.392  11.795 -12.034  1.00  0.00     0.001 C 
HETATM   21  C12 UNL     1      29.230  11.885 -10.778  1.00  0.00     0.011 C 
ENDBRANCH   4  16
TORSDOF 5
ENDMDL
MODEL 4
REMARK VINA RESULT: -7.271872422      4.119      7.316
REMARK  5 active torsions:
REMARK  status: ('A' for Active; 'I' for Inactive)
REMARK    1  A    between atoms: O1_1  and  N1_3 
REMARK    2  A    between atoms: C1_5  and  O2_6 
REMARK    3  A    between atoms: C1_5  and  C2_8 
REMARK    4  A    between atoms: C3_9  and  C4_10 
REMARK    5  A    between atoms: C6_13  and  C7_14 
ROOT
HETATM    1  C4  UNL     1      32.034  13.428  -7.865  1.00  0.00     0.039 A 
HETATM    2  C5  UNL     1      31.989  14.802  -7.896  1.00  0.00     0.081 A 
HETATM    3  S1  UNL     1      30.833  15.080  -9.128  1.00  0.00    -0.086 SA
HETATM    4  C6  UNL     1      30.485  13.458  -9.519  1.00  0.00     0.055 A 
HETATM    5  N2  UNL     1      31.267  12.790  -8.690  1.00  0.00    -0.353 N 
ATOM      6  H2  UNL     1      31.267  11.770  -8.701  1.00  0.00     0.166 HD
ENDROOT
BRANCH   1   7
HETATM    7  C3  UNL     1      32.932  12.721  -6.913  1.00  0.00     0.034 C 
HETATM    8  C2  UNL     1      33.820  13.387  -6.202  1.00  0.00     0.060 C 
BRANCH   8   9
HETATM    9  C1  UNL     1      34.678  12.658  -5.286  1.00  0.00     0.159 C 
HETATM   10  N1  UNL     1      35.831  13.131  -4.966  1.00  0.00    -0.248 N 
ATOM     11  H1  UNL     1      36.131  14.022  -5.364  1.00  0.00     0.196 HD
BRANCH  10  12
HETATM   12  O1  UNL     1      36.669  12.468  -4.103  1.00  0.00    -0.288 OA
ATOM     13  H1  UNL     1      37.546  12.207  -4.360  1.00  0.00     0.244 HD
ENDBRANCH  10  12
BRANCH   9  14
HETATM   14  O2  UNL     1      34.265  11.436  -4.739  1.00  0.00    -0.345 OA
ATOM     15  H2  UNL     1      34.820  10.672  -4.843  1.00  0.00     0.219 HD
ENDBRANCH   9  14
ENDBRANCH   8   9
ENDBRANCH   1   7
BRANCH   4  16
HETATM   16  C7  UNL     1      29.535  12.908 -10.540  1.00  0.00     0.043 C 
HETATM   17  C8  UNL     1      29.927  11.483 -10.897  1.00  0.00     0.011 C 
HETATM   18  C9  UNL     1      29.173  11.124 -12.159  1.00  0.00     0.001 C 
HETATM   19  C10 UNL     1      27.743  11.603 -12.064  1.00  0.00     0.000 C 
HETATM   20  C11 UNL     1      27.347  11.699 -10.593  1.00  0.00     0.001 C 
HETATM   21  C12 UNL     1      28.126  12.848  -9.995  1.00  0.00     0.011 C 
ENDBRANCH   4  16
TORSDOF 5
ENDMDL
MODEL 5
REMARK VINA RESULT: -7.243055946      3.915      7.213
REMARK  5 active torsions:
REMARK  status: ('A' for Active; 'I' for Inactive)
REMARK    1  A    between atoms: O1_1  and  N1_3 
REMARK    2  A    between atoms: C1_5  and  O2_6 
REMARK    3  A    between atoms: C1_5  and  C2_8 
REMARK    4  A    between atoms: C3_9  and  C4_10 
REMARK    5  A    between atoms: C6_13  and  C7_14 
ROOT
HETATM    1  C4  UNL     1      32.270  13.125  -7.303  1.00  0.00     0.039 A 
HETATM    2  C5  UNL     1      32.575  14.457  -7.462  1.00  0.00     0.081 A 
HETATM    3  S1  UNL     1      31.411  14.940  -8.621  1.00  0.00    -0.086 SA
HETATM    4  C6  UNL     1      30.624  13.443  -8.829  1.00  0.00     0.055 A 
HETATM    5  N2  UNL     1      31.288  12.654  -8.003  1.00  0.00    -0.353 N 
ATOM      6  H2  UNL     1      31.026  11.672  -7.917  1.00  0.00     0.166 HD
ENDROOT
BRANCH   1   7
HETATM    7  C3  UNL     1      33.048  12.277  -6.362  1.00  0.00     0.034 C 
HETATM    8  C2  UNL     1      32.438  11.440  -5.547  1.00  0.00     0.060 C 
BRANCH   8   9
HETATM    9  C1  UNL     1      33.235  10.630  -4.643  1.00  0.00     0.159 C 
HETATM   10  N1  UNL     1      34.337  10.103  -5.047  1.00  0.00    -0.248 N 
ATOM     11  H1  UNL     1      34.641  10.262  -6.008  1.00  0.00     0.196 HD
BRANCH  10  12
HETATM   12  O1  UNL     1      35.114   9.331  -4.218  1.00  0.00    -0.288 OA
ATOM     13  H1  UNL     1      34.839   8.466  -3.939  1.00  0.00     0.244 HD
ENDBRANCH  10  12
BRANCH   9  14
HETATM   14  O2  UNL     1      32.817  10.413  -3.323  1.00  0.00    -0.345 OA
ATOM     15  H2  UNL     1      33.429  10.042  -2.699  1.00  0.00     0.219 HD
ENDBRANCH   9  14
ENDBRANCH   8   9
ENDBRANCH   1   7
BRANCH   4  16
HETATM   16  C7  UNL     1      29.469  13.091  -9.717  1.00  0.00     0.043 C 
HETATM   17  C8  UNL     1      29.090  14.289 -10.573  1.00  0.00     0.011 C 
HETATM   18  C9  UNL     1      27.730  13.993 -11.165  1.00  0.00     0.001 C 
HETATM   19  C10 UNL     1      27.675  12.563 -11.651  1.00  0.00     0.000 C 
HETATM   20  C11 UNL     1      29.090  12.093 -11.979  1.00  0.00     0.001 C 
HETATM   21  C12 UNL     1      29.835  11.974 -10.668  1.00  0.00     0.011 C 
ENDBRANCH   4  16
TORSDOF 5
ENDMDL
