MODEL 1
REMARK VINA RESULT: -4.578527716      0.000      0.000
REMARK  2 active torsions:
REMARK  status: ('A' for Active; 'I' for Inactive)
REMARK    1  A    between atoms: C1_2  and  C2_3 
REMARK    2  A    between atoms: C2_3  and  C3_4 
ROOT
HETATM    1  C3  UNL     1      49.129  32.355   3.825  1.00  0.00     0.048 C 
HETATM    2  C4  UNL     1      48.781  31.801   5.156  1.00  0.00     0.279 C 
HETATM    3  N1  UNL     1      48.634  30.490   4.485  1.00  0.00     0.093 N 
HETATM    4  C5  UNL     1      47.439  29.783   4.886  1.00  0.00     0.273 C 
HETATM    5  C6  UNL     1      46.268  30.703   4.738  1.00  0.00     0.032 C 
HETATM    6  C7  UNL     1      46.736  31.671   3.656  1.00  0.00     0.038 C 
HETATM    7  C8  UNL     1      48.136  31.287   3.353  1.00  0.00     0.228 C 
ENDROOT
BRANCH   1   8
HETATM    8  C2  UNL     1      50.478  32.112   3.267  1.00  0.00     0.019 C 
BRANCH   8   9
HETATM    9  C1  UNL     1      51.421  33.237   3.183  1.00  0.00     0.086 C 
HETATM   10  S1  UNL     1      51.544  34.374   4.535  1.00  0.00    -0.098 SA
ENDBRANCH   8   9
ENDBRANCH   1   8
TORSDOF 2
ENDMDL
MODEL 2
REMARK VINA RESULT: -4.396346814      3.069      4.566
REMARK  2 active torsions:
REMARK  status: ('A' for Active; 'I' for Inactive)
REMARK    1  A    between atoms: C1_2  and  C2_3 
REMARK    2  A    between atoms: C2_3  and  C3_4 
ROOT
HETATM    1  C3  UNL     1      47.391  30.266   4.670  1.00  0.00     0.048 C 
HETATM    2  C4  UNL     1      48.676  30.608   5.327  1.00  0.00     0.279 C 
HETATM    3  N1  UNL     1      48.346  32.026   5.058  1.00  0.00     0.093 N 
HETATM    4  C5  UNL     1      49.464  32.773   4.526  1.00  0.00     0.273 C 
HETATM    5  C6  UNL     1      50.027  32.022   3.360  1.00  0.00     0.032 C 
HETATM    6  C7  UNL     1      48.828  31.218   2.867  1.00  0.00     0.038 C 
HETATM    7  C8  UNL     1      47.734  31.500   3.828  1.00  0.00     0.228 C 
ENDROOT
BRANCH   1   8
HETATM    8  C2  UNL     1      46.123  30.462   5.408  1.00  0.00     0.019 C 
BRANCH   8   9
HETATM    9  C1  UNL     1      44.924  30.862   4.656  1.00  0.00     0.086 C 
HETATM   10  S1  UNL     1      43.320  30.502   5.317  1.00  0.00    -0.098 SA
ENDBRANCH   8   9
ENDBRANCH   1   8
TORSDOF 2
ENDMDL
MODEL 3
REMARK VINA RESULT: -4.226761842      3.446      4.991
REMARK  2 active torsions:
REMARK  status: ('A' for Active; 'I' for Inactive)
REMARK    1  A    between atoms: C1_2  and  C2_3 
REMARK    2  A    between atoms: C2_3  and  C3_4 
ROOT
HETATM    1  C3  UNL     1      49.547  33.774   4.617  1.00  0.00     0.048 C 
HETATM    2  C4  UNL     1      50.958  34.152   4.365  1.00  0.00     0.279 C 
HETATM    3  N1  UNL     1      51.140  34.152   5.834  1.00  0.00     0.093 N 
HETATM    4  C5  UNL     1      51.867  35.307   6.312  1.00  0.00     0.273 C 
HETATM    5  C6  UNL     1      51.225  36.538   5.754  1.00  0.00     0.032 C 
HETATM    6  C7  UNL     1      49.787  36.089   5.515  1.00  0.00     0.038 C 
HETATM    7  C8  UNL     1      49.755  34.647   5.860  1.00  0.00     0.228 C 
ENDROOT
BRANCH   1   8
HETATM    8  C2  UNL     1      49.225  32.380   4.995  1.00  0.00     0.019 C 
BRANCH   8   9
HETATM    9  C1  UNL     1      48.547  31.522   4.012  1.00  0.00     0.086 C 
HETATM   10  S1  UNL     1      47.788  30.013   4.547  1.00  0.00    -0.098 SA
ENDBRANCH   8   9
ENDBRANCH   1   8
TORSDOF 2
ENDMDL
MODEL 4
REMARK VINA RESULT: -4.133352027      3.100      4.755
REMARK  2 active torsions:
REMARK  status: ('A' for Active; 'I' for Inactive)
REMARK    1  A    between atoms: C1_2  and  C2_3 
REMARK    2  A    between atoms: C2_3  and  C3_4 
ROOT
HETATM    1  C3  UNL     1      49.813  32.769   4.805  1.00  0.00     0.048 C 
HETATM    2  C4  UNL     1      49.648  33.618   6.009  1.00  0.00     0.279 C 
HETATM    3  N1  UNL     1      49.355  34.736   5.085  1.00  0.00     0.093 N 
HETATM    4  C5  UNL     1      50.050  35.954   5.436  1.00  0.00     0.273 C 
HETATM    5  C6  UNL     1      51.504  35.640   5.608  1.00  0.00     0.032 C 
HETATM    6  C7  UNL     1      51.689  34.411   4.725  1.00  0.00     0.038 C 
HETATM    7  C8  UNL     1      50.338  34.081   4.209  1.00  0.00     0.228 C 
ENDROOT
BRANCH   1   8
HETATM    8  C2  UNL     1      48.613  32.298   4.078  1.00  0.00     0.019 C 
BRANCH   8   9
HETATM    9  C1  UNL     1      48.417  30.851   3.903  1.00  0.00     0.086 C 
HETATM   10  S1  UNL     1      47.358  29.974   5.020  1.00  0.00    -0.098 SA
ENDBRANCH   8   9
ENDBRANCH   1   8
TORSDOF 2
ENDMDL
MODEL 5
REMARK VINA RESULT: -4.129166266      1.356      1.973
REMARK  2 active torsions:
REMARK  status: ('A' for Active; 'I' for Inactive)
REMARK    1  A    between atoms: C1_2  and  C2_3 
REMARK    2  A    between atoms: C2_3  and  C3_4 
ROOT
HETATM    1  C3  UNL     1      49.957  32.550   4.591  1.00  0.00     0.048 C 
HETATM    2  C4  UNL     1      49.407  31.839   3.412  1.00  0.00     0.279 C 
HETATM    3  N1  UNL     1      48.066  32.243   3.892  1.00  0.00     0.093 N 
HETATM    4  C5  UNL     1      47.105  31.164   3.854  1.00  0.00     0.273 C 
HETATM    5  C6  UNL     1      47.694  29.976   4.548  1.00  0.00     0.032 C 
HETATM    6  C7  UNL     1      48.689  30.611   5.515  1.00  0.00     0.038 C 
HETATM    7  C8  UNL     1      48.651  32.067   5.230  1.00  0.00     0.228 C 
ENDROOT
BRANCH   1   8
HETATM    8  C2  UNL     1      50.029  34.028   4.581  1.00  0.00     0.019 C 
BRANCH   8   9
HETATM    9  C1  UNL     1      51.351  34.671   4.621  1.00  0.00     0.086 C 
HETATM   10  S1  UNL     1      52.654  34.052   3.593  1.00  0.00    -0.098 SA
ENDBRANCH   8   9
ENDBRANCH   1   8
TORSDOF 2
ENDMDL
