MODEL 1
REMARK VINA RESULT: -5.509560386      0.000      0.000
REMARK  2 active torsions:
REMARK  status: ('A' for Active; 'I' for Inactive)
REMARK    1  A    between atoms: C2_3  and  N2_4 
REMARK    2  A    between atoms: N2_4  and  C3_6 
ROOT
HETATM    1  N1  UNL     1      53.581  34.646   7.014  1.00  0.00    -0.191 NA
HETATM    2  C1  UNL     1      52.588  34.756   6.394  1.00  0.00     0.104 C 
HETATM    3  C2  UNL     1      51.351  34.936   5.666  1.00  0.00     0.178 C 
ENDROOT
BRANCH   3   4
HETATM    4  N2  UNL     1      51.370  34.413   4.370  1.00  0.00    -0.386 N 
ATOM      5  H2  UNL     1      52.104  34.697   3.722  1.00  0.00     0.159 HD
BRANCH   4   6
HETATM    6  C3  UNL     1      50.379  33.492   3.946  1.00  0.00     0.081 C 
HETATM    7  C4  UNL     1      49.462  33.116   5.054  1.00  0.00     0.025 C 
HETATM    8  C5  UNL     1      48.908  31.699   4.917  1.00  0.00     0.002 C 
HETATM    9  C6  UNL     1      48.101  31.655   3.648  1.00  0.00     0.000 C 
HETATM   10  C7  UNL     1      48.959  30.971   2.601  1.00  0.00     0.000 C 
HETATM   11  C8  UNL     1      50.101  31.808   2.122  1.00  0.00     0.002 C 
HETATM   12  C9  UNL     1      51.003  32.306   3.226  1.00  0.00     0.025 C 
ENDBRANCH   4   6
ENDBRANCH   3   4
TORSDOF 2
ENDMDL
MODEL 2
REMARK VINA RESULT: -5.403878293      1.354      2.433
REMARK  2 active torsions:
REMARK  status: ('A' for Active; 'I' for Inactive)
REMARK    1  A    between atoms: C2_3  and  N2_4 
REMARK    2  A    between atoms: N2_4  and  C3_6 
ROOT
HETATM    1  N1  UNL     1      54.139  35.671   8.186  1.00  0.00    -0.191 NA
HETATM    2  C1  UNL     1      53.220  35.340   7.530  1.00  0.00     0.104 C 
HETATM    3  C2  UNL     1      52.056  34.944   6.769  1.00  0.00     0.178 C 
ENDROOT
BRANCH   3   4
HETATM    4  N2  UNL     1      52.234  34.995   5.385  1.00  0.00    -0.386 N 
ATOM      5  H2  UNL     1      52.720  35.788   4.968  1.00  0.00     0.159 HD
BRANCH   4   6
HETATM    6  C3  UNL     1      51.745  33.956   4.553  1.00  0.00     0.081 C 
HETATM    7  C4  UNL     1      52.408  33.952   3.224  1.00  0.00     0.025 C 
HETATM    8  C5  UNL     1      51.508  33.430   2.106  1.00  0.00     0.002 C 
HETATM    9  C6  UNL     1      51.174  31.999   2.433  1.00  0.00     0.000 C 
HETATM   10  C7  UNL     1      49.767  31.992   3.001  1.00  0.00     0.000 C 
HETATM   11  C8  UNL     1      49.673  32.572   4.375  1.00  0.00     0.002 C 
HETATM   12  C9  UNL     1      50.225  33.973   4.489  1.00  0.00     0.025 C 
ENDBRANCH   4   6
ENDBRANCH   3   4
TORSDOF 2
ENDMDL
MODEL 3
REMARK VINA RESULT: -5.292160190      2.182      3.244
REMARK  2 active torsions:
REMARK  status: ('A' for Active; 'I' for Inactive)
REMARK    1  A    between atoms: C2_3  and  N2_4 
REMARK    2  A    between atoms: N2_4  and  C3_6 
ROOT
HETATM    1  N1  UNL     1      52.387  34.179   2.901  1.00  0.00    -0.191 NA
HETATM    2  C1  UNL     1      51.463  33.805   3.525  1.00  0.00     0.104 C 
HETATM    3  C2  UNL     1      50.316  33.400   4.308  1.00  0.00     0.178 C 
ENDROOT
BRANCH   3   4
HETATM    4  N2  UNL     1      49.799  32.150   3.958  1.00  0.00    -0.386 N 
ATOM      5  H2  UNL     1      50.367  31.504   3.412  1.00  0.00     0.159 HD
BRANCH   4   6
HETATM    6  C3  UNL     1      48.490  31.772   4.354  1.00  0.00     0.081 C 
HETATM    7  C4  UNL     1      48.510  30.656   5.335  1.00  0.00     0.025 C 
HETATM    8  C5  UNL     1      47.280  29.756   5.241  1.00  0.00     0.002 C 
HETATM    9  C6  UNL     1      46.079  30.603   5.566  1.00  0.00     0.000 C 
HETATM   10  C7  UNL     1      45.410  30.947   4.249  1.00  0.00     0.000 C 
HETATM   11  C8  UNL     1      46.176  31.933   3.427  1.00  0.00     0.002 C 
HETATM   12  C9  UNL     1      47.602  31.523   3.145  1.00  0.00     0.025 C 
ENDBRANCH   4   6
ENDBRANCH   3   4
TORSDOF 2
ENDMDL
MODEL 4
REMARK VINA RESULT: -5.272241110      1.203      2.288
REMARK  2 active torsions:
REMARK  status: ('A' for Active; 'I' for Inactive)
REMARK    1  A    between atoms: C2_3  and  N2_4 
REMARK    2  A    between atoms: N2_4  and  C3_6 
ROOT
HETATM    1  N1  UNL     1      52.996  34.311   6.161  1.00  0.00    -0.191 NA
HETATM    2  C1  UNL     1      52.154  34.347   5.340  1.00  0.00     0.104 C 
HETATM    3  C2  UNL     1      51.122  34.450   4.332  1.00  0.00     0.178 C 
ENDROOT
BRANCH   3   4
HETATM    4  N2  UNL     1      50.948  33.289   3.573  1.00  0.00    -0.386 N 
ATOM      5  H2  UNL     1      51.471  33.170   2.706  1.00  0.00     0.159 HD
BRANCH   4   6
HETATM    6  C3  UNL     1      50.051  32.276   3.996  1.00  0.00     0.081 C 
HETATM    7  C4  UNL     1      49.412  31.586   2.846  1.00  0.00     0.025 C 
HETATM    8  C5  UNL     1      48.009  31.072   3.160  1.00  0.00     0.002 C 
HETATM    9  C6  UNL     1      48.141  30.055   4.261  1.00  0.00     0.000 C 
HETATM   10  C7  UNL     1      47.724  30.740   5.548  1.00  0.00     0.000 C 
HETATM   11  C8  UNL     1      48.716  31.746   6.040  1.00  0.00     0.002 C 
HETATM   12  C9  UNL     1      49.067  32.808   5.026  1.00  0.00     0.025 C 
ENDBRANCH   4   6
ENDBRANCH   3   4
TORSDOF 2
ENDMDL
MODEL 5
REMARK VINA RESULT: -5.185541403      1.988      3.132
REMARK  2 active torsions:
REMARK  status: ('A' for Active; 'I' for Inactive)
REMARK    1  A    between atoms: C2_3  and  N2_4 
REMARK    2  A    between atoms: N2_4  and  C3_6 
ROOT
HETATM    1  N1  UNL     1      52.990  34.536   3.183  1.00  0.00    -0.191 NA
HETATM    2  C1  UNL     1      51.998  34.084   3.624  1.00  0.00     0.104 C 
HETATM    3  C2  UNL     1      50.764  33.580   4.186  1.00  0.00     0.178 C 
ENDROOT
BRANCH   3   4
HETATM    4  N2  UNL     1      50.338  32.369   3.634  1.00  0.00    -0.386 N 
ATOM      5  H2  UNL     1      50.754  32.037   2.765  1.00  0.00     0.159 HD
BRANCH   4   6
HETATM    6  C3  UNL     1      49.333  31.598   4.271  1.00  0.00     0.081 C 
HETATM    7  C4  UNL     1      48.200  31.300   3.356  1.00  0.00     0.025 C 
HETATM    8  C5  UNL     1      46.864  31.162   4.083  1.00  0.00     0.002 C 
HETATM    9  C6  UNL     1      46.985  29.993   5.023  1.00  0.00     0.000 C 
HETATM   10  C7  UNL     1      47.205  30.562   6.411  1.00  0.00     0.000 C 
HETATM   11  C8  UNL     1      48.562  31.160   6.606  1.00  0.00     0.002 C 
HETATM   12  C9  UNL     1      48.916  32.222   5.594  1.00  0.00     0.025 C 
ENDBRANCH   4   6
ENDBRANCH   3   4
TORSDOF 2
ENDMDL
