MODEL 1
REMARK VINA RESULT: -5.179911246      0.000      0.000
REMARK  3 active torsions:
REMARK  status: ('A' for Active; 'I' for Inactive)
REMARK    1  A    between atoms: C1_4  and  C2_5 
REMARK    2  A    between atoms: C2_5  and  N2_6 
REMARK    3  A    between atoms: C3_8  and  C4_9 
ROOT
HETATM    1  N2  UNL     1      57.426  27.273   9.249  1.00  0.00    -0.397 N 
ATOM      2  H2  UNL     1      57.981  26.723   8.594  1.00  0.00     0.159 HD
HETATM    3  C3  UNL     1      56.597  26.669  10.028  1.00  0.00     0.061 C 
ENDROOT
BRANCH   1   4
HETATM    4  C2  UNL     1      57.588  28.681   9.278  1.00  0.00     0.162 C 
BRANCH   4   5
HETATM    5  C1  UNL     1      56.984  29.316   8.080  1.00  0.00     0.072 C 
HETATM    6  N1  UNL     1      56.704  28.590   7.078  1.00  0.00    -0.410 N 
ATOM      7  H12 UNL     1      56.897  27.589   7.111  1.00  0.00     0.155 HD
ATOM      8  H11 UNL     1      56.289  29.027   6.254  1.00  0.00     0.155 HD
ENDBRANCH   4   5
ENDBRANCH   1   4
BRANCH   3   9
HETATM    9  C4  UNL     1      55.803  27.471  10.968  1.00  0.00     0.028 C 
HETATM   10  C5  UNL     1      56.295  27.266  12.417  1.00  0.00     0.014 C 
HETATM   11  C6  UNL     1      55.025  26.809  13.044  1.00  0.00    -0.013 C 
HETATM   12  C7  UNL     1      53.968  27.718  12.404  1.00  0.00     0.010 C 
HETATM   13  C9  UNL     1      54.535  25.768  12.029  1.00  0.00     0.010 C 
HETATM   14  C8  UNL     1      54.392  26.999  11.130  1.00  0.00    -0.005 C 
ENDBRANCH   3   9
TORSDOF 3
ENDMDL
MODEL 2
REMARK VINA RESULT: -5.122443133      9.632     10.468
REMARK  3 active torsions:
REMARK  status: ('A' for Active; 'I' for Inactive)
REMARK    1  A    between atoms: C1_4  and  C2_5 
REMARK    2  A    between atoms: C2_5  and  N2_6 
REMARK    3  A    between atoms: C3_8  and  C4_9 
ROOT
HETATM    1  N2  UNL     1      50.383  33.744   4.400  1.00  0.00    -0.397 N 
ATOM      2  H2  UNL     1      50.668  34.626   4.824  1.00  0.00     0.159 HD
HETATM    3  C3  UNL     1      49.263  33.213   4.749  1.00  0.00     0.061 C 
ENDROOT
BRANCH   1   4
HETATM    4  C2  UNL     1      51.232  33.135   3.442  1.00  0.00     0.162 C 
BRANCH   4   5
HETATM    5  C1  UNL     1      52.383  34.010   3.110  1.00  0.00     0.072 C 
HETATM    6  N1  UNL     1      53.317  34.142   3.959  1.00  0.00    -0.410 N 
ATOM      7  H12 UNL     1      53.262  33.647   4.850  1.00  0.00     0.155 HD
ATOM      8  H11 UNL     1      54.109  34.744   3.731  1.00  0.00     0.155 HD
ENDBRANCH   4   5
ENDBRANCH   1   4
BRANCH   3   9
HETATM    9  C4  UNL     1      48.864  31.942   4.130  1.00  0.00     0.028 C 
HETATM   10  C5  UNL     1      47.380  31.980   3.704  1.00  0.00     0.014 C 
HETATM   11  C6  UNL     1      46.878  30.802   4.461  1.00  0.00    -0.013 C 
HETATM   12  C7  UNL     1      48.000  29.770   4.292  1.00  0.00     0.010 C 
HETATM   13  C9  UNL     1      47.497  31.034   5.845  1.00  0.00     0.010 C 
HETATM   14  C8  UNL     1      48.804  30.792   5.086  1.00  0.00    -0.005 C 
ENDBRANCH   3   9
TORSDOF 3
ENDMDL
MODEL 3
REMARK VINA RESULT: -5.080720270      9.449     10.409
REMARK  3 active torsions:
REMARK  status: ('A' for Active; 'I' for Inactive)
REMARK    1  A    between atoms: C1_4  and  C2_5 
REMARK    2  A    between atoms: C2_5  and  N2_6 
REMARK    3  A    between atoms: C3_8  and  C4_9 
ROOT
HETATM    1  N2  UNL     1      51.070  33.250   3.821  1.00  0.00    -0.397 N 
ATOM      2  H2  UNL     1      51.986  33.331   3.380  1.00  0.00     0.159 HD
HETATM    3  C3  UNL     1      50.311  32.258   3.510  1.00  0.00     0.061 C 
ENDROOT
BRANCH   1   4
HETATM    4  C2  UNL     1      50.669  34.234   4.759  1.00  0.00     0.162 C 
BRANCH   4   5
HETATM    5  C1  UNL     1      51.781  34.591   5.673  1.00  0.00     0.072 C 
HETATM    6  N1  UNL     1      52.976  34.438   5.273  1.00  0.00    -0.410 N 
ATOM      7  H12 UNL     1      53.150  34.076   4.336  1.00  0.00     0.155 HD
ATOM      8  H11 UNL     1      53.741  34.684   5.901  1.00  0.00     0.155 HD
ENDBRANCH   4   5
ENDBRANCH   1   4
BRANCH   3   9
HETATM    9  C4  UNL     1      48.994  32.152   4.152  1.00  0.00     0.028 C 
HETATM   10  C5  UNL     1      48.981  31.014   5.196  1.00  0.00     0.014 C 
HETATM   11  C6  UNL     1      47.851  30.206   4.662  1.00  0.00    -0.013 C 
HETATM   12  C7  UNL     1      46.826  31.267   4.242  1.00  0.00     0.010 C 
HETATM   13  C9  UNL     1      48.189  30.149   3.167  1.00  0.00     0.010 C 
HETATM   14  C8  UNL     1      47.913  31.653   3.246  1.00  0.00    -0.005 C 
ENDBRANCH   3   9
TORSDOF 3
ENDMDL
MODEL 4
REMARK VINA RESULT: -4.992923561      9.780     10.578
REMARK  3 active torsions:
REMARK  status: ('A' for Active; 'I' for Inactive)
REMARK    1  A    between atoms: C1_4  and  C2_5 
REMARK    2  A    between atoms: C2_5  and  N2_6 
REMARK    3  A    between atoms: C3_8  and  C4_9 
ROOT
HETATM    1  N2  UNL     1      50.436  34.595   4.628  1.00  0.00    -0.397 N 
ATOM      2  H2  UNL     1      50.373  35.612   4.593  1.00  0.00     0.159 HD
HETATM    3  C3  UNL     1      49.360  33.896   4.524  1.00  0.00     0.061 C 
ENDROOT
BRANCH   1   4
HETATM    4  C2  UNL     1      51.707  33.989   4.787  1.00  0.00     0.162 C 
BRANCH   4   5
HETATM    5  C1  UNL     1      52.504  34.073   3.538  1.00  0.00     0.072 C 
HETATM    6  N1  UNL     1      53.706  34.473   3.604  1.00  0.00    -0.410 N 
ATOM      7  H12 UNL     1      54.103  34.729   4.508  1.00  0.00     0.155 HD
ATOM      8  H11 UNL     1      54.254  34.531   2.745  1.00  0.00     0.155 HD
ENDBRANCH   4   5
ENDBRANCH   1   4
BRANCH   3   9
HETATM    9  C4  UNL     1      49.463  32.432   4.575  1.00  0.00     0.028 C 
HETATM   10  C5  UNL     1      49.626  31.843   3.157  1.00  0.00     0.014 C 
HETATM   11  C6  UNL     1      48.460  30.920   3.140  1.00  0.00    -0.013 C 
HETATM   12  C7  UNL     1      48.474  30.308   4.546  1.00  0.00     0.010 C 
HETATM   13  C9  UNL     1      47.346  31.815   3.697  1.00  0.00     0.010 C 
HETATM   14  C8  UNL     1      48.194  31.744   4.970  1.00  0.00    -0.005 C 
ENDBRANCH   3   9
TORSDOF 3
ENDMDL
MODEL 5
REMARK VINA RESULT: -4.924707827      9.370     10.518
REMARK  3 active torsions:
REMARK  status: ('A' for Active; 'I' for Inactive)
REMARK    1  A    between atoms: C1_4  and  C2_5 
REMARK    2  A    between atoms: C2_5  and  N2_6 
REMARK    3  A    between atoms: C3_8  and  C4_9 
ROOT
HETATM    1  N2  UNL     1      50.010  34.656   5.408  1.00  0.00    -0.397 N 
ATOM      2  H2  UNL     1      49.923  35.672   5.382  1.00  0.00     0.159 HD
HETATM    3  C3  UNL     1      49.240  33.942   4.663  1.00  0.00     0.061 C 
ENDROOT
BRANCH   1   4
HETATM    4  C2  UNL     1      50.976  34.070   6.263  1.00  0.00     0.162 C 
BRANCH   4   5
HETATM    5  C1  UNL     1      52.150  34.960   6.439  1.00  0.00     0.072 C 
HETATM    6  N1  UNL     1      53.296  34.536   6.099  1.00  0.00    -0.410 N 
ATOM      7  H12 UNL     1      53.392  33.597   5.713  1.00  0.00     0.155 HD
ATOM      8  H11 UNL     1      54.104  35.148   6.220  1.00  0.00     0.155 HD
ENDBRANCH   4   5
ENDBRANCH   1   4
BRANCH   3   9
HETATM    9  C4  UNL     1      49.375  32.480   4.709  1.00  0.00     0.028 C 
HETATM   10  C5  UNL     1      49.738  31.918   3.317  1.00  0.00     0.014 C 
HETATM   11  C6  UNL     1      48.609  30.966   3.136  1.00  0.00    -0.013 C 
HETATM   12  C7  UNL     1      48.455  30.334   4.524  1.00  0.00     0.010 C 
HETATM   13  C9  UNL     1      47.408  31.825   3.553  1.00  0.00     0.010 C 
HETATM   14  C8  UNL     1      48.084  31.756   4.925  1.00  0.00    -0.005 C 
ENDBRANCH   3   9
TORSDOF 3
ENDMDL
