MODEL 1
REMARK VINA RESULT: -5.155018669      0.000      0.000
REMARK  3 active torsions:
REMARK  status: ('A' for Active; 'I' for Inactive)
REMARK    1  A    between atoms: N1_1  and  C1_5 
REMARK    2  A    between atoms: C1_5  and  C2_6 
REMARK    3  A    between atoms: C2_6  and  C3_7 
ROOT
HETATM    1  C3  UNL     1      51.135  33.584   3.690  1.00  0.00     0.122 C 
HETATM    2  C4  UNL     1      50.023  33.816   4.623  1.00  0.00     0.032 C 
HETATM    3  C5  UNL     1      49.123  32.714   4.955  1.00  0.00     0.002 C 
HETATM    4  C6  UNL     1      49.253  31.444   4.193  1.00  0.00     0.002 C 
HETATM    5  C7  UNL     1      49.358  31.584   2.712  1.00  0.00     0.026 C 
HETATM    6  C8  UNL     1      50.773  31.898   2.272  1.00  0.00     0.168 C 
HETATM    7  O1  UNL     1      51.463  32.289   3.419  1.00  0.00    -0.386 OA
ENDROOT
BRANCH   1   8
HETATM    8  C2  UNL     1      52.409  34.304   4.168  1.00  0.00     0.059 C 
BRANCH   8   9
HETATM    9  C1  UNL     1      52.235  34.585   5.658  1.00  0.00     0.232 C 
BRANCH   9  10
HETATM   10  N1  UNL     1      53.529  34.612   6.304  1.00  0.00    -0.079 N 
ATOM     11  H13 UNL     1      54.290  34.440   5.647  1.00  0.00     0.274 HD
ATOM     12  H12 UNL     1      53.794  35.553   6.593  1.00  0.00     0.274 HD
ATOM     13  H11 UNL     1      53.539  33.954   7.083  1.00  0.00     0.274 HD
ENDBRANCH   9  10
ENDBRANCH   8   9
ENDBRANCH   1   8
TORSDOF 3
ENDMDL
MODEL 2
REMARK VINA RESULT: -5.107779294      1.015      1.216
REMARK  3 active torsions:
REMARK  status: ('A' for Active; 'I' for Inactive)
REMARK    1  A    between atoms: N1_1  and  C1_5 
REMARK    2  A    between atoms: C1_5  and  C2_6 
REMARK    3  A    between atoms: C2_6  and  C3_7 
ROOT
HETATM    1  C3  UNL     1      50.896  34.551   4.419  1.00  0.00     0.122 C 
HETATM    2  C4  UNL     1      49.489  34.267   4.733  1.00  0.00     0.032 C 
HETATM    3  C5  UNL     1      48.986  32.902   4.607  1.00  0.00     0.002 C 
HETATM    4  C6  UNL     1      49.870  31.881   3.985  1.00  0.00     0.002 C 
HETATM    5  C7  UNL     1      50.546  32.291   2.721  1.00  0.00     0.026 C 
HETATM    6  C8  UNL     1      51.800  33.097   2.985  1.00  0.00     0.168 C 
HETATM    7  O1  UNL     1      51.742  33.486   4.323  1.00  0.00    -0.386 OA
ENDROOT
BRANCH   1   8
HETATM    8  C2  UNL     1      51.495  35.542   5.433  1.00  0.00     0.059 C 
BRANCH   8   9
HETATM    9  C1  UNL     1      52.189  34.715   6.512  1.00  0.00     0.232 C 
BRANCH   9  10
HETATM   10  N1  UNL     1      53.589  34.559   6.182  1.00  0.00    -0.079 N 
ATOM     11  H13 UNL     1      54.158  35.320   6.553  1.00  0.00     0.274 HD
ATOM     12  H12 UNL     1      54.020  33.790   6.694  1.00  0.00     0.274 HD
ATOM     13  H11 UNL     1      53.696  34.456   5.174  1.00  0.00     0.274 HD
ENDBRANCH   9  10
ENDBRANCH   8   9
ENDBRANCH   1   8
TORSDOF 3
ENDMDL
MODEL 3
REMARK VINA RESULT: -5.105652344      1.479      2.404
REMARK  3 active torsions:
REMARK  status: ('A' for Active; 'I' for Inactive)
REMARK    1  A    between atoms: N1_1  and  C1_5 
REMARK    2  A    between atoms: C1_5  and  C2_6 
REMARK    3  A    between atoms: C2_6  and  C3_7 
ROOT
HETATM    1  C3  UNL     1      50.418  32.807   4.134  1.00  0.00     0.122 C 
HETATM    2  C4  UNL     1      50.553  32.089   2.859  1.00  0.00     0.032 C 
HETATM    3  C5  UNL     1      49.415  31.341   2.332  1.00  0.00     0.002 C 
HETATM    4  C6  UNL     1      48.217  31.178   3.197  1.00  0.00     0.002 C 
HETATM    5  C7  UNL     1      48.485  30.769   4.606  1.00  0.00     0.026 C 
HETATM    6  C8  UNL     1      48.855  31.950   5.478  1.00  0.00     0.168 C 
HETATM    7  O1  UNL     1      49.155  33.000   4.611  1.00  0.00    -0.386 OA
ENDROOT
BRANCH   1   8
HETATM    8  C2  UNL     1      51.112  34.179   4.066  1.00  0.00     0.059 C 
BRANCH   8   9
HETATM    9  C1  UNL     1      52.391  33.996   3.254  1.00  0.00     0.232 C 
BRANCH   9  10
HETATM   10  N1  UNL     1      53.542  34.283   4.083  1.00  0.00    -0.079 N 
ATOM     11  H13 UNL     1      54.417  34.198   3.567  1.00  0.00     0.274 HD
ATOM     12  H12 UNL     1      53.606  35.272   4.321  1.00  0.00     0.274 HD
ATOM     13  H11 UNL     1      53.526  33.689   4.912  1.00  0.00     0.274 HD
ENDBRANCH   9  10
ENDBRANCH   8   9
ENDBRANCH   1   8
TORSDOF 3
ENDMDL
MODEL 4
REMARK VINA RESULT: -5.011933510      1.002      1.277
REMARK  3 active torsions:
REMARK  status: ('A' for Active; 'I' for Inactive)
REMARK    1  A    between atoms: N1_1  and  C1_5 
REMARK    2  A    between atoms: C1_5  and  C2_6 
REMARK    3  A    between atoms: C2_6  and  C3_7 
ROOT
HETATM    1  C3  UNL     1      50.285  33.336   4.204  1.00  0.00     0.122 C 
HETATM    2  C4  UNL     1      48.850  33.108   4.427  1.00  0.00     0.032 C 
HETATM    3  C5  UNL     1      48.238  31.868   3.957  1.00  0.00     0.002 C 
HETATM    4  C6  UNL     1      49.050  30.962   3.103  1.00  0.00     0.002 C 
HETATM    5  C7  UNL     1      49.795  31.615   1.988  1.00  0.00     0.026 C 
HETATM    6  C8  UNL     1      51.104  32.214   2.456  1.00  0.00     0.168 C 
HETATM    7  O1  UNL     1      51.041  32.258   3.849  1.00  0.00    -0.386 OA
ENDROOT
BRANCH   1   8
HETATM    8  C2  UNL     1      50.935  33.982   5.440  1.00  0.00     0.059 C 
BRANCH   8   9
HETATM    9  C1  UNL     1      51.930  35.022   4.933  1.00  0.00     0.232 C 
BRANCH   9  10
HETATM   10  N1  UNL     1      53.155  34.367   4.525  1.00  0.00    -0.079 N 
ATOM     11  H13 UNL     1      53.864  35.035   4.222  1.00  0.00     0.274 HD
ATOM     12  H12 UNL     1      53.658  33.967   5.316  1.00  0.00     0.274 HD
ATOM     13  H11 UNL     1      52.951  33.672   3.808  1.00  0.00     0.274 HD
ENDBRANCH   9  10
ENDBRANCH   8   9
ENDBRANCH   1   8
TORSDOF 3
ENDMDL
MODEL 5
REMARK VINA RESULT: -4.993916063      1.570      2.281
REMARK  3 active torsions:
REMARK  status: ('A' for Active; 'I' for Inactive)
REMARK    1  A    between atoms: N1_1  and  C1_5 
REMARK    2  A    between atoms: C1_5  and  C2_6 
REMARK    3  A    between atoms: C2_6  and  C3_7 
ROOT
HETATM    1  C3  UNL     1      51.279  34.260   4.957  1.00  0.00     0.122 C 
HETATM    2  C4  UNL     1      50.025  33.528   4.729  1.00  0.00     0.032 C 
HETATM    3  C5  UNL     1      49.992  32.446   3.749  1.00  0.00     0.002 C 
HETATM    4  C6  UNL     1      51.183  32.247   2.881  1.00  0.00     0.002 C 
HETATM    5  C7  UNL     1      51.746  33.479   2.258  1.00  0.00     0.026 C 
HETATM    6  C8  UNL     1      52.662  34.224   3.205  1.00  0.00     0.168 C 
HETATM    7  O1  UNL     1      52.425  33.700   4.476  1.00  0.00    -0.386 OA
ENDROOT
BRANCH   1   8
HETATM    8  C2  UNL     1      51.483  34.541   6.456  1.00  0.00     0.059 C 
BRANCH   8   9
HETATM    9  C1  UNL     1      51.302  36.043   6.661  1.00  0.00     0.232 C 
BRANCH   9  10
HETATM   10  N1  UNL     1      51.870  36.760   5.540  1.00  0.00    -0.079 N 
ATOM     11  H13 UNL     1      51.160  37.262   5.007  1.00  0.00     0.274 HD
ATOM     12  H12 UNL     1      52.424  37.563   5.839  1.00  0.00     0.274 HD
ATOM     13  H11 UNL     1      52.406  36.119   4.956  1.00  0.00     0.274 HD
ENDBRANCH   9  10
ENDBRANCH   8   9
ENDBRANCH   1   8
TORSDOF 3
ENDMDL
