MODEL 1
REMARK VINA RESULT: -6.745268911      0.000      0.000
REMARK  1 active torsions:
REMARK  status: ('A' for Active; 'I' for Inactive)
REMARK    1  A    between atoms: C3_3  and  N1_4 
ROOT
HETATM    1  C1  UNL     1      11.971   2.201  16.374  1.00  0.00     0.090 A 
HETATM    2  C2  UNL     1      12.711   3.333  16.300  1.00  0.00     0.047 A 
HETATM    3  C3  UNL     1      13.619   3.547  15.256  1.00  0.00     0.042 A 
HETATM    4  C7  UNL     1      13.723   2.554  14.308  1.00  0.00     0.047 A 
HETATM    5  C8  UNL     1      12.967   1.408  14.390  1.00  0.00     0.090 A 
HETATM    6  N3  UNL     1      12.114   1.270  15.423  1.00  0.00    -0.375 N 
ATOM      7  H3  UNL     1      11.553   0.420  15.484  1.00  0.00     0.164 HD
ENDROOT
BRANCH   3   8
HETATM    8  N1  UNL     1      14.387   4.735  15.191  1.00  0.00    -0.317 N 
HETATM    9  C4  UNL     1      14.206   5.841  15.921  1.00  0.00     0.115 A 
HETATM   10  C5  UNL     1      15.161   6.792  15.569  1.00  0.00     0.106 A 
HETATM   11  N2  UNL     1      15.907   6.214  14.614  1.00  0.00    -0.360 N 
HETATM   12  C6  UNL     1      15.434   4.966  14.387  1.00  0.00     0.188 A 
ATOM     13  H2  UNL     1      16.699   6.645  14.138  1.00  0.00     0.166 HD
ENDBRANCH   3   8
TORSDOF 1
ENDMDL
MODEL 2
REMARK VINA RESULT: -6.737609966      0.036      1.425
REMARK  1 active torsions:
REMARK  status: ('A' for Active; 'I' for Inactive)
REMARK    1  A    between atoms: C3_3  and  N1_4 
ROOT
HETATM    1  C1  UNL     1      13.007   1.413  14.406  1.00  0.00     0.090 A 
HETATM    2  C2  UNL     1      13.746   2.546  14.342  1.00  0.00     0.047 A 
HETATM    3  C3  UNL     1      13.612   3.563  15.296  1.00  0.00     0.042 A 
HETATM    4  C7  UNL     1      12.694   3.356  16.301  1.00  0.00     0.047 A 
HETATM    5  C8  UNL     1      11.948   2.202  16.359  1.00  0.00     0.090 A 
HETATM    6  N3  UNL     1      12.131   1.267  15.407  1.00  0.00    -0.375 N 
ATOM      7  H3  UNL     1      11.577   0.411  15.450  1.00  0.00     0.164 HD
ENDROOT
BRANCH   3   8
HETATM    8  N1  UNL     1      14.391   4.743  15.216  1.00  0.00    -0.317 N 
HETATM    9  C4  UNL     1      14.204   5.869  15.912  1.00  0.00     0.115 A 
HETATM   10  C5  UNL     1      15.174   6.803  15.555  1.00  0.00     0.106 A 
HETATM   11  N2  UNL     1      15.935   6.194  14.632  1.00  0.00    -0.360 N 
HETATM   12  C6  UNL     1      15.456   4.944  14.428  1.00  0.00     0.188 A 
ATOM     13  H2  UNL     1      16.741   6.605  14.162  1.00  0.00     0.166 HD
ENDBRANCH   3   8
TORSDOF 1
ENDMDL
MODEL 3
REMARK VINA RESULT: -6.124958029      0.655      1.109
REMARK  1 active torsions:
REMARK  status: ('A' for Active; 'I' for Inactive)
REMARK    1  A    between atoms: C3_3  and  N1_4 
ROOT
HETATM    1  C1  UNL     1      11.895   2.042  16.141  1.00  0.00     0.090 A 
HETATM    2  C2  UNL     1      12.578   3.208  16.216  1.00  0.00     0.047 A 
HETATM    3  C3  UNL     1      13.587   3.526  15.299  1.00  0.00     0.042 A 
HETATM    4  C7  UNL     1      13.850   2.597  14.317  1.00  0.00     0.047 A 
HETATM    5  C8  UNL     1      13.151   1.415  14.247  1.00  0.00     0.090 A 
HETATM    6  N3  UNL     1      12.194   1.177  15.165  1.00  0.00    -0.375 N 
ATOM      7  H3  UNL     1      11.675   0.300  15.114  1.00  0.00     0.164 HD
ENDROOT
BRANCH   3   8
HETATM    8  N1  UNL     1      14.294   4.750  15.389  1.00  0.00    -0.317 N 
HETATM    9  C4  UNL     1      15.524   4.995  14.924  1.00  0.00     0.115 A 
HETATM   10  C5  UNL     1      15.872   6.314  15.206  1.00  0.00     0.106 A 
HETATM   11  N2  UNL     1      14.815   6.835  15.847  1.00  0.00    -0.360 N 
HETATM   12  C6  UNL     1      13.859   5.883  15.957  1.00  0.00     0.188 A 
ATOM     13  H2  UNL     1      14.743   7.792  16.194  1.00  0.00     0.166 HD
ENDBRANCH   3   8
TORSDOF 1
ENDMDL
MODEL 4
REMARK VINA RESULT: -5.917716909      0.740      1.806
REMARK  1 active torsions:
REMARK  status: ('A' for Active; 'I' for Inactive)
REMARK    1  A    between atoms: C3_3  and  N1_4 
ROOT
HETATM    1  C1  UNL     1      13.368   1.637  14.304  1.00  0.00     0.090 A 
HETATM    2  C2  UNL     1      14.016   2.823  14.391  1.00  0.00     0.047 A 
HETATM    3  C3  UNL     1      13.724   3.745  15.404  1.00  0.00     0.042 A 
HETATM    4  C7  UNL     1      12.748   3.387  16.308  1.00  0.00     0.047 A 
HETATM    5  C8  UNL     1      12.096   2.180  16.213  1.00  0.00     0.090 A 
HETATM    6  N3  UNL     1      12.429   1.344  15.211  1.00  0.00    -0.375 N 
ATOM      7  H3  UNL     1      11.945   0.449  15.140  1.00  0.00     0.164 HD
ENDROOT
BRANCH   3   8
HETATM    8  N1  UNL     1      14.409   4.981  15.483  1.00  0.00    -0.317 N 
HETATM    9  C4  UNL     1      15.715   5.183  15.278  1.00  0.00     0.115 A 
HETATM   10  C5  UNL     1      16.009   6.534  15.448  1.00  0.00     0.106 A 
HETATM   11  N2  UNL     1      14.842   7.118  15.757  1.00  0.00    -0.360 N 
HETATM   12  C6  UNL     1      13.872   6.173  15.778  1.00  0.00     0.188 A 
ATOM     13  H2  UNL     1      14.707   8.112  15.944  1.00  0.00     0.166 HD
ENDBRANCH   3   8
TORSDOF 1
ENDMDL
MODEL 5
REMARK VINA RESULT: -5.801523653      1.269      1.269
REMARK  1 active torsions:
REMARK  status: ('A' for Active; 'I' for Inactive)
REMARK    1  A    between atoms: C3_3  and  N1_4 
ROOT
HETATM    1  C1  UNL     1      14.167   1.456  16.620  1.00  0.00     0.090 A 
HETATM    2  C2  UNL     1      14.386   2.792  16.587  1.00  0.00     0.047 A 
HETATM    3  C3  UNL     1      14.550   3.476  15.376  1.00  0.00     0.042 A 
HETATM    4  C7  UNL     1      14.477   2.727  14.223  1.00  0.00     0.047 A 
HETATM    5  C8  UNL     1      14.253   1.371  14.266  1.00  0.00     0.090 A 
HETATM    6  N3  UNL     1      14.105   0.780  15.468  1.00  0.00    -0.375 N 
ATOM      7  H3  UNL     1      13.939  -0.226  15.500  1.00  0.00     0.164 HD
ENDROOT
BRANCH   3   8
HETATM    8  N1  UNL     1      14.779   4.874  15.355  1.00  0.00    -0.317 N 
HETATM    9  C4  UNL     1      14.047   5.810  15.969  1.00  0.00     0.115 A 
HETATM   10  C5  UNL     1      14.590   7.067  15.711  1.00  0.00     0.106 A 
HETATM   11  N2  UNL     1      15.658   6.843  14.931  1.00  0.00    -0.360 N 
HETATM   12  C6  UNL     1      15.770   5.510  14.717  1.00  0.00     0.188 A 
ATOM     13  H2  UNL     1      16.284   7.558  14.561  1.00  0.00     0.166 HD
ENDBRANCH   3   8
TORSDOF 1
ENDMDL
