MODEL 1
REMARK VINA RESULT: -7.236717652      0.000      0.000
REMARK  1 active torsions:
REMARK  status: ('A' for Active; 'I' for Inactive)
REMARK    1  A    between atoms: N1_3  and  C3_4 
ROOT
HETATM    1  C1  UNL     1      15.482   6.075  14.806  1.00  0.00     0.100 A 
HETATM    2  C2  UNL     1      15.588   4.839  15.246  1.00  0.00     0.089 A 
HETATM    3  N1  UNL     1      14.466   4.560  16.045  1.00  0.00    -0.221 NA
HETATM    4  C9  UNL     1      13.695   5.729  16.039  1.00  0.00     0.160 A 
HETATM    5  N2  UNL     1      14.279   6.612  15.321  1.00  0.00    -0.365 N 
ATOM      6  H2  UNL     1      13.932   7.556  15.147  1.00  0.00     0.165 HD
ENDROOT
BRANCH   3   7
HETATM    7  C3  UNL     1      13.735   3.428  15.572  1.00  0.00     0.019 A 
HETATM    8  C4  UNL     1      12.616   3.059  16.285  1.00  0.00     0.024 A 
HETATM    9  C5  UNL     1      11.856   1.980  15.896  1.00  0.00     0.002 A 
HETATM   10  C6  UNL     1      12.232   1.274  14.779  1.00  0.00     0.000 A 
HETATM   11  C7  UNL     1      13.356   1.658  14.075  1.00  0.00     0.002 A 
HETATM   12  C8  UNL     1      14.117   2.730  14.457  1.00  0.00     0.024 A 
ENDBRANCH   3   7
TORSDOF 1
ENDMDL
MODEL 2
REMARK VINA RESULT: -7.135352234      0.117      1.442
REMARK  1 active torsions:
REMARK  status: ('A' for Active; 'I' for Inactive)
REMARK    1  A    between atoms: N1_3  and  C3_4 
ROOT
HETATM    1  C1  UNL     1      15.524   5.937  14.634  1.00  0.00     0.100 A 
HETATM    2  C2  UNL     1      15.592   4.721  15.132  1.00  0.00     0.089 A 
HETATM    3  N1  UNL     1      14.503   4.540  16.002  1.00  0.00    -0.221 NA
HETATM    4  C9  UNL     1      13.792   5.747  15.975  1.00  0.00     0.160 A 
HETATM    5  N2  UNL     1      14.379   6.562  15.183  1.00  0.00    -0.365 N 
ATOM      6  H2  UNL     1      14.071   7.513  14.978  1.00  0.00     0.165 HD
ENDROOT
BRANCH   3   7
HETATM    7  C3  UNL     1      13.691   3.427  15.627  1.00  0.00     0.019 A 
HETATM    8  C4  UNL     1      14.094   2.693  14.535  1.00  0.00     0.024 A 
HETATM    9  C5  UNL     1      13.368   1.603  14.109  1.00  0.00     0.002 A 
HETATM   10  C6  UNL     1      12.230   1.259  14.795  1.00  0.00     0.000 A 
HETATM   11  C7  UNL     1      11.840   2.006  15.889  1.00  0.00     0.002 A 
HETATM   12  C8  UNL     1      12.556   3.089  16.318  1.00  0.00     0.024 A 
ENDBRANCH   3   7
TORSDOF 1
ENDMDL
MODEL 3
REMARK VINA RESULT: -6.866642951      1.412      2.156
REMARK  1 active torsions:
REMARK  status: ('A' for Active; 'I' for Inactive)
REMARK    1  A    between atoms: N1_3  and  C3_4 
ROOT
HETATM    1  C1  UNL     1      15.088   6.761  15.728  1.00  0.00     0.100 A 
HETATM    2  C2  UNL     1      14.048   5.956  15.682  1.00  0.00     0.089 A 
HETATM    3  N1  UNL     1      14.262   5.018  14.658  1.00  0.00    -0.221 NA
HETATM    4  C9  UNL     1      15.510   5.337  14.106  1.00  0.00     0.160 A 
HETATM    5  N2  UNL     1      15.994   6.348  14.723  1.00  0.00    -0.365 N 
ATOM      6  H2  UNL     1      16.893   6.787  14.523  1.00  0.00     0.165 HD
ENDROOT
BRANCH   3   7
HETATM    7  C3  UNL     1      14.212   3.674  15.137  1.00  0.00     0.019 A 
HETATM    8  C4  UNL     1      14.255   2.668  14.196  1.00  0.00     0.024 A 
HETATM    9  C5  UNL     1      14.212   1.346  14.575  1.00  0.00     0.002 A 
HETATM   10  C6  UNL     1      14.125   1.043  15.912  1.00  0.00     0.000 A 
HETATM   11  C7  UNL     1      14.083   2.063  16.841  1.00  0.00     0.002 A 
HETATM   12  C8  UNL     1      14.125   3.380  16.472  1.00  0.00     0.024 A 
ENDBRANCH   3   7
TORSDOF 1
ENDMDL
MODEL 4
REMARK VINA RESULT: -6.805242498      1.410      1.747
REMARK  1 active torsions:
REMARK  status: ('A' for Active; 'I' for Inactive)
REMARK    1  A    between atoms: N1_3  and  C3_4 
ROOT
HETATM    1  C1  UNL     1      15.042   6.703  15.826  1.00  0.00     0.100 A 
HETATM    2  C2  UNL     1      14.013   5.890  15.715  1.00  0.00     0.089 A 
HETATM    3  N1  UNL     1      14.264   5.005  14.653  1.00  0.00    -0.221 NA
HETATM    4  C9  UNL     1      15.522   5.364  14.150  1.00  0.00     0.160 A 
HETATM    5  N2  UNL     1      15.978   6.349  14.827  1.00  0.00    -0.365 N 
ATOM      6  H2  UNL     1      16.876   6.807  14.672  1.00  0.00     0.165 HD
ENDROOT
BRANCH   3   7
HETATM    7  C3  UNL     1      14.218   3.639  15.065  1.00  0.00     0.019 A 
HETATM    8  C4  UNL     1      14.195   3.390  16.420  1.00  0.00     0.024 A 
HETATM    9  C5  UNL     1      14.149   2.101  16.900  1.00  0.00     0.002 A 
HETATM   10  C6  UNL     1      14.125   1.062  16.003  1.00  0.00     0.000 A 
HETATM   11  C7  UNL     1      14.148   1.329  14.648  1.00  0.00     0.002 A 
HETATM   12  C8  UNL     1      14.194   2.608  14.163  1.00  0.00     0.024 A 
ENDBRANCH   3   7
TORSDOF 1
ENDMDL
MODEL 5
REMARK VINA RESULT: -6.448770276      1.683      4.113
REMARK  1 active torsions:
REMARK  status: ('A' for Active; 'I' for Inactive)
REMARK    1  A    between atoms: N1_3  and  C3_4 
ROOT
HETATM    1  C1  UNL     1      11.640   1.880  16.301  1.00  0.00     0.100 A 
HETATM    2  C2  UNL     1      12.682   2.472  16.846  1.00  0.00     0.089 A 
HETATM    3  N1  UNL     1      13.777   2.319  15.979  1.00  0.00    -0.221 NA
HETATM    4  C9  UNL     1      13.296   1.588  14.885  1.00  0.00     0.160 A 
HETATM    5  N2  UNL     1      12.056   1.331  15.066  1.00  0.00    -0.365 N 
ATOM      6  H2  UNL     1      11.460   0.812  14.420  1.00  0.00     0.165 HD
ENDROOT
BRANCH   3   7
HETATM    7  C3  UNL     1      14.337   3.573  15.588  1.00  0.00     0.019 A 
HETATM    8  C4  UNL     1      13.808   4.706  16.165  1.00  0.00     0.024 A 
HETATM    9  C5  UNL     1      14.292   5.953  15.842  1.00  0.00     0.002 A 
HETATM   10  C6  UNL     1      15.316   6.050  14.932  1.00  0.00     0.000 A 
HETATM   11  C7  UNL     1      15.835   4.904  14.364  1.00  0.00     0.002 A 
HETATM   12  C8  UNL     1      15.359   3.660  14.680  1.00  0.00     0.024 A 
ENDBRANCH   3   7
TORSDOF 1
ENDMDL
