MODEL 1
REMARK VINA RESULT: -6.483376349      0.000      0.000
REMARK  3 active torsions:
REMARK  status: ('A' for Active; 'I' for Inactive)
REMARK    1  A    between atoms: C8_8  and  C9_9 
REMARK    2  A    between atoms: C9_9  and  C10_10 
REMARK    3  A    between atoms: C10_10  and  N1_11 
ROOT
HETATM    1  C1  UNL     1      16.066   3.567  13.757  1.00  0.00     0.024 C 
HETATM    2  C2  UNL     1      14.971   3.496  14.496  1.00  0.00    -0.035 A 
HETATM    3  C3  UNL     1      14.137   2.379  14.332  1.00  0.00     0.018 A 
HETATM    4  C4  UNL     1      12.984   2.230  15.059  1.00  0.00    -0.061 A 
HETATM    5  C5  UNL     1      12.138   1.025  14.845  1.00  0.00     0.048 C 
HETATM    6  C6  UNL     1      12.671   3.217  15.958  1.00  0.00     0.007 A 
HETATM    7  C7  UNL     1      13.463   4.334  16.151  1.00  0.00     0.012 A 
HETATM    8  C8  UNL     1      14.628   4.468  15.405  1.00  0.00    -0.029 A 
ENDROOT
BRANCH   8   9
HETATM    9  C9  UNL     1      15.397   5.548  15.591  1.00  0.00     0.012 C 
BRANCH   9  10
HETATM   10  C10 UNL     1      14.807   6.881  15.801  1.00  0.00     0.258 C 
BRANCH  10  11
HETATM   11  N1  UNL     1      14.106   7.305  14.586  1.00  0.00    -0.076 N 
ATOM     12  H13 UNL     1      14.282   8.284  14.362  1.00  0.00     0.274 HD
ATOM     13  H12 UNL     1      14.507   6.888  13.745  1.00  0.00     0.274 HD
ATOM     14  H11 UNL     1      13.111   7.104  14.677  1.00  0.00     0.274 HD
ENDBRANCH  10  11
ENDBRANCH   9  10
ENDBRANCH   8   9
TORSDOF 3
ENDMDL
MODEL 2
REMARK VINA RESULT: -6.124173756      1.043      1.455
REMARK  3 active torsions:
REMARK  status: ('A' for Active; 'I' for Inactive)
REMARK    1  A    between atoms: C8_8  and  C9_9 
REMARK    2  A    between atoms: C9_9  and  C10_10 
REMARK    3  A    between atoms: C10_10  and  N1_11 
ROOT
HETATM    1  C1  UNL     1      14.330   2.324  13.294  1.00  0.00     0.024 C 
HETATM    2  C2  UNL     1      13.897   2.713  14.483  1.00  0.00    -0.035 A 
HETATM    3  C3  UNL     1      12.816   2.019  15.049  1.00  0.00     0.018 A 
HETATM    4  C4  UNL     1      12.308   2.360  16.276  1.00  0.00    -0.061 A 
HETATM    5  C5  UNL     1      11.162   1.590  16.830  1.00  0.00     0.048 C 
HETATM    6  C6  UNL     1      12.894   3.409  16.935  1.00  0.00     0.007 A 
HETATM    7  C7  UNL     1      13.960   4.121  16.413  1.00  0.00     0.012 A 
HETATM    8  C8  UNL     1      14.462   3.761  15.168  1.00  0.00    -0.029 A 
ENDROOT
BRANCH   8   9
HETATM    9  C9  UNL     1      15.494   4.448  14.662  1.00  0.00     0.012 C 
BRANCH   9  10
HETATM   10  C10 UNL     1      15.694   5.872  14.977  1.00  0.00     0.258 C 
BRANCH  10  11
HETATM   11  N1  UNL     1      14.562   6.651  14.468  1.00  0.00    -0.076 N 
ATOM     12  H13 UNL     1      14.815   7.622  14.285  1.00  0.00     0.274 HD
ATOM     13  H12 UNL     1      14.308   6.385  13.517  1.00  0.00     0.274 HD
ATOM     14  H11 UNL     1      13.776   6.574  15.113  1.00  0.00     0.274 HD
ENDBRANCH  10  11
ENDBRANCH   9  10
ENDBRANCH   8   9
TORSDOF 3
ENDMDL
MODEL 3
REMARK VINA RESULT: -6.123399647      2.213      4.473
REMARK  3 active torsions:
REMARK  status: ('A' for Active; 'I' for Inactive)
REMARK    1  A    between atoms: C8_8  and  C9_9 
REMARK    2  A    between atoms: C9_9  and  C10_10 
REMARK    3  A    between atoms: C10_10  and  N1_11 
ROOT
HETATM    1  C1  UNL     1      12.932   3.282  16.776  1.00  0.00     0.024 C 
HETATM    2  C2  UNL     1      13.784   3.980  16.042  1.00  0.00    -0.035 A 
HETATM    3  C3  UNL     1      13.889   5.357  16.287  1.00  0.00     0.018 A 
HETATM    4  C4  UNL     1      14.748   6.151  15.571  1.00  0.00    -0.061 A 
HETATM    5  C5  UNL     1      14.820   7.605  15.873  1.00  0.00     0.048 C 
HETATM    6  C6  UNL     1      15.505   5.548  14.600  1.00  0.00     0.007 A 
HETATM    7  C7  UNL     1      15.432   4.194  14.325  1.00  0.00     0.012 A 
HETATM    8  C8  UNL     1      14.556   3.406  15.061  1.00  0.00    -0.029 A 
ENDROOT
BRANCH   8   9
HETATM    9  C9  UNL     1      14.485   2.095  14.798  1.00  0.00     0.012 C 
BRANCH   9  10
HETATM   10  C10 UNL     1      13.500   1.558  13.845  1.00  0.00     0.258 C 
BRANCH  10  11
HETATM   11  N1  UNL     1      12.368   0.986  14.578  1.00  0.00    -0.076 N 
ATOM     12  H13 UNL     1      12.613   0.112  15.043  1.00  0.00     0.274 HD
ATOM     13  H12 UNL     1      12.131   1.531  15.407  1.00  0.00     0.274 HD
ATOM     14  H11 UNL     1      11.572   0.877  13.949  1.00  0.00     0.274 HD
ENDBRANCH  10  11
ENDBRANCH   9  10
ENDBRANCH   8   9
TORSDOF 3
ENDMDL
MODEL 4
REMARK VINA RESULT: -5.969980589      2.311      4.075
REMARK  3 active torsions:
REMARK  status: ('A' for Active; 'I' for Inactive)
REMARK    1  A    between atoms: C8_8  and  C9_9 
REMARK    2  A    between atoms: C9_9  and  C10_10 
REMARK    3  A    between atoms: C10_10  and  N1_11 
ROOT
HETATM    1  C1  UNL     1      15.037   2.003  13.875  1.00  0.00     0.024 C 
HETATM    2  C2  UNL     1      14.652   3.049  14.587  1.00  0.00    -0.035 A 
HETATM    3  C3  UNL     1      15.476   4.185  14.588  1.00  0.00     0.018 A 
HETATM    4  C4  UNL     1      15.149   5.309  15.300  1.00  0.00    -0.061 A 
HETATM    5  C5  UNL     1      16.060   6.485  15.265  1.00  0.00     0.048 C 
HETATM    6  C6  UNL     1      13.981   5.287  16.017  1.00  0.00     0.007 A 
HETATM    7  C7  UNL     1      13.140   4.190  16.046  1.00  0.00     0.012 A 
HETATM    8  C8  UNL     1      13.487   3.058  15.317  1.00  0.00    -0.029 A 
ENDROOT
BRANCH   8   9
HETATM    9  C9  UNL     1      12.674   1.995  15.342  1.00  0.00     0.012 C 
BRANCH   9  10
HETATM   10  C10 UNL     1      11.360   2.052  16.004  1.00  0.00     0.258 C 
BRANCH  10  11
HETATM   11  N1  UNL     1      11.443   1.409  17.318  1.00  0.00    -0.076 N 
ATOM     12  H13 UNL     1      11.248   0.409  17.270  1.00  0.00     0.274 HD
ATOM     13  H12 UNL     1      12.402   1.355  17.660  1.00  0.00     0.274 HD
ATOM     14  H11 UNL     1      10.827   1.889  17.973  1.00  0.00     0.274 HD
ENDBRANCH  10  11
ENDBRANCH   9  10
ENDBRANCH   8   9
TORSDOF 3
ENDMDL
MODEL 5
REMARK VINA RESULT: -5.270784216      0.943      2.049
REMARK  3 active torsions:
REMARK  status: ('A' for Active; 'I' for Inactive)
REMARK    1  A    between atoms: C8_8  and  C9_9 
REMARK    2  A    between atoms: C9_9  and  C10_10 
REMARK    3  A    between atoms: C10_10  and  N1_11 
ROOT
HETATM    1  C1  UNL     1      13.803   3.696  17.510  1.00  0.00     0.024 C 
HETATM    2  C2  UNL     1      13.828   3.282  16.254  1.00  0.00    -0.035 A 
HETATM    3  C3  UNL     1      12.939   2.263  15.878  1.00  0.00     0.018 A 
HETATM    4  C4  UNL     1      12.902   1.778  14.596  1.00  0.00    -0.061 A 
HETATM    5  C5  UNL     1      11.940   0.697  14.254  1.00  0.00     0.048 C 
HETATM    6  C6  UNL     1      13.769   2.327  13.687  1.00  0.00     0.007 A 
HETATM    7  C7  UNL     1      14.661   3.332  14.014  1.00  0.00     0.012 A 
HETATM    8  C8  UNL     1      14.685   3.811  15.318  1.00  0.00    -0.029 A 
ENDROOT
BRANCH   8   9
HETATM    9  C9  UNL     1      15.546   4.785  15.637  1.00  0.00     0.012 C 
BRANCH   9  10
HETATM   10  C10 UNL     1      15.407   6.141  15.081  1.00  0.00     0.258 C 
BRANCH  10  11
HETATM   11  N1  UNL     1      14.106   6.697  15.462  1.00  0.00    -0.076 N 
ATOM     12  H13 UNL     1      14.197   7.489  16.098  1.00  0.00     0.274 HD
ATOM     13  H12 UNL     1      13.654   7.183  14.687  1.00  0.00     0.274 HD
ATOM     14  H11 UNL     1      13.518   5.959  15.849  1.00  0.00     0.274 HD
ENDBRANCH  10  11
ENDBRANCH   9  10
ENDBRANCH   8   9
TORSDOF 3
ENDMDL
