MODEL 1
REMARK VINA RESULT: -5.762111712      0.000      0.000
REMARK  2 active torsions:
REMARK  status: ('A' for Active; 'I' for Inactive)
REMARK    1  A    between atoms: C2_3  and  C3_4 
REMARK    2  A    between atoms: C3_4  and  N2_5 
ROOT
HETATM    1  N1  UNL     1      18.616  18.179   9.678  1.00  0.00    -0.197 NA
HETATM    2  C1  UNL     1      17.545  17.918  10.051  1.00  0.00     0.060 C 
HETATM    3  C2  UNL     1      16.196  17.595  10.500  1.00  0.00     0.144 C 
ENDROOT
BRANCH   3   4
HETATM    4  C3  UNL     1      16.189  17.412  12.023  1.00  0.00     0.143 C 
BRANCH   4   5
HETATM    5  N2  UNL     1      15.548  18.589  12.586  1.00  0.00    -0.351 N 
HETATM    6  C4  UNL     1      15.017  19.601  11.851  1.00  0.00     0.108 A 
HETATM    7  C5  UNL     1      14.491  20.554  12.699  1.00  0.00     0.106 A 
HETATM    8  N3  UNL     1      14.710  20.107  13.948  1.00  0.00    -0.361 N 
HETATM    9  C6  UNL     1      15.349  18.920  13.862  1.00  0.00     0.182 A 
ATOM     10  H3  UNL     1      14.442  20.581  14.810  1.00  0.00     0.166 HD
ENDBRANCH   4   5
ENDBRANCH   3   4
TORSDOF 2
ENDMDL
MODEL 2
REMARK VINA RESULT: -5.668645406      1.034      1.120
REMARK  2 active torsions:
REMARK  status: ('A' for Active; 'I' for Inactive)
REMARK    1  A    between atoms: C2_3  and  C3_4 
REMARK    2  A    between atoms: C3_4  and  N2_5 
ROOT
HETATM    1  N1  UNL     1      18.528  18.267   9.655  1.00  0.00    -0.197 NA
HETATM    2  C1  UNL     1      17.480  17.898   9.999  1.00  0.00     0.060 C 
HETATM    3  C2  UNL     1      16.159  17.434  10.409  1.00  0.00     0.144 C 
ENDROOT
BRANCH   3   4
HETATM    4  C3  UNL     1      16.024  17.546  11.933  1.00  0.00     0.143 C 
BRANCH   4   5
HETATM    5  N2  UNL     1      14.986  18.528  12.193  1.00  0.00    -0.351 N 
HETATM    6  C4  UNL     1      15.200  19.867  12.288  1.00  0.00     0.108 A 
HETATM    7  C5  UNL     1      14.003  20.505  12.540  1.00  0.00     0.106 A 
HETATM    8  N3  UNL     1      13.068  19.540  12.596  1.00  0.00    -0.361 N 
HETATM    9  C6  UNL     1      13.679  18.353  12.385  1.00  0.00     0.182 A 
ATOM     10  H3  UNL     1      12.073  19.679  12.768  1.00  0.00     0.166 HD
ENDBRANCH   4   5
ENDBRANCH   3   4
TORSDOF 2
ENDMDL
MODEL 3
REMARK VINA RESULT: -5.435075518      0.901      1.012
REMARK  2 active torsions:
REMARK  status: ('A' for Active; 'I' for Inactive)
REMARK    1  A    between atoms: C2_3  and  C3_4 
REMARK    2  A    between atoms: C3_4  and  N2_5 
ROOT
HETATM    1  N1  UNL     1      17.328  18.635   9.832  1.00  0.00    -0.197 NA
HETATM    2  C1  UNL     1      16.802  17.974  10.632  1.00  0.00     0.060 C 
HETATM    3  C2  UNL     1      16.160  17.133  11.636  1.00  0.00     0.144 C 
ENDROOT
BRANCH   3   4
HETATM    4  C3  UNL     1      14.686  17.532  11.776  1.00  0.00     0.143 C 
BRANCH   4   5
HETATM    5  N2  UNL     1      14.652  18.755  12.559  1.00  0.00    -0.351 N 
HETATM    6  C4  UNL     1      14.008  19.891  12.184  1.00  0.00     0.108 A 
HETATM    7  C5  UNL     1      14.177  20.855  13.156  1.00  0.00     0.106 A 
HETATM    8  N3  UNL     1      14.928  20.290  14.118  1.00  0.00    -0.361 N 
HETATM    9  C6  UNL     1      15.205  19.023  13.742  1.00  0.00     0.182 A 
ATOM     10  H3  UNL     1      15.234  20.740  14.981  1.00  0.00     0.166 HD
ENDBRANCH   4   5
ENDBRANCH   3   4
TORSDOF 2
ENDMDL
MODEL 4
REMARK VINA RESULT: -5.300240198      1.046      1.144
REMARK  2 active torsions:
REMARK  status: ('A' for Active; 'I' for Inactive)
REMARK    1  A    between atoms: C2_3  and  C3_4 
REMARK    2  A    between atoms: C3_4  and  N2_5 
ROOT
HETATM    1  N1  UNL     1      18.596  18.282   9.633  1.00  0.00    -0.197 NA
HETATM    2  C1  UNL     1      17.549  17.918   9.987  1.00  0.00     0.060 C 
HETATM    3  C2  UNL     1      16.231  17.462  10.412  1.00  0.00     0.144 C 
ENDROOT
BRANCH   3   4
HETATM    4  C3  UNL     1      16.109  17.583  11.936  1.00  0.00     0.143 C 
BRANCH   4   5
HETATM    5  N2  UNL     1      15.075  18.569  12.199  1.00  0.00    -0.351 N 
HETATM    6  C4  UNL     1      13.741  18.332  12.099  1.00  0.00     0.108 A 
HETATM    7  C5  UNL     1      13.047  19.481  12.418  1.00  0.00     0.106 A 
HETATM    8  N3  UNL     1      13.974  20.410  12.711  1.00  0.00    -0.361 N 
HETATM    9  C6  UNL     1      15.192  19.843  12.574  1.00  0.00     0.182 A 
ATOM     10  H3  UNL     1      13.789  21.374  12.988  1.00  0.00     0.166 HD
ENDBRANCH   4   5
ENDBRANCH   3   4
TORSDOF 2
ENDMDL
MODEL 5
REMARK VINA RESULT: -5.113878683      1.357      1.599
REMARK  2 active torsions:
REMARK  status: ('A' for Active; 'I' for Inactive)
REMARK    1  A    between atoms: C2_3  and  C3_4 
REMARK    2  A    between atoms: C3_4  and  N2_5 
ROOT
HETATM    1  N1  UNL     1      18.545  18.521   8.933  1.00  0.00    -0.197 NA
HETATM    2  C1  UNL     1      17.903  18.036   9.774  1.00  0.00     0.060 C 
HETATM    3  C2  UNL     1      17.115  17.420  10.834  1.00  0.00     0.144 C 
ENDROOT
BRANCH   3   4
HETATM    4  C3  UNL     1      15.624  17.683  10.589  1.00  0.00     0.143 C 
BRANCH   4   5
HETATM    5  N2  UNL     1      15.043  18.045  11.871  1.00  0.00    -0.351 N 
HETATM    6  C4  UNL     1      15.743  18.564  12.914  1.00  0.00     0.108 A 
HETATM    7  C5  UNL     1      14.886  18.791  13.971  1.00  0.00     0.106 A 
HETATM    8  N3  UNL     1      13.667  18.404  13.556  1.00  0.00    -0.361 N 
HETATM    9  C6  UNL     1      13.780  17.956  12.287  1.00  0.00     0.182 A 
ATOM     10  H3  UNL     1      12.808  18.441  14.105  1.00  0.00     0.166 HD
ENDBRANCH   4   5
ENDBRANCH   3   4
TORSDOF 2
ENDMDL
