MODEL 1
REMARK VINA RESULT: -5.588364611      0.000      0.000
REMARK  1 active torsions:
REMARK  status: ('A' for Active; 'I' for Inactive)
REMARK    1  A    between atoms: C2_2  and  C3_3 
ROOT
HETATM    1  C3  UNL     1      14.867  18.448  13.020  1.00  0.00     0.235 C 
HETATM    2  C4  UNL     1      13.419  18.146  12.686  1.00  0.00     0.069 C 
HETATM    3  C5  UNL     1      14.034  16.962  11.960  1.00  0.00     0.264 C 
HETATM    4  N1  UNL     1      15.278  17.743  11.903  1.00  0.00     0.019 N 
HETATM    5  C6  UNL     1      15.655  18.253  10.679  1.00  0.00     0.279 C 
HETATM    6  C7  UNL     1      17.021  17.700  10.944  1.00  0.00     0.172 C 
HETATM    7  N2  UNL     1      16.430  16.985  12.037  1.00  0.00    -0.044 NA
ENDROOT
BRANCH   1   8
HETATM    8  C2  UNL     1      15.075  19.883  13.180  1.00  0.00    -0.002 C 
HETATM    9  C1  UNL     1      14.291  20.855  12.822  1.00  0.00     0.009 C 
ENDBRANCH   1   8
TORSDOF 1
ENDMDL
MODEL 2
REMARK VINA RESULT: -5.462659486      1.240      3.165
REMARK  1 active torsions:
REMARK  status: ('A' for Active; 'I' for Inactive)
REMARK    1  A    between atoms: C2_2  and  C3_3 
ROOT
HETATM    1  C3  UNL     1      15.209  18.395  11.270  1.00  0.00     0.235 C 
HETATM    2  C4  UNL     1      14.845  16.976  11.661  1.00  0.00     0.069 C 
HETATM    3  C5  UNL     1      13.737  17.677  12.429  1.00  0.00     0.264 C 
HETATM    4  N1  UNL     1      14.589  18.876  12.409  1.00  0.00     0.019 N 
HETATM    5  C6  UNL     1      15.184  19.255  13.593  1.00  0.00     0.279 C 
HETATM    6  C7  UNL     1      14.695  20.643  13.317  1.00  0.00     0.172 C 
HETATM    7  N2  UNL     1      13.890  20.066  12.280  1.00  0.00    -0.044 NA
ENDROOT
BRANCH   1   8
HETATM    8  C2  UNL     1      16.643  18.515  11.030  1.00  0.00    -0.002 C 
HETATM    9  C1  UNL     1      17.362  17.915  10.129  1.00  0.00     0.009 C 
ENDBRANCH   1   8
TORSDOF 1
ENDMDL
MODEL 3
REMARK VINA RESULT: -4.332477534      1.271      1.449
REMARK  1 active torsions:
REMARK  status: ('A' for Active; 'I' for Inactive)
REMARK    1  A    between atoms: C2_2  and  C3_3 
ROOT
HETATM    1  C3  UNL     1      15.707  19.283  12.496  1.00  0.00     0.235 C 
HETATM    2  C4  UNL     1      15.138  18.318  13.520  1.00  0.00     0.069 C 
HETATM    3  C5  UNL     1      16.130  17.360  12.883  1.00  0.00     0.264 C 
HETATM    4  N1  UNL     1      16.078  18.221  11.692  1.00  0.00     0.019 N 
HETATM    5  C6  UNL     1      15.418  17.736  10.583  1.00  0.00     0.279 C 
HETATM    6  C7  UNL     1      16.610  18.146   9.776  1.00  0.00     0.172 C 
HETATM    7  N2  UNL     1      17.287  18.340  11.025  1.00  0.00    -0.044 NA
ENDROOT
BRANCH   1   8
HETATM    8  C2  UNL     1      14.709  20.271  12.104  1.00  0.00    -0.002 C 
HETATM    9  C1  UNL     1      14.066  21.110  12.860  1.00  0.00     0.009 C 
ENDBRANCH   1   8
TORSDOF 1
ENDMDL
MODEL 4
REMARK VINA RESULT: -4.018713685      1.065      2.488
REMARK  1 active torsions:
REMARK  status: ('A' for Active; 'I' for Inactive)
REMARK    1  A    between atoms: C2_2  and  C3_3 
ROOT
HETATM    1  C3  UNL     1      15.305  19.253  11.403  1.00  0.00     0.235 C 
HETATM    2  C4  UNL     1      16.745  18.803  11.241  1.00  0.00     0.069 C 
HETATM    3  C5  UNL     1      16.087  17.542  10.707  1.00  0.00     0.264 C 
HETATM    4  N1  UNL     1      14.893  17.935  11.470  1.00  0.00     0.019 N 
HETATM    5  C6  UNL     1      14.589  17.206  12.599  1.00  0.00     0.279 C 
HETATM    6  C7  UNL     1      13.184  17.122  12.087  1.00  0.00     0.172 C 
HETATM    7  N2  UNL     1      13.694  17.628  10.845  1.00  0.00    -0.044 NA
ENDROOT
BRANCH   1   8
HETATM    8  C2  UNL     1      15.177  20.188  12.516  1.00  0.00    -0.002 C 
HETATM    9  C1  UNL     1      14.168  20.951  12.814  1.00  0.00     0.009 C 
ENDBRANCH   1   8
TORSDOF 1
ENDMDL
MODEL 5
REMARK VINA RESULT: -3.746226876      1.192      1.247
REMARK  1 active torsions:
REMARK  status: ('A' for Active; 'I' for Inactive)
REMARK    1  A    between atoms: C2_2  and  C3_3 
ROOT
HETATM    1  C3  UNL     1      15.676  18.114  12.075  1.00  0.00     0.235 C 
HETATM    2  C4  UNL     1      14.264  17.572  11.950  1.00  0.00     0.069 C 
HETATM    3  C5  UNL     1      14.964  16.467  11.177  1.00  0.00     0.264 C 
HETATM    4  N1  UNL     1      16.046  17.431  10.931  1.00  0.00     0.019 N 
HETATM    5  C6  UNL     1      16.172  17.937   9.655  1.00  0.00     0.279 C 
HETATM    6  C7  UNL     1      17.633  17.619   9.744  1.00  0.00     0.172 C 
HETATM    7  N2  UNL     1      17.314  16.871  10.925  1.00  0.00    -0.044 NA
ENDROOT
BRANCH   1   8
HETATM    8  C2  UNL     1      15.666  19.570  12.169  1.00  0.00    -0.002 C 
HETATM    9  C1  UNL     1      14.643  20.364  12.269  1.00  0.00     0.009 C 
ENDBRANCH   1   8
TORSDOF 1
ENDMDL
