MODEL 1
REMARK VINA RESULT: -7.071686699      0.000      0.000
REMARK  2 active torsions:
REMARK  status: ('A' for Active; 'I' for Inactive)
REMARK    1  A    between atoms: C4_4  and  C5_5 
REMARK    2  A    between atoms: C5_5  and  N1_6 
ROOT
HETATM    1  C1  UNL     1      14.191  21.053  12.989  1.00  0.00     0.017 C 
HETATM    2  C2  UNL     1      14.503  20.042  12.407  1.00  0.00    -0.090 C 
HETATM    3  C3  UNL     1      14.872  18.856  11.698  1.00  0.00     0.061 C 
HETATM    4  C4  UNL     1      16.070  18.659  11.189  1.00  0.00     0.001 C 
ENDROOT
BRANCH   4   5
HETATM    5  C5  UNL     1      16.436  17.433  10.463  1.00  0.00     0.148 C 
BRANCH   5   6
HETATM    6  N1  UNL     1      17.871  17.298  10.468  1.00  0.00    -0.376 N 
HETATM    7  C6  UNL     1      18.638  17.975   9.684  1.00  0.00     0.074 C 
HETATM    8  C7  UNL     1      20.099  18.081   9.433  1.00  0.00     0.095 C 
HETATM    9  N2  UNL     1      18.347  18.948   8.688  1.00  0.00    -0.380 N 
HETATM   10  C8  UNL     1      19.675  18.739   8.147  1.00  0.00     0.128 C 
ATOM     11  H2  UNL     1      17.548  19.539   8.455  1.00  0.00     0.160 HD
ATOM     12  H1  UNL     1      18.297  16.639  11.120  1.00  0.00     0.161 HD
ENDBRANCH   5   6
ENDBRANCH   4   5
TORSDOF 2
ENDMDL
MODEL 2
REMARK VINA RESULT: -7.020992321      0.905      1.182
REMARK  2 active torsions:
REMARK  status: ('A' for Active; 'I' for Inactive)
REMARK    1  A    between atoms: C4_4  and  C5_5 
REMARK    2  A    between atoms: C5_5  and  N1_6 
ROOT
HETATM    1  C1  UNL     1      14.041  20.723  12.992  1.00  0.00     0.017 C 
HETATM    2  C2  UNL     1      14.860  20.127  12.335  1.00  0.00    -0.090 C 
HETATM    3  C3  UNL     1      15.836  19.409  11.575  1.00  0.00     0.061 C 
HETATM    4  C4  UNL     1      15.671  18.166  11.171  1.00  0.00     0.001 C 
ENDROOT
BRANCH   4   5
HETATM    5  C5  UNL     1      16.683  17.441  10.389  1.00  0.00     0.148 C 
BRANCH   5   6
HETATM    6  N1  UNL     1      17.330  18.365   9.491  1.00  0.00    -0.376 N 
HETATM    7  C6  UNL     1      18.569  18.257   9.154  1.00  0.00     0.074 C 
HETATM    8  C7  UNL     1      19.517  19.002   8.286  1.00  0.00     0.095 C 
HETATM    9  N2  UNL     1      19.567  17.310   9.516  1.00  0.00    -0.380 N 
HETATM   10  C8  UNL     1      20.572  18.245   9.050  1.00  0.00     0.128 C 
ATOM     11  H2  UNL     1      19.573  16.376   9.925  1.00  0.00     0.160 HD
ATOM     12  H1  UNL     1      16.784  19.136   9.107  1.00  0.00     0.161 HD
ENDBRANCH   5   6
ENDBRANCH   4   5
TORSDOF 2
ENDMDL
MODEL 3
REMARK VINA RESULT: -6.667566020      1.693      5.558
REMARK  2 active torsions:
REMARK  status: ('A' for Active; 'I' for Inactive)
REMARK    1  A    between atoms: C4_4  and  C5_5 
REMARK    2  A    between atoms: C5_5  and  N1_6 
ROOT
HETATM    1  C1  UNL     1      20.940  18.258   8.119  1.00  0.00     0.017 C 
HETATM    2  C2  UNL     1      20.060  18.078   8.925  1.00  0.00    -0.090 C 
HETATM    3  C3  UNL     1      19.011  17.886   9.879  1.00  0.00     0.061 C 
HETATM    4  C4  UNL     1      17.732  17.924   9.568  1.00  0.00     0.001 C 
ENDROOT
BRANCH   4   5
HETATM    5  C5  UNL     1      16.664  17.725  10.560  1.00  0.00     0.148 C 
BRANCH   5   6
HETATM    6  N1  UNL     1      16.296  19.005  11.112  1.00  0.00    -0.376 N 
HETATM    7  C6  UNL     1      15.216  19.186  11.792  1.00  0.00     0.074 C 
HETATM    8  C7  UNL     1      14.555  20.325  12.480  1.00  0.00     0.095 C 
HETATM    9  N2  UNL     1      14.176  18.292  12.167  1.00  0.00    -0.380 N 
HETATM   10  C8  UNL     1      13.336  19.441  12.443  1.00  0.00     0.128 C 
ATOM     11  H2  UNL     1      14.067  17.278  12.220  1.00  0.00     0.160 HD
ATOM     12  H1  UNL     1      16.916  19.800  10.958  1.00  0.00     0.161 HD
ENDBRANCH   5   6
ENDBRANCH   4   5
TORSDOF 2
ENDMDL
MODEL 4
REMARK VINA RESULT: -6.477146480      1.770      5.156
REMARK  2 active torsions:
REMARK  status: ('A' for Active; 'I' for Inactive)
REMARK    1  A    between atoms: C4_4  and  C5_5 
REMARK    2  A    between atoms: C5_5  and  N1_6 
ROOT
HETATM    1  C1  UNL     1      20.470  18.692   8.682  1.00  0.00     0.017 C 
HETATM    2  C2  UNL     1      19.541  18.190   9.268  1.00  0.00    -0.090 C 
HETATM    3  C3  UNL     1      18.438  17.614   9.972  1.00  0.00     0.061 C 
HETATM    4  C4  UNL     1      17.181  17.918   9.724  1.00  0.00     0.001 C 
ENDROOT
BRANCH   4   5
HETATM    5  C5  UNL     1      16.056  17.317  10.457  1.00  0.00     0.148 C 
BRANCH   5   6
HETATM    6  N1  UNL     1      16.199  17.618  11.860  1.00  0.00    -0.376 N 
HETATM    7  C6  UNL     1      15.511  18.536  12.449  1.00  0.00     0.074 C 
HETATM    8  C7  UNL     1      15.408  19.088  13.824  1.00  0.00     0.095 C 
HETATM    9  N2  UNL     1      14.517  19.430  11.962  1.00  0.00    -0.380 N 
HETATM   10  C8  UNL     1      14.723  20.244  13.143  1.00  0.00     0.128 C 
ATOM     11  H2  UNL     1      13.918  19.477  11.138  1.00  0.00     0.160 HD
ATOM     12  H1  UNL     1      16.872  17.083  12.408  1.00  0.00     0.161 HD
ENDBRANCH   5   6
ENDBRANCH   4   5
TORSDOF 2
ENDMDL
MODEL 5
REMARK VINA RESULT: -6.397845609      1.407      1.652
REMARK  2 active torsions:
REMARK  status: ('A' for Active; 'I' for Inactive)
REMARK    1  A    between atoms: C4_4  and  C5_5 
REMARK    2  A    between atoms: C5_5  and  N1_6 
ROOT
HETATM    1  C1  UNL     1      14.949  18.979  14.148  1.00  0.00     0.017 C 
HETATM    2  C2  UNL     1      15.263  18.359  13.161  1.00  0.00    -0.090 C 
HETATM    3  C3  UNL     1      15.625  17.638  11.980  1.00  0.00     0.061 C 
HETATM    4  C4  UNL     1      16.506  18.074  11.104  1.00  0.00     0.001 C 
ENDROOT
BRANCH   4   5
HETATM    5  C5  UNL     1      16.868  17.322   9.894  1.00  0.00     0.148 C 
BRANCH   5   6
HETATM    6  N1  UNL     1      17.511  18.215   8.963  1.00  0.00    -0.376 N 
HETATM    7  C6  UNL     1      18.792  18.289   8.839  1.00  0.00     0.074 C 
HETATM    8  C7  UNL     1      19.751  19.067   8.013  1.00  0.00     0.095 C 
HETATM    9  N2  UNL     1      19.845  17.597   9.499  1.00  0.00    -0.380 N 
HETATM   10  C8  UNL     1      20.758  18.626   9.042  1.00  0.00     0.128 C 
ATOM     11  H2  UNL     1      19.924  16.745  10.054  1.00  0.00     0.160 HD
ATOM     12  H1  UNL     1      16.928  18.814   8.379  1.00  0.00     0.161 HD
ENDBRANCH   5   6
ENDBRANCH   4   5
TORSDOF 2
ENDMDL
