MODEL 1
REMARK VINA RESULT: -5.963269576      0.000      0.000
REMARK  2 active torsions:
REMARK  status: ('A' for Active; 'I' for Inactive)
REMARK    1  A    between atoms: C3_3  and  C4_4 
REMARK    2  A    between atoms: C4_4  and  N1_5 
ROOT
HETATM    1  C1  UNL     1      18.219  17.827   9.777  1.00  0.00     0.096 C 
HETATM    2  C2  UNL     1      17.084  17.809  10.233  1.00  0.00    -0.186 C 
HETATM    3  C3  UNL     1      15.734  17.817  10.773  1.00  0.00     0.109 C 
ENDROOT
BRANCH   3   4
HETATM    4  C4  UNL     1      15.757  17.531  12.267  1.00  0.00     0.285 C 
BRANCH   4   5
HETATM    5  N1  UNL     1      14.811  18.315  12.981  1.00  0.00     0.116 N 
HETATM    6  C5  UNL     1      15.332  19.637  13.218  1.00  0.00     0.302 C 
HETATM    7  C6  UNL     1      14.250  20.597  12.779  1.00  0.00     0.264 C 
HETATM    8  N2  UNL     1      13.088  19.775  12.510  1.00  0.00    -0.047 N 
HETATM    9  C7  UNL     1      13.574  18.431  12.265  1.00  0.00     0.502 C 
ATOM     10  H22 UNL     1      12.384  19.820  13.246  1.00  0.00     0.279 HD
ATOM     11  H21 UNL     1      12.506  20.135  11.754  1.00  0.00     0.279 HD
ENDBRANCH   4   5
ENDBRANCH   3   4
TORSDOF 2
ENDMDL
MODEL 2
REMARK VINA RESULT: -5.718681390      1.102      1.835
REMARK  2 active torsions:
REMARK  status: ('A' for Active; 'I' for Inactive)
REMARK    1  A    between atoms: C3_3  and  C4_4 
REMARK    2  A    between atoms: C4_4  and  N1_5 
ROOT
HETATM    1  C1  UNL     1      19.589  18.117   9.375  1.00  0.00     0.096 C 
HETATM    2  C2  UNL     1      18.435  17.863   9.694  1.00  0.00    -0.186 C 
HETATM    3  C3  UNL     1      17.055  17.579  10.049  1.00  0.00     0.109 C 
ENDROOT
BRANCH   3   4
HETATM    4  C4  UNL     1      16.647  18.374  11.279  1.00  0.00     0.285 C 
BRANCH   4   5
HETATM    5  N1  UNL     1      15.255  18.657  11.303  1.00  0.00     0.116 N 
HETATM    6  C5  UNL     1      14.524  17.530  11.823  1.00  0.00     0.302 C 
HETATM    7  C6  UNL     1      13.603  18.084  12.887  1.00  0.00     0.264 C 
HETATM    8  N2  UNL     1      13.705  19.525  12.774  1.00  0.00    -0.047 N 
HETATM    9  C7  UNL     1      14.962  19.805  12.109  1.00  0.00     0.502 C 
ATOM     10  H22 UNL     1      12.902  19.950  12.311  1.00  0.00     0.279 HD
ATOM     11  H21 UNL     1      13.607  20.006  13.668  1.00  0.00     0.279 HD
ENDBRANCH   4   5
ENDBRANCH   3   4
TORSDOF 2
ENDMDL
MODEL 3
REMARK VINA RESULT: -5.668271916      1.198      1.319
REMARK  2 active torsions:
REMARK  status: ('A' for Active; 'I' for Inactive)
REMARK    1  A    between atoms: C3_3  and  C4_4 
REMARK    2  A    between atoms: C4_4  and  N1_5 
ROOT
HETATM    1  C1  UNL     1      18.584  17.784   9.794  1.00  0.00     0.096 C 
HETATM    2  C2  UNL     1      17.416  17.656  10.136  1.00  0.00    -0.186 C 
HETATM    3  C3  UNL     1      16.024  17.533  10.534  1.00  0.00     0.109 C 
ENDROOT
BRANCH   3   4
HETATM    4  C4  UNL     1      15.899  17.558  12.050  1.00  0.00     0.285 C 
BRANCH   4   5
HETATM    5  N1  UNL     1      15.937  18.878  12.574  1.00  0.00     0.116 N 
HETATM    6  C5  UNL     1      15.202  19.777  11.721  1.00  0.00     0.302 C 
HETATM    7  C6  UNL     1      14.275  20.551  12.630  1.00  0.00     0.264 C 
HETATM    8  N2  UNL     1      14.676  20.204  13.979  1.00  0.00    -0.047 N 
HETATM    9  C7  UNL     1      15.380  18.940  13.893  1.00  0.00     0.502 C 
ATOM     10  H22 UNL     1      15.218  20.935  14.438  1.00  0.00     0.279 HD
ATOM     11  H21 UNL     1      13.898  20.187  14.638  1.00  0.00     0.279 HD
ENDBRANCH   4   5
ENDBRANCH   3   4
TORSDOF 2
ENDMDL
MODEL 4
REMARK VINA RESULT: -5.489462577      1.269      1.795
REMARK  2 active torsions:
REMARK  status: ('A' for Active; 'I' for Inactive)
REMARK    1  A    between atoms: C3_3  and  C4_4 
REMARK    2  A    between atoms: C4_4  and  N1_5 
ROOT
HETATM    1  C1  UNL     1      19.772  18.176   9.342  1.00  0.00     0.096 C 
HETATM    2  C2  UNL     1      18.650  17.872   9.724  1.00  0.00    -0.186 C 
HETATM    3  C3  UNL     1      17.309  17.509  10.149  1.00  0.00     0.109 C 
ENDROOT
BRANCH   3   4
HETATM    4  C4  UNL     1      16.590  18.715  10.732  1.00  0.00     0.285 C 
BRANCH   4   5
HETATM    5  N1  UNL     1      15.759  18.370  11.831  1.00  0.00     0.116 N 
HETATM    6  C5  UNL     1      14.933  19.489  12.206  1.00  0.00     0.302 C 
HETATM    7  C6  UNL     1      13.522  18.953  12.302  1.00  0.00     0.264 C 
HETATM    8  N2  UNL     1      13.646  17.514  12.183  1.00  0.00    -0.047 N 
HETATM    9  C7  UNL     1      14.911  17.256  11.523  1.00  0.00     0.502 C 
ATOM     10  H22 UNL     1      13.551  17.027  13.074  1.00  0.00     0.279 HD
ATOM     11  H21 UNL     1      12.852  17.080  11.713  1.00  0.00     0.279 HD
ENDBRANCH   4   5
ENDBRANCH   3   4
TORSDOF 2
ENDMDL
MODEL 5
REMARK VINA RESULT: -5.283004127      1.123      1.640
REMARK  2 active torsions:
REMARK  status: ('A' for Active; 'I' for Inactive)
REMARK    1  A    between atoms: C3_3  and  C4_4 
REMARK    2  A    between atoms: C4_4  and  N1_5 
ROOT
HETATM    1  C1  UNL     1      18.288  17.952   9.624  1.00  0.00     0.096 C 
HETATM    2  C2  UNL     1      17.400  17.716  10.431  1.00  0.00    -0.186 C 
HETATM    3  C3  UNL     1      16.347  17.406  11.383  1.00  0.00     0.109 C 
ENDROOT
BRANCH   3   4
HETATM    4  C4  UNL     1      15.002  17.897  10.868  1.00  0.00     0.285 C 
BRANCH   4   5
HETATM    5  N1  UNL     1      14.314  18.690  11.825  1.00  0.00     0.116 N 
HETATM    6  C5  UNL     1      14.029  17.916  13.006  1.00  0.00     0.302 C 
HETATM    7  C6  UNL     1      14.495  18.752  14.176  1.00  0.00     0.264 C 
HETATM    8  N2  UNL     1      14.829  20.047  13.618  1.00  0.00    -0.047 N 
HETATM    9  C7  UNL     1      15.079  19.841  12.206  1.00  0.00     0.502 C 
ATOM     10  H22 UNL     1      14.122  20.758  13.802  1.00  0.00     0.279 HD
ATOM     11  H21 UNL     1      15.602  20.505  14.101  1.00  0.00     0.279 HD
ENDBRANCH   4   5
ENDBRANCH   3   4
TORSDOF 2
ENDMDL
