MODEL 1
REMARK VINA RESULT: -6.698092760      0.000      0.000
REMARK  6 active torsions:
REMARK  status: ('A' for Active; 'I' for Inactive)
REMARK    1  A    between atoms: C2_2  and  N1_3 
REMARK    2  A    between atoms: C2_2  and  C3_7 
REMARK       I    between atoms: C3_7  and  N2_9 
REMARK    3  A    between atoms: N2_9  and  C4_11 
REMARK    4  A    between atoms: C4_11  and  C5_12 
REMARK    5  A    between atoms: C4_11  and  C10_20 
REMARK       I    between atoms: C5_12  and  N3_14 
REMARK    6  A    between atoms: N3_14  and  C6_16 
ROOT
HETATM    1  C4  UNL     1      11.423  18.899  17.638  1.00  0.00     0.180 C 
ENDROOT
BRANCH   1   2
HETATM    2  N2  UNL     1      11.203  19.026  16.219  1.00  0.00    -0.346 N 
HETATM    3  C3  UNL     1      11.033  20.094  15.366  1.00  0.00     0.248 C 
HETATM    4  O1  UNL     1      11.047  21.312  15.624  1.00  0.00    -0.271 OA
ATOM      5  H2  UNL     1      11.163  18.126  15.742  1.00  0.00     0.163 HD
BRANCH   3   6
HETATM    6  C2  UNL     1      10.790  19.794  13.886  1.00  0.00     0.270 C 
HETATM    7  C1  UNL     1      10.717  18.294  13.689  1.00  0.00     0.050 C 
BRANCH   6   8
HETATM    8  N1  UNL     1       9.555  20.371  13.450  1.00  0.00    -0.067 N 
ATOM      9  H13 UNL     1       8.909  19.676  13.076  1.00  0.00     0.275 HD
ATOM     10  H12 UNL     1       8.979  20.694  14.227  1.00  0.00     0.275 HD
ATOM     11  H11 UNL     1       9.762  21.113  12.782  1.00  0.00     0.275 HD
ENDBRANCH   6   8
ENDBRANCH   3   6
ENDBRANCH   1   2
BRANCH   1  12
HETATM   12  C5  UNL     1      10.764  20.004  18.312  1.00  0.00     0.241 C 
HETATM   13  O2  UNL     1       9.550  19.847  18.692  1.00  0.00    -0.271 OA
HETATM   14  N3  UNL     1      11.324  21.261  18.597  1.00  0.00    -0.351 N 
ATOM     15  H3  UNL     1      12.285  21.439  18.305  1.00  0.00     0.163 HD
BRANCH  14  16
HETATM   16  C6  UNL     1      10.610  22.317  19.284  1.00  0.00     0.022 C 
HETATM   17  C7  UNL     1      11.064  23.636  18.714  1.00  0.00     0.037 C 
HETATM   18  C8  UNL     1      10.988  22.290  20.751  1.00  0.00     0.037 C 
HETATM   19  C9  UNL     1       9.125  22.215  19.178  1.00  0.00     0.037 C 
ENDBRANCH  14  16
ENDBRANCH   1  12
BRANCH   1  20
HETATM   20  C10 UNL     1      11.160  17.521  18.170  1.00  0.00     0.009 C 
HETATM   21  C11 UNL     1      10.401  16.703  17.147  1.00  0.00     0.012 C 
HETATM   22  C12 UNL     1      12.343  16.747  18.623  1.00  0.00     0.012 C 
ENDBRANCH   1  20
TORSDOF 6
ENDMDL
MODEL 2
REMARK VINA RESULT: -6.487621989      1.371      1.852
REMARK  6 active torsions:
REMARK  status: ('A' for Active; 'I' for Inactive)
REMARK    1  A    between atoms: C2_2  and  N1_3 
REMARK    2  A    between atoms: C2_2  and  C3_7 
REMARK       I    between atoms: C3_7  and  N2_9 
REMARK    3  A    between atoms: N2_9  and  C4_11 
REMARK    4  A    between atoms: C4_11  and  C5_12 
REMARK    5  A    between atoms: C4_11  and  C10_20 
REMARK       I    between atoms: C5_12  and  N3_14 
REMARK    6  A    between atoms: N3_14  and  C6_16 
ROOT
HETATM    1  C4  UNL     1      11.412  18.634  17.180  1.00  0.00     0.180 C 
ENDROOT
BRANCH   1   2
HETATM    2  N2  UNL     1      10.831  18.434  15.877  1.00  0.00    -0.346 N 
HETATM    3  C3  UNL     1      11.294  17.911  14.689  1.00  0.00     0.248 C 
HETATM    4  O1  UNL     1      12.411  17.424  14.431  1.00  0.00    -0.271 OA
ATOM      5  H2  UNL     1       9.863  18.750  15.821  1.00  0.00     0.163 HD
BRANCH   3   6
HETATM    6  C2  UNL     1      10.341  17.903  13.494  1.00  0.00     0.270 C 
HETATM    7  C1  UNL     1       9.228  16.907  13.750  1.00  0.00     0.050 C 
BRANCH   6   8
HETATM    8  N1  UNL     1       9.759  19.197  13.304  1.00  0.00    -0.067 N 
ATOM      9  H13 UNL     1       8.786  19.147  12.998  1.00  0.00     0.275 HD
ATOM     10  H12 UNL     1       9.604  19.689  14.184  1.00  0.00     0.275 HD
ATOM     11  H11 UNL     1      10.345  19.725  12.658  1.00  0.00     0.275 HD
ENDBRANCH   6   8
ENDBRANCH   3   6
ENDBRANCH   1   2
BRANCH   1  12
HETATM   12  C5  UNL     1      11.025  19.947  17.665  1.00  0.00     0.241 C 
HETATM   13  O2  UNL     1      10.371  20.718  16.877  1.00  0.00    -0.271 OA
HETATM   14  N3  UNL     1      11.298  20.481  18.936  1.00  0.00    -0.351 N 
ATOM     15  H3  UNL     1      11.826  19.910  19.596  1.00  0.00     0.163 HD
BRANCH  14  16
HETATM   16  C6  UNL     1      10.871  21.799  19.358  1.00  0.00     0.022 C 
HETATM   17  C7  UNL     1      11.350  22.015  20.771  1.00  0.00     0.037 C 
HETATM   18  C8  UNL     1       9.356  21.843  19.370  1.00  0.00     0.037 C 
HETATM   19  C9  UNL     1      11.368  22.906  18.490  1.00  0.00     0.037 C 
ENDBRANCH  14  16
ENDBRANCH   1  12
BRANCH   1  20
HETATM   20  C10 UNL     1      11.215  17.476  18.115  1.00  0.00     0.009 C 
HETATM   21  C11 UNL     1      10.399  16.394  17.440  1.00  0.00     0.012 C 
HETATM   22  C12 UNL     1      12.443  16.867  18.685  1.00  0.00     0.012 C 
ENDBRANCH   1  20
TORSDOF 6
ENDMDL
MODEL 3
REMARK VINA RESULT: -6.447743251      1.364      1.549
REMARK  6 active torsions:
REMARK  status: ('A' for Active; 'I' for Inactive)
REMARK    1  A    between atoms: C2_2  and  N1_3 
REMARK    2  A    between atoms: C2_2  and  C3_7 
REMARK       I    between atoms: C3_7  and  N2_9 
REMARK    3  A    between atoms: N2_9  and  C4_11 
REMARK    4  A    between atoms: C4_11  and  C5_12 
REMARK    5  A    between atoms: C4_11  and  C10_20 
REMARK       I    between atoms: C5_12  and  N3_14 
REMARK    6  A    between atoms: N3_14  and  C6_16 
ROOT
HETATM    1  C4  UNL     1      11.408  18.683  17.207  1.00  0.00     0.180 C 
ENDROOT
BRANCH   1   2
HETATM    2  N2  UNL     1      10.834  18.467  15.903  1.00  0.00    -0.346 N 
HETATM    3  C3  UNL     1      11.301  17.924  14.726  1.00  0.00     0.248 C 
HETATM    4  O1  UNL     1      12.418  17.429  14.482  1.00  0.00    -0.271 OA
ATOM      5  H2  UNL     1       9.867  18.786  15.837  1.00  0.00     0.163 HD
BRANCH   3   6
HETATM    6  C2  UNL     1      10.355  17.902  13.525  1.00  0.00     0.270 C 
HETATM    7  C1  UNL     1       9.253  16.895  13.778  1.00  0.00     0.050 C 
BRANCH   6   8
HETATM    8  N1  UNL     1       9.760  19.189  13.328  1.00  0.00    -0.067 N 
ATOM      9  H13 UNL     1       8.741  19.149  13.307  1.00  0.00     0.275 HD
ATOM     10  H12 UNL     1       9.860  19.795  14.143  1.00  0.00     0.275 HD
ATOM     11  H11 UNL     1      10.154  19.603  12.484  1.00  0.00     0.275 HD
ENDBRANCH   6   8
ENDBRANCH   3   6
ENDBRANCH   1   2
BRANCH   1  12
HETATM   12  C5  UNL     1      10.986  19.987  17.690  1.00  0.00     0.241 C 
HETATM   13  O2  UNL     1      10.288  20.728  16.909  1.00  0.00    -0.271 OA
HETATM   14  N3  UNL     1      11.268  20.541  18.949  1.00  0.00    -0.351 N 
ATOM     15  H3  UNL     1      11.830  19.995  19.602  1.00  0.00     0.163 HD
BRANCH  14  16
HETATM   16  C6  UNL     1      10.805  21.847  19.370  1.00  0.00     0.022 C 
HETATM   17  C7  UNL     1      11.445  22.880  18.477  1.00  0.00     0.037 C 
HETATM   18  C8  UNL     1      11.276  22.101  20.787  1.00  0.00     0.037 C 
HETATM   19  C9  UNL     1       9.321  22.008  19.330  1.00  0.00     0.037 C 
ENDBRANCH  14  16
ENDBRANCH   1  12
BRANCH   1  20
HETATM   20  C10 UNL     1      11.240  17.522  18.143  1.00  0.00     0.009 C 
HETATM   21  C11 UNL     1      10.410  16.440  17.487  1.00  0.00     0.012 C 
HETATM   22  C12 UNL     1      12.484  16.916  18.679  1.00  0.00     0.012 C 
ENDBRANCH   1  20
TORSDOF 6
ENDMDL
MODEL 4
REMARK VINA RESULT: -6.301093675      1.543      1.956
REMARK  6 active torsions:
REMARK  status: ('A' for Active; 'I' for Inactive)
REMARK    1  A    between atoms: C2_2  and  N1_3 
REMARK    2  A    between atoms: C2_2  and  C3_7 
REMARK       I    between atoms: C3_7  and  N2_9 
REMARK    3  A    between atoms: N2_9  and  C4_11 
REMARK    4  A    between atoms: C4_11  and  C5_12 
REMARK    5  A    between atoms: C4_11  and  C10_20 
REMARK       I    between atoms: C5_12  and  N3_14 
REMARK    6  A    between atoms: N3_14  and  C6_16 
ROOT
HETATM    1  C4  UNL     1      11.754  18.353  17.729  1.00  0.00     0.180 C 
ENDROOT
BRANCH   1   2
HETATM    2  N2  UNL     1      11.290  18.728  16.417  1.00  0.00    -0.346 N 
HETATM    3  C3  UNL     1      11.581  18.304  15.139  1.00  0.00     0.248 C 
HETATM    4  O1  UNL     1      12.363  17.408  14.770  1.00  0.00    -0.271 OA
ATOM      5  H2  UNL     1      10.593  19.472  16.440  1.00  0.00     0.163 HD
BRANCH   3   6
HETATM    6  C2  UNL     1      10.868  18.998  13.977  1.00  0.00     0.270 C 
HETATM    7  C1  UNL     1      10.752  20.478  14.279  1.00  0.00     0.050 C 
BRANCH   6   8
HETATM    8  N1  UNL     1      11.608  18.837  12.763  1.00  0.00    -0.067 N 
ATOM      9  H13 UNL     1      11.800  19.727  12.301  1.00  0.00     0.275 HD
ATOM     10  H12 UNL     1      12.574  18.554  12.928  1.00  0.00     0.275 HD
ATOM     11  H11 UNL     1      11.106  18.185  12.161  1.00  0.00     0.275 HD
ENDBRANCH   6   8
ENDBRANCH   3   6
ENDBRANCH   1   2
BRANCH   1  12
HETATM   12  C5  UNL     1      11.543  19.470  18.633  1.00  0.00     0.241 C 
HETATM   13  O2  UNL     1      11.628  19.256  19.894  1.00  0.00    -0.271 OA
HETATM   14  N3  UNL     1      11.244  20.793  18.269  1.00  0.00    -0.351 N 
ATOM     15  H3  UNL     1      11.154  21.012  17.276  1.00  0.00     0.163 HD
BRANCH  14  16
HETATM   16  C6  UNL     1      11.055  21.863  19.226  1.00  0.00     0.022 C 
HETATM   17  C7  UNL     1       9.602  21.881  19.628  1.00  0.00     0.037 C 
HETATM   18  C8  UNL     1      11.367  23.184  18.553  1.00  0.00     0.037 C 
HETATM   19  C9  UNL     1      11.906  21.743  20.447  1.00  0.00     0.037 C 
ENDBRANCH  14  16
ENDBRANCH   1  12
BRANCH   1  20
HETATM   20  C10 UNL     1      11.267  17.008  18.181  1.00  0.00     0.009 C 
HETATM   21  C11 UNL     1      10.149  16.528  17.281  1.00  0.00     0.012 C 
HETATM   22  C12 UNL     1      12.288  15.935  18.294  1.00  0.00     0.012 C 
ENDBRANCH   1  20
TORSDOF 6
ENDMDL
MODEL 5
REMARK VINA RESULT: -6.276011499      2.712      4.390
REMARK  6 active torsions:
REMARK  status: ('A' for Active; 'I' for Inactive)
REMARK    1  A    between atoms: C2_2  and  N1_3 
REMARK    2  A    between atoms: C2_2  and  C3_7 
REMARK       I    between atoms: C3_7  and  N2_9 
REMARK    3  A    between atoms: N2_9  and  C4_11 
REMARK    4  A    between atoms: C4_11  and  C5_12 
REMARK    5  A    between atoms: C4_11  and  C10_20 
REMARK       I    between atoms: C5_12  and  N3_14 
REMARK    6  A    between atoms: N3_14  and  C6_16 
ROOT
HETATM    1  C4  UNL     1      11.624  17.654  18.281  1.00  0.00     0.180 C 
ENDROOT
BRANCH   1   2
HETATM    2  N2  UNL     1      13.006  17.324  18.044  1.00  0.00    -0.346 N 
HETATM    3  C3  UNL     1      13.839  16.313  18.471  1.00  0.00     0.248 C 
HETATM    4  O1  UNL     1      13.579  15.346  19.211  1.00  0.00    -0.271 OA
ATOM      5  H2  UNL     1      13.472  17.985  17.422  1.00  0.00     0.163 HD
BRANCH   3   6
HETATM    6  C2  UNL     1      15.292  16.337  17.997  1.00  0.00     0.270 C 
HETATM    7  C1  UNL     1      16.106  15.375  18.838  1.00  0.00     0.050 C 
BRANCH   6   8
HETATM    8  N1  UNL     1      15.383  15.932  16.626  1.00  0.00    -0.067 N 
ATOM      9  H13 UNL     1      14.693  16.397  16.035  1.00  0.00     0.275 HD
ATOM     10  H12 UNL     1      16.222  16.287  16.168  1.00  0.00     0.275 HD
ATOM     11  H11 UNL     1      15.313  14.916  16.583  1.00  0.00     0.275 HD
ENDBRANCH   6   8
ENDBRANCH   3   6
ENDBRANCH   1   2
BRANCH   1  12
HETATM   12  C5  UNL     1      11.562  18.941  18.952  1.00  0.00     0.241 C 
HETATM   13  O2  UNL     1      11.901  19.000  20.187  1.00  0.00    -0.271 OA
HETATM   14  N3  UNL     1      11.158  20.160  18.382  1.00  0.00    -0.351 N 
ATOM     15  H3  UNL     1      10.868  20.164  17.404  1.00  0.00     0.163 HD
BRANCH  14  16
HETATM   16  C6  UNL     1      11.131  21.412  19.109  1.00  0.00     0.022 C 
HETATM   17  C7  UNL     1       9.831  21.483  19.869  1.00  0.00     0.037 C 
HETATM   18  C8  UNL     1      11.151  22.556  18.116  1.00  0.00     0.037 C 
HETATM   19  C9  UNL     1      12.270  21.590  20.057  1.00  0.00     0.037 C 
ENDBRANCH  14  16
ENDBRANCH   1  12
BRANCH   1  20
HETATM   20  C10 UNL     1      10.742  17.468  17.081  1.00  0.00     0.009 C 
HETATM   21  C11 UNL     1      11.529  17.717  15.812  1.00  0.00     0.012 C 
HETATM   22  C12 UNL     1      10.045  16.162  16.966  1.00  0.00     0.012 C 
ENDBRANCH   1  20
TORSDOF 6
ENDMDL
