MODEL 1
REMARK VINA RESULT: -7.427047500      0.000      0.000
REMARK  5 active torsions:
REMARK  status: ('A' for Active; 'I' for Inactive)
REMARK    1  A    between atoms: C5_5  and  C6_6 
REMARK    2  A    between atoms: N1_7  and  N2_9 
REMARK       I    between atoms: N2_9  and  C7_11 
REMARK       I    between atoms: C7_11  and  N4_15 
REMARK    3  A    between atoms: N4_15  and  C8_17 
REMARK    4  A    between atoms: C8_17  and  C9_18 
REMARK    5  A    between atoms: C9_18  and  N5_19 
ROOT
HETATM    1  N2  UNL     1      10.492  19.733  17.243  1.00  0.00    -0.133 N 
ATOM      2  H2  UNL     1      10.013  18.940  16.818  1.00  0.00     0.205 HD
HETATM    3  C7  UNL     1      10.115  21.043  16.807  1.00  0.00     0.686 C 
HETATM    4  N3  UNL     1      10.866  21.693  16.019  1.00  0.00    -0.234 N 
ATOM      5  H31 UNL     1      10.597  22.626  15.708  1.00  0.00     0.174 HD
ATOM      6  H32 UNL     1      11.746  21.298  15.688  1.00  0.00     0.174 HD
HETATM    7  N4  UNL     1       8.900  21.589  17.265  1.00  0.00    -0.224 N 
ATOM      8  H4  UNL     1       8.017  21.302  16.843  1.00  0.00     0.177 HD
ENDROOT
BRANCH   1   9
HETATM    9  N1  UNL     1      11.428  19.465  18.169  1.00  0.00    -0.297 N 
HETATM   10  C6  UNL     1      12.000  18.508  18.673  1.00  0.00     0.119 C 
ATOM     11  H1  UNL     1      11.767  20.334  18.583  1.00  0.00     0.186 HD
BRANCH  10  12
HETATM   12  C5  UNL     1      11.789  17.112  18.345  1.00  0.00    -0.019 A 
HETATM   13  C4  UNL     1      12.654  16.088  18.682  1.00  0.00     0.013 A 
HETATM   14  C3  UNL     1      12.355  14.776  18.310  1.00  0.00     0.007 A 
HETATM   15  C2  UNL     1      11.210  14.477  17.612  1.00  0.00    -0.062 A 
HETATM   16  C1  UNL     1      10.873  13.093  17.208  1.00  0.00     0.048 C 
HETATM   17  C13 UNL     1      10.360  15.523  17.287  1.00  0.00     0.007 A 
HETATM   18  C12 UNL     1      10.617  16.815  17.631  1.00  0.00     0.013 A 
ENDBRANCH  10  12
ENDBRANCH   1   9
BRANCH   7  19
HETATM   19  C8  UNL     1       8.910  22.553  18.333  1.00  0.00     0.168 C 
BRANCH  19  20
HETATM   20  C9  UNL     1       9.393  21.920  19.619  1.00  0.00     0.291 C 
BRANCH  20  21
HETATM   21  N5  UNL     1      10.518  22.697  20.079  1.00  0.00     0.081 N 
HETATM   22  C10 UNL     1      11.035  23.586  19.070  1.00  0.00     0.309 C 
HETATM   23  C11 UNL     1      11.546  21.881  20.682  1.00  0.00     0.309 C 
ENDBRANCH  20  21
ENDBRANCH  19  20
ENDBRANCH   7  19
TORSDOF 5
ENDMDL
MODEL 2
REMARK VINA RESULT: -6.921257815      2.854      6.110
REMARK  5 active torsions:
REMARK  status: ('A' for Active; 'I' for Inactive)
REMARK    1  A    between atoms: C5_5  and  C6_6 
REMARK    2  A    between atoms: N1_7  and  N2_9 
REMARK       I    between atoms: N2_9  and  C7_11 
REMARK       I    between atoms: C7_11  and  N4_15 
REMARK    3  A    between atoms: N4_15  and  C8_17 
REMARK    4  A    between atoms: C8_17  and  C9_18 
REMARK    5  A    between atoms: C9_18  and  N5_19 
ROOT
HETATM    1  N2  UNL     1      10.270  16.782  17.358  1.00  0.00    -0.133 N 
ATOM      2  H2  UNL     1       9.355  16.897  17.795  1.00  0.00     0.205 HD
HETATM    3  C7  UNL     1      10.297  16.446  15.967  1.00  0.00     0.686 C 
HETATM    4  N3  UNL     1      10.564  15.261  15.602  1.00  0.00    -0.234 N 
ATOM      5  H31 UNL     1      10.584  15.022  14.611  1.00  0.00     0.174 HD
ATOM      6  H32 UNL     1      10.764  14.534  16.288  1.00  0.00     0.174 HD
HETATM    7  N4  UNL     1      10.021  17.451  15.019  1.00  0.00    -0.224 N 
ATOM      8  H4  UNL     1       9.058  17.728  14.831  1.00  0.00     0.177 HD
ENDROOT
BRANCH   1   9
HETATM    9  N1  UNL     1      11.352  16.956  18.133  1.00  0.00    -0.297 N 
HETATM   10  C6  UNL     1      11.976  17.855  18.682  1.00  0.00     0.119 C 
ATOM     11  H1  UNL     1      11.793  16.057  18.325  1.00  0.00     0.186 HD
BRANCH  10  12
HETATM   12  C5  UNL     1      11.658  19.269  18.642  1.00  0.00    -0.019 A 
HETATM   13  C4  UNL     1      11.134  19.924  17.544  1.00  0.00     0.013 A 
HETATM   14  C3  UNL     1      10.870  21.293  17.612  1.00  0.00     0.007 A 
HETATM   15  C2  UNL     1      11.121  22.010  18.758  1.00  0.00    -0.062 A 
HETATM   16  C1  UNL     1      10.847  23.462  18.852  1.00  0.00     0.048 C 
HETATM   17  C13 UNL     1      11.646  21.329  19.844  1.00  0.00     0.007 A 
HETATM   18  C12 UNL     1      11.918  19.995  19.815  1.00  0.00     0.013 A 
ENDBRANCH  10  12
ENDBRANCH   1   9
BRANCH   7  19
HETATM   19  C8  UNL     1      11.105  18.086  14.317  1.00  0.00     0.168 C 
BRANCH  19  20
HETATM   20  C9  UNL     1      10.615  18.700  13.024  1.00  0.00     0.291 C 
BRANCH  20  21
HETATM   21  N5  UNL     1      11.212  20.009  12.923  1.00  0.00     0.081 N 
HETATM   22  C10 UNL     1      10.656  20.953  13.859  1.00  0.00     0.309 C 
HETATM   23  C11 UNL     1      11.223  20.510  11.568  1.00  0.00     0.309 C 
ENDBRANCH  20  21
ENDBRANCH  19  20
ENDBRANCH   7  19
TORSDOF 5
ENDMDL
MODEL 3
REMARK VINA RESULT: -6.805103867      3.243      7.862
REMARK  5 active torsions:
REMARK  status: ('A' for Active; 'I' for Inactive)
REMARK    1  A    between atoms: C5_5  and  C6_6 
REMARK    2  A    between atoms: N1_7  and  N2_9 
REMARK       I    between atoms: N2_9  and  C7_11 
REMARK       I    between atoms: C7_11  and  N4_15 
REMARK    3  A    between atoms: N4_15  and  C8_17 
REMARK    4  A    between atoms: C8_17  and  C9_18 
REMARK    5  A    between atoms: C9_18  and  N5_19 
ROOT
HETATM    1  N2  UNL     1      10.616  16.356  17.314  1.00  0.00    -0.133 N 
ATOM      2  H2  UNL     1       9.685  16.440  17.723  1.00  0.00     0.205 HD
HETATM    3  C7  UNL     1      11.423  15.251  17.733  1.00  0.00     0.686 C 
HETATM    4  N3  UNL     1      12.378  15.433  18.547  1.00  0.00    -0.234 N 
ATOM      5  H31 UNL     1      12.953  14.646  18.846  1.00  0.00     0.174 HD
ATOM      6  H32 UNL     1      12.587  16.362  18.912  1.00  0.00     0.174 HD
HETATM    7  N4  UNL     1      11.135  13.968  17.229  1.00  0.00    -0.224 N 
ATOM      8  H4  UNL     1      10.365  13.424  17.619  1.00  0.00     0.177 HD
ENDROOT
BRANCH   1   9
HETATM    9  N1  UNL     1      10.986  17.291  16.424  1.00  0.00    -0.297 N 
HETATM   10  C6  UNL     1      11.262  18.483  16.377  1.00  0.00     0.119 C 
ATOM     11  H1  UNL     1      11.061  16.878  15.494  1.00  0.00     0.186 HD
BRANCH  10  12
HETATM   12  C5  UNL     1      11.269  19.406  17.494  1.00  0.00    -0.019 A 
HETATM   13  C4  UNL     1      11.601  19.065  18.792  1.00  0.00     0.013 A 
HETATM   14  C3  UNL     1      11.569  20.034  19.796  1.00  0.00     0.007 A 
HETATM   15  C2  UNL     1      11.213  21.333  19.520  1.00  0.00    -0.062 A 
HETATM   16  C1  UNL     1      11.173  22.377  20.568  1.00  0.00     0.048 C 
HETATM   17  C13 UNL     1      10.885  21.648  18.210  1.00  0.00     0.007 A 
HETATM   18  C12 UNL     1      10.904  20.731  17.205  1.00  0.00     0.013 A 
ENDBRANCH  10  12
ENDBRANCH   1   9
BRANCH   7  19
HETATM   19  C8  UNL     1      11.932  13.426  16.160  1.00  0.00     0.168 C 
BRANCH  19  20
HETATM   20  C9  UNL     1      11.112  12.483  15.308  1.00  0.00     0.291 C 
BRANCH  20  21
HETATM   21  N5  UNL     1      11.830  11.234  15.245  1.00  0.00     0.081 N 
HETATM   22  C10 UNL     1      11.468  10.325  16.303  1.00  0.00     0.309 C 
HETATM   23  C11 UNL     1      13.258  11.420  15.136  1.00  0.00     0.309 C 
ENDBRANCH  20  21
ENDBRANCH  19  20
ENDBRANCH   7  19
TORSDOF 5
ENDMDL
MODEL 4
REMARK VINA RESULT: -6.792154588      2.893      7.190
REMARK  5 active torsions:
REMARK  status: ('A' for Active; 'I' for Inactive)
REMARK    1  A    between atoms: C5_5  and  C6_6 
REMARK    2  A    between atoms: N1_7  and  N2_9 
REMARK       I    between atoms: N2_9  and  C7_11 
REMARK       I    between atoms: C7_11  and  N4_15 
REMARK    3  A    between atoms: N4_15  and  C8_17 
REMARK    4  A    between atoms: C8_17  and  C9_18 
REMARK    5  A    between atoms: C9_18  and  N5_19 
ROOT
HETATM    1  N2  UNL     1      10.834  16.485  17.599  1.00  0.00    -0.133 N 
ATOM      2  H2  UNL     1       9.948  16.603  18.091  1.00  0.00     0.205 HD
HETATM    3  C7  UNL     1      11.646  15.365  17.962  1.00  0.00     0.686 C 
HETATM    4  N3  UNL     1      12.678  15.531  18.680  1.00  0.00    -0.234 N 
ATOM      5  H31 UNL     1      13.256  14.733  18.939  1.00  0.00     0.174 HD
ATOM      6  H32 UNL     1      12.945  16.460  19.007  1.00  0.00     0.174 HD
HETATM    7  N4  UNL     1      11.277  14.082  17.511  1.00  0.00    -0.224 N 
ATOM      8  H4  UNL     1      10.532  13.568  17.981  1.00  0.00     0.177 HD
ENDROOT
BRANCH   1   9
HETATM    9  N1  UNL     1      11.145  17.395  16.661  1.00  0.00    -0.297 N 
HETATM   10  C6  UNL     1      11.337  18.599  16.551  1.00  0.00     0.119 C 
ATOM     11  H1  UNL     1      11.256  16.938  15.756  1.00  0.00     0.186 HD
BRANCH  10  12
HETATM   12  C5  UNL     1      11.270  19.579  17.616  1.00  0.00    -0.019 A 
HETATM   13  C4  UNL     1      11.621  19.335  18.930  1.00  0.00     0.013 A 
HETATM   14  C3  UNL     1      11.511  20.353  19.880  1.00  0.00     0.007 A 
HETATM   15  C2  UNL     1      11.060  21.604  19.533  1.00  0.00    -0.062 A 
HETATM   16  C1  UNL     1      10.937  22.698  20.523  1.00  0.00     0.048 C 
HETATM   17  C13 UNL     1      10.715  21.822  18.208  1.00  0.00     0.007 A 
HETATM   18  C12 UNL     1      10.807  20.855  17.254  1.00  0.00     0.013 A 
ENDBRANCH  10  12
ENDBRANCH   1   9
BRANCH   7  19
HETATM   19  C8  UNL     1      11.955  13.500  16.384  1.00  0.00     0.168 C 
BRANCH  19  20
HETATM   20  C9  UNL     1      10.971  13.163  15.285  1.00  0.00     0.291 C 
BRANCH  20  21
HETATM   21  N5  UNL     1      11.154  14.137  14.237  1.00  0.00     0.081 N 
HETATM   22  C10 UNL     1      12.448  14.769  14.279  1.00  0.00     0.309 C 
HETATM   23  C11 UNL     1      10.071  15.091  14.171  1.00  0.00     0.309 C 
ENDBRANCH  20  21
ENDBRANCH  19  20
ENDBRANCH   7  19
TORSDOF 5
ENDMDL
MODEL 5
REMARK VINA RESULT: -6.773452535      1.692      2.810
REMARK  5 active torsions:
REMARK  status: ('A' for Active; 'I' for Inactive)
REMARK    1  A    between atoms: C5_5  and  C6_6 
REMARK    2  A    between atoms: N1_7  and  N2_9 
REMARK       I    between atoms: N2_9  and  C7_11 
REMARK       I    between atoms: C7_11  and  N4_15 
REMARK    3  A    between atoms: N4_15  and  C8_17 
REMARK    4  A    between atoms: C8_17  and  C9_18 
REMARK    5  A    between atoms: C9_18  and  N5_19 
ROOT
HETATM    1  N2  UNL     1      10.736  18.226  16.871  1.00  0.00    -0.133 N 
ATOM      2  H2  UNL     1      10.858  18.333  15.864  1.00  0.00     0.205 HD
HETATM    3  C7  UNL     1      11.016  19.363  17.694  1.00  0.00     0.686 C 
HETATM    4  N3  UNL     1      12.090  19.414  18.366  1.00  0.00    -0.234 N 
ATOM      5  H31 UNL     1      12.289  20.224  18.953  1.00  0.00     0.174 HD
ATOM      6  H32 UNL     1      12.766  18.652  18.334  1.00  0.00     0.174 HD
HETATM    7  N4  UNL     1      10.081  20.416  17.739  1.00  0.00    -0.224 N 
ATOM      8  H4  UNL     1      10.041  21.099  16.982  1.00  0.00     0.177 HD
ENDROOT
BRANCH   1   9
HETATM    9  N1  UNL     1      10.326  17.028  17.319  1.00  0.00    -0.297 N 
HETATM   10  C6  UNL     1      10.790  15.958  17.691  1.00  0.00     0.119 C 
ATOM     11  H1  UNL     1       9.307  17.002  17.363  1.00  0.00     0.186 HD
BRANCH  10  12
HETATM   12  C5  UNL     1      12.195  15.613  17.770  1.00  0.00    -0.019 A 
HETATM   13  C4  UNL     1      12.878  14.884  16.815  1.00  0.00     0.013 A 
HETATM   14  C3  UNL     1      14.234  14.601  16.993  1.00  0.00     0.007 A 
HETATM   15  C2  UNL     1      14.911  15.038  18.107  1.00  0.00    -0.062 A 
HETATM   16  C1  UNL     1      16.348  14.752  18.316  1.00  0.00     0.048 C 
HETATM   17  C13 UNL     1      14.203  15.768  19.049  1.00  0.00     0.007 A 
HETATM   18  C12 UNL     1      12.880  16.062  18.910  1.00  0.00     0.013 A 
ENDBRANCH  10  12
ENDBRANCH   1   9
BRANCH   7  19
HETATM   19  C8  UNL     1       9.184  20.525  18.857  1.00  0.00     0.168 C 
BRANCH  19  20
HETATM   20  C9  UNL     1       9.211  21.925  19.429  1.00  0.00     0.291 C 
BRANCH  20  21
HETATM   21  N5  UNL     1      10.593  22.336  19.481  1.00  0.00     0.081 N 
HETATM   22  C10 UNL     1      11.169  22.199  20.795  1.00  0.00     0.309 C 
HETATM   23  C11 UNL     1      10.803  23.649  18.916  1.00  0.00     0.309 C 
ENDBRANCH  20  21
ENDBRANCH  19  20
ENDBRANCH   7  19
TORSDOF 5
ENDMDL
