MODEL 1
REMARK VINA RESULT: -7.768729629      0.000      0.000
REMARK  5 active torsions:
REMARK  status: ('A' for Active; 'I' for Inactive)
REMARK    1  A    between atoms: N1_2  and  C2_5 
REMARK    2  A    between atoms: C2_5  and  C4_7 
REMARK    3  A    between atoms: C4_7  and  N3_11 
REMARK       I    between atoms: N3_11  and  C5_13 
REMARK    4  A    between atoms: C5_13  and  C6_15 
REMARK    5  A    between atoms: C9_18  and  O2_19 
ROOT
HETATM    1  N3  UNL     1       9.845  19.953  18.667  1.00  0.00    -0.311 N 
ATOM      2  H3  UNL     1       9.418  19.295  19.317  1.00  0.00     0.170 HD
HETATM    3  C5  UNL     1      10.717  19.393  17.738  1.00  0.00     0.257 C 
HETATM    4  O1  UNL     1      11.339  20.007  16.855  1.00  0.00    -0.267 OA
ENDROOT
BRANCH   1   5
HETATM    5  C4  UNL     1       9.473  21.282  18.833  1.00  0.00     0.108 C 
HETATM    6  N2  UNL     1       8.265  21.620  18.359  1.00  0.00    -0.387 N 
ATOM      7  H22 UNL     1       7.991  22.595  18.481  1.00  0.00     0.157 HD
ATOM      8  H21 UNL     1       7.704  20.893  17.915  1.00  0.00     0.157 HD
BRANCH   5   9
HETATM    9  C2  UNL     1      10.276  22.323  19.469  1.00  0.00     0.247 C 
HETATM   10  C3  UNL     1      11.208  23.069  18.569  1.00  0.00     0.048 C 
BRANCH   9  11
HETATM   11  N1  UNL     1      10.967  21.787  20.620  1.00  0.00    -0.068 N 
HETATM   12  C1  UNL     1      12.356  21.542  20.299  1.00  0.00     0.267 C 
ATOM     13  H12 UNL     1      10.507  20.953  20.986  1.00  0.00     0.277 HD
ATOM     14  H11 UNL     1      10.865  22.387  21.439  1.00  0.00     0.277 HD
ENDBRANCH   9  11
ENDBRANCH   5   9
ENDBRANCH   1   5
BRANCH   3  15
HETATM   15  C6  UNL     1      10.963  17.929  17.758  1.00  0.00     0.033 A 
HETATM   16  C7  UNL     1      10.074  17.111  17.112  1.00  0.00     0.020 A 
HETATM   17  C8  UNL     1      10.354  15.739  17.150  1.00  0.00     0.038 A 
HETATM   18  C9  UNL     1      11.460  15.240  17.800  1.00  0.00     0.074 A 
HETATM   19  C11 UNL     1      12.342  16.083  18.445  1.00  0.00    -0.028 A 
HETATM   20  C12 UNL     1      13.542  15.626  19.164  1.00  0.00     0.051 C 
HETATM   21  C13 UNL     1      12.084  17.435  18.418  1.00  0.00     0.026 A 
BRANCH  18  22
HETATM   22  O2  UNL     1      11.737  13.893  17.839  1.00  0.00    -0.355 OA
HETATM   23  C10 UNL     1      10.783  12.869  17.675  1.00  0.00     0.210 C 
ENDBRANCH  18  22
ENDBRANCH   3  15
TORSDOF 5
ENDMDL
MODEL 2
REMARK VINA RESULT: -7.248150138      1.254      2.440
REMARK  5 active torsions:
REMARK  status: ('A' for Active; 'I' for Inactive)
REMARK    1  A    between atoms: N1_2  and  C2_5 
REMARK    2  A    between atoms: C2_5  and  C4_7 
REMARK    3  A    between atoms: C4_7  and  N3_11 
REMARK       I    between atoms: N3_11  and  C5_13 
REMARK    4  A    between atoms: C5_13  and  C6_15 
REMARK    5  A    between atoms: C9_18  and  O2_19 
ROOT
HETATM    1  N3  UNL     1      11.280  19.557  19.801  1.00  0.00    -0.311 N 
ATOM      2  H3  UNL     1      11.170  18.826  20.503  1.00  0.00     0.170 HD
HETATM    3  C5  UNL     1      11.440  19.110  18.493  1.00  0.00     0.257 C 
HETATM    4  O1  UNL     1      11.583  19.824  17.488  1.00  0.00    -0.267 OA
ENDROOT
BRANCH   1   5
HETATM    5  C4  UNL     1      11.248  20.860  20.287  1.00  0.00     0.108 C 
HETATM    6  N2  UNL     1      12.382  21.310  20.841  1.00  0.00    -0.387 N 
ATOM      7  H22 UNL     1      12.360  22.265  21.198  1.00  0.00     0.157 HD
ATOM      8  H21 UNL     1      13.184  20.680  20.870  1.00  0.00     0.157 HD
BRANCH   5   9
HETATM    9  C2  UNL     1      10.099  21.761  20.245  1.00  0.00     0.247 C 
HETATM   10  C3  UNL     1       9.043  21.424  19.242  1.00  0.00     0.048 C 
BRANCH   9  11
HETATM   11  N1  UNL     1      10.543  23.129  20.107  1.00  0.00    -0.068 N 
HETATM   12  C1  UNL     1      10.830  23.424  18.719  1.00  0.00     0.267 C 
ATOM     13  H12 UNL     1      11.338  23.335  20.712  1.00  0.00     0.277 HD
ATOM     14  H11 UNL     1       9.876  23.789  20.506  1.00  0.00     0.277 HD
ENDBRANCH   9  11
ENDBRANCH   5   9
ENDBRANCH   1   5
BRANCH   3  15
HETATM   15  C6  UNL     1      11.444  17.651  18.216  1.00  0.00     0.033 A 
HETATM   16  C7  UNL     1      12.495  16.903  18.678  1.00  0.00     0.020 A 
HETATM   17  C8  UNL     1      12.448  15.531  18.401  1.00  0.00     0.038 A 
HETATM   18  C9  UNL     1      11.405  14.964  17.704  1.00  0.00     0.074 A 
HETATM   19  C11 UNL     1      10.356  15.738  17.249  1.00  0.00    -0.028 A 
HETATM   20  C12 UNL     1       9.209  15.206  16.494  1.00  0.00     0.051 C 
HETATM   21  C13 UNL     1      10.383  17.088  17.511  1.00  0.00     0.026 A 
BRANCH  18  22
HETATM   22  O2  UNL     1      11.357  13.617  17.431  1.00  0.00    -0.355 OA
HETATM   23  C10 UNL     1      11.925  13.004  16.297  1.00  0.00     0.210 C 
ENDBRANCH  18  22
ENDBRANCH   3  15
TORSDOF 5
ENDMDL
MODEL 3
REMARK VINA RESULT: -7.239467904      1.467      2.687
REMARK  5 active torsions:
REMARK  status: ('A' for Active; 'I' for Inactive)
REMARK    1  A    between atoms: N1_2  and  C2_5 
REMARK    2  A    between atoms: C2_5  and  C4_7 
REMARK    3  A    between atoms: C4_7  and  N3_11 
REMARK       I    between atoms: N3_11  and  C5_13 
REMARK    4  A    between atoms: C5_13  and  C6_15 
REMARK    5  A    between atoms: C9_18  and  O2_19 
ROOT
HETATM    1  N3  UNL     1      11.506  19.692  18.376  1.00  0.00    -0.311 N 
ATOM      2  H3  UNL     1      11.184  19.501  17.427  1.00  0.00     0.170 HD
HETATM    3  C5  UNL     1      11.835  18.570  19.130  1.00  0.00     0.257 C 
HETATM    4  O1  UNL     1      12.251  18.571  20.300  1.00  0.00    -0.267 OA
ENDROOT
BRANCH   1   5
HETATM    5  C4  UNL     1      11.553  21.035  18.731  1.00  0.00     0.108 C 
HETATM    6  N2  UNL     1      12.319  21.338  19.788  1.00  0.00    -0.387 N 
ATOM      7  H22 UNL     1      12.354  22.324  20.049  1.00  0.00     0.157 HD
ATOM      8  H21 UNL     1      12.811  20.578  20.258  1.00  0.00     0.157 HD
BRANCH   5   9
HETATM    9  C2  UNL     1      10.848  22.124  18.058  1.00  0.00     0.247 C 
HETATM   10  C3  UNL     1      10.763  23.410  18.814  1.00  0.00     0.048 C 
BRANCH   9  11
HETATM   11  N1  UNL     1       9.545  21.679  17.621  1.00  0.00    -0.068 N 
HETATM   12  C1  UNL     1       8.595  21.770  18.708  1.00  0.00     0.267 C 
ATOM     13  H12 UNL     1       9.577  20.741  17.219  1.00  0.00     0.277 HD
ATOM     14  H11 UNL     1       9.227  22.185  16.794  1.00  0.00     0.277 HD
ENDBRANCH   9  11
ENDBRANCH   5   9
ENDBRANCH   1   5
BRANCH   3  15
HETATM   15  C6  UNL     1      11.698  17.219  18.528  1.00  0.00     0.033 A 
HETATM   16  C7  UNL     1      12.654  16.280  18.811  1.00  0.00     0.020 A 
HETATM   17  C8  UNL     1      12.476  15.019  18.228  1.00  0.00     0.038 A 
HETATM   18  C9  UNL     1      11.400  14.738  17.416  1.00  0.00     0.074 A 
HETATM   19  C11 UNL     1      10.449  15.701  17.145  1.00  0.00    -0.028 A 
HETATM   20  C12 UNL     1       9.275  15.478  16.284  1.00  0.00     0.051 C 
HETATM   21  C13 UNL     1      10.606  16.946  17.709  1.00  0.00     0.026 A 
BRANCH  18  22
HETATM   22  O2  UNL     1      11.223  13.501  16.843  1.00  0.00    -0.355 OA
HETATM   23  C10 UNL     1      10.709  12.370  17.509  1.00  0.00     0.210 C 
ENDBRANCH  18  22
ENDBRANCH   3  15
TORSDOF 5
ENDMDL
MODEL 4
REMARK VINA RESULT: -7.230527493      0.569      1.717
REMARK  5 active torsions:
REMARK  status: ('A' for Active; 'I' for Inactive)
REMARK    1  A    between atoms: N1_2  and  C2_5 
REMARK    2  A    between atoms: C2_5  and  C4_7 
REMARK    3  A    between atoms: C4_7  and  N3_11 
REMARK       I    between atoms: N3_11  and  C5_13 
REMARK    4  A    between atoms: C5_13  and  C6_15 
REMARK    5  A    between atoms: C9_18  and  O2_19 
ROOT
HETATM    1  N3  UNL     1       9.780  19.901  18.710  1.00  0.00    -0.311 N 
ATOM      2  H3  UNL     1       9.256  19.210  19.245  1.00  0.00     0.170 HD
HETATM    3  C5  UNL     1      10.770  19.387  17.879  1.00  0.00     0.257 C 
HETATM    4  O1  UNL     1      11.520  20.045  17.139  1.00  0.00    -0.267 OA
ENDROOT
BRANCH   1   5
HETATM    5  C4  UNL     1       9.403  21.224  18.914  1.00  0.00     0.108 C 
HETATM    6  N2  UNL     1       8.221  21.586  18.397  1.00  0.00    -0.387 N 
ATOM      7  H22 UNL     1       7.944  22.556  18.547  1.00  0.00     0.157 HD
ATOM      8  H21 UNL     1       7.681  20.881  17.896  1.00  0.00     0.157 HD
BRANCH   5   9
HETATM    9  C2  UNL     1      10.177  22.233  19.633  1.00  0.00     0.247 C 
HETATM   10  C3  UNL     1      11.037  23.117  18.788  1.00  0.00     0.048 C 
BRANCH   9  11
HETATM   11  N1  UNL     1      10.935  21.616  20.697  1.00  0.00    -0.068 N 
HETATM   12  C1  UNL     1      12.340  21.578  20.352  1.00  0.00     0.267 C 
ATOM     13  H12 UNL     1      10.576  20.692  20.935  1.00  0.00     0.277 HD
ATOM     14  H11 UNL     1      10.776  22.075  21.594  1.00  0.00     0.277 HD
ENDBRANCH   9  11
ENDBRANCH   5   9
ENDBRANCH   1   5
BRANCH   3  15
HETATM   15  C6  UNL     1      10.993  17.919  17.830  1.00  0.00     0.033 A 
HETATM   16  C7  UNL     1      12.140  17.416  18.386  1.00  0.00     0.020 A 
HETATM   17  C8  UNL     1      12.300  16.027  18.325  1.00  0.00     0.038 A 
HETATM   18  C9  UNL     1      11.358  15.210  17.739  1.00  0.00     0.074 A 
HETATM   19  C11 UNL     1      10.210  15.740  17.186  1.00  0.00    -0.028 A 
HETATM   20  C12 UNL     1       9.161  14.934  16.539  1.00  0.00     0.051 C 
HETATM   21  C13 UNL     1      10.035  17.103  17.236  1.00  0.00     0.026 A 
BRANCH  18  22
HETATM   22  O2  UNL     1      11.513  13.845  17.678  1.00  0.00    -0.355 OA
HETATM   23  C10 UNL     1      12.057  13.144  16.584  1.00  0.00     0.210 C 
ENDBRANCH  18  22
ENDBRANCH   3  15
TORSDOF 5
ENDMDL
MODEL 5
REMARK VINA RESULT: -7.171122552      0.967      1.737
REMARK  5 active torsions:
REMARK  status: ('A' for Active; 'I' for Inactive)
REMARK    1  A    between atoms: N1_2  and  C2_5 
REMARK    2  A    between atoms: C2_5  and  C4_7 
REMARK    3  A    between atoms: C4_7  and  N3_11 
REMARK       I    between atoms: N3_11  and  C5_13 
REMARK    4  A    between atoms: C5_13  and  C6_15 
REMARK    5  A    between atoms: C9_18  and  O2_19 
ROOT
HETATM    1  N3  UNL     1      11.583  19.855  19.278  1.00  0.00    -0.311 N 
ATOM      2  H3  UNL     1      12.067  19.248  19.938  1.00  0.00     0.170 HD
HETATM    3  C5  UNL     1      11.034  19.215  18.171  1.00  0.00     0.257 C 
HETATM    4  O1  UNL     1      10.401  19.758  17.251  1.00  0.00    -0.267 OA
ENDROOT
BRANCH   1   5
HETATM    5  C4  UNL     1      11.564  21.204  19.613  1.00  0.00     0.108 C 
HETATM    6  N2  UNL     1      12.239  21.547  20.719  1.00  0.00    -0.387 N 
ATOM      7  H22 UNL     1      12.226  22.536  20.965  1.00  0.00     0.157 HD
ATOM      8  H21 UNL     1      12.717  20.809  21.236  1.00  0.00     0.157 HD
BRANCH   5   9
HETATM    9  C2  UNL     1      10.880  22.261  18.871  1.00  0.00     0.247 C 
HETATM   10  C3  UNL     1      11.732  23.410  18.438  1.00  0.00     0.048 C 
BRANCH   9  11
HETATM   11  N1  UNL     1       9.717  22.710  19.601  1.00  0.00    -0.068 N 
HETATM   12  C1  UNL     1       8.510  22.347  18.890  1.00  0.00     0.267 C 
ATOM     13  H12 UNL     1       9.754  23.710  19.801  1.00  0.00     0.277 HD
ATOM     14  H11 UNL     1       9.711  22.364  20.560  1.00  0.00     0.277 HD
ENDBRANCH   9  11
ENDBRANCH   5   9
ENDBRANCH   1   5
BRANCH   3  15
HETATM   15  C6  UNL     1      11.188  17.745  18.027  1.00  0.00     0.033 A 
HETATM   16  C7  UNL     1      10.215  17.052  17.356  1.00  0.00     0.020 A 
HETATM   17  C8  UNL     1      10.409  15.670  17.238  1.00  0.00     0.038 A 
HETATM   18  C9  UNL     1      11.516  15.043  17.765  1.00  0.00     0.074 A 
HETATM   19  C11 UNL     1      12.484  15.762  18.436  1.00  0.00    -0.028 A 
HETATM   20  C12 UNL     1      13.691  15.164  19.031  1.00  0.00     0.051 C 
HETATM   21  C13 UNL     1      12.311  17.122  18.563  1.00  0.00     0.026 A 
BRANCH  18  22
HETATM   22  O2  UNL     1      11.710  13.686  17.649  1.00  0.00    -0.355 OA
HETATM   23  C10 UNL     1      10.712  12.757  17.293  1.00  0.00     0.210 C 
ENDBRANCH  18  22
ENDBRANCH   3  15
TORSDOF 5
ENDMDL
