MODEL 1
REMARK VINA RESULT: -6.518006072      0.000      0.000
REMARK  8 active torsions:
REMARK  status: ('A' for Active; 'I' for Inactive)
REMARK    1  A    between atoms: C2_2  and  N1_5 
REMARK    2  A    between atoms: N1_5  and  C5_7 
REMARK    3  A    between atoms: C5_7  and  C6_8 
REMARK    4  A    between atoms: C6_8  and  O1_9 
REMARK    5  A    between atoms: C6_8  and  C7_11 
REMARK    6  A    between atoms: C7_11  and  O2_12 
REMARK    7  A    between atoms: C7_11  and  C8_14 
REMARK    8  A    between atoms: C8_14  and  C9_15 
ROOT
HETATM    1  C6  UNL     1      11.957  18.470  18.550  1.00  0.00     0.164 C 
ENDROOT
BRANCH   1   2
HETATM    2  C5  UNL     1      11.541  19.481  19.586  1.00  0.00     0.149 C 
BRANCH   2   3
HETATM    3  N1  UNL     1      11.961  20.787  19.226  1.00  0.00    -0.411 N 
ATOM      4  H1  UNL     1      12.892  20.968  18.850  1.00  0.00     0.154 HD
BRANCH   3   5
HETATM    5  C2  UNL     1      11.015  21.831  19.417  1.00  0.00     0.014 C 
HETATM    6  C1  UNL     1       9.608  21.351  19.173  1.00  0.00     0.037 C 
HETATM    7  C3  UNL     1      11.264  23.065  18.580  1.00  0.00     0.037 C 
HETATM    8  C4  UNL     1      11.103  22.289  20.871  1.00  0.00     0.037 C 
ENDBRANCH   3   5
ENDBRANCH   2   3
ENDBRANCH   1   2
BRANCH   1   9
HETATM    9  O1  UNL     1      12.167  17.204  19.140  1.00  0.00    -0.391 OA
ATOM     10  H1  UNL     1      12.389  16.557  18.481  1.00  0.00     0.210 HD
ENDBRANCH   1   9
BRANCH   1  11
HETATM   11  C7  UNL     1      10.924  18.258  17.471  1.00  0.00     0.152 C 
BRANCH  11  12
HETATM   12  O2  UNL     1      10.339  17.002  17.762  1.00  0.00    -0.393 OA
ATOM     13  H2  UNL     1      10.149  16.615  16.915  1.00  0.00     0.210 HD
ENDBRANCH  11  12
BRANCH  11  14
HETATM   14  C8  UNL     1      11.571  18.092  16.103  1.00  0.00     0.073 C 
BRANCH  14  15
HETATM   15  C9  UNL     1      11.245  19.290  15.279  1.00  0.00    -0.056 A 
HETATM   16  C10 UNL     1      10.998  20.516  15.856  1.00  0.00     0.007 A 
HETATM   17  C11 UNL     1      10.694  21.611  15.079  1.00  0.00     0.001 A 
HETATM   18  C12 UNL     1      10.629  21.516  13.709  1.00  0.00     0.000 A 
HETATM   19  C13 UNL     1      10.876  20.286  13.132  1.00  0.00     0.001 A 
HETATM   20  C14 UNL     1      11.179  19.194  13.908  1.00  0.00     0.007 A 
ENDBRANCH  14  15
ENDBRANCH  11  14
ENDBRANCH   1  11
TORSDOF 8
ENDMDL
MODEL 2
REMARK VINA RESULT: -6.508858329      0.090      1.149
REMARK  8 active torsions:
REMARK  status: ('A' for Active; 'I' for Inactive)
REMARK    1  A    between atoms: C2_2  and  N1_5 
REMARK    2  A    between atoms: N1_5  and  C5_7 
REMARK    3  A    between atoms: C5_7  and  C6_8 
REMARK    4  A    between atoms: C6_8  and  O1_9 
REMARK    5  A    between atoms: C6_8  and  C7_11 
REMARK    6  A    between atoms: C7_11  and  O2_12 
REMARK    7  A    between atoms: C7_11  and  C8_14 
REMARK    8  A    between atoms: C8_14  and  C9_15 
ROOT
HETATM    1  C6  UNL     1      11.968  18.382  18.545  1.00  0.00     0.164 C 
ENDROOT
BRANCH   1   2
HETATM    2  C5  UNL     1      11.542  19.395  19.574  1.00  0.00     0.149 C 
BRANCH   2   3
HETATM    3  N1  UNL     1      11.967  20.700  19.214  1.00  0.00    -0.411 N 
ATOM      4  H1  UNL     1      12.886  20.874  18.809  1.00  0.00     0.154 HD
BRANCH   3   5
HETATM    5  C2  UNL     1      11.041  21.753  19.450  1.00  0.00     0.014 C 
HETATM    6  C1  UNL     1       9.619  21.290  19.262  1.00  0.00     0.037 C 
HETATM    7  C3  UNL     1      11.269  22.989  18.610  1.00  0.00     0.037 C 
HETATM    8  C4  UNL     1      11.194  22.201  20.902  1.00  0.00     0.037 C 
ENDBRANCH   3   5
ENDBRANCH   2   3
ENDBRANCH   1   2
BRANCH   1   9
HETATM    9  O1  UNL     1      12.176  17.118  19.140  1.00  0.00    -0.391 OA
ATOM     10  H1  UNL     1      13.040  16.784  18.932  1.00  0.00     0.210 HD
ENDBRANCH   1   9
BRANCH   1  11
HETATM   11  C7  UNL     1      10.944  18.164  17.459  1.00  0.00     0.152 C 
BRANCH  11  12
HETATM   12  O2  UNL     1      10.381  16.893  17.731  1.00  0.00    -0.393 OA
ATOM     13  H2  UNL     1       9.469  17.064  17.935  1.00  0.00     0.210 HD
ENDBRANCH  11  12
BRANCH  11  14
HETATM   14  C8  UNL     1      11.599  18.027  16.092  1.00  0.00     0.073 C 
BRANCH  14  15
HETATM   15  C9  UNL     1      11.256  19.230  15.282  1.00  0.00    -0.056 A 
HETATM   16  C10 UNL     1      11.192  19.179  13.907  1.00  0.00     0.007 A 
HETATM   17  C11 UNL     1      10.878  20.302  13.175  1.00  0.00     0.001 A 
HETATM   18  C12 UNL     1      10.618  21.503  13.790  1.00  0.00     0.000 A 
HETATM   19  C13 UNL     1      10.683  21.553  15.168  1.00  0.00     0.001 A 
HETATM   20  C14 UNL     1      10.997  20.432  15.899  1.00  0.00     0.007 A 
ENDBRANCH  14  15
ENDBRANCH  11  14
ENDBRANCH   1  11
TORSDOF 8
ENDMDL
MODEL 3
REMARK VINA RESULT: -6.443748377      2.562      5.604
REMARK  8 active torsions:
REMARK  status: ('A' for Active; 'I' for Inactive)
REMARK    1  A    between atoms: C2_2  and  N1_5 
REMARK    2  A    between atoms: N1_5  and  C5_7 
REMARK    3  A    between atoms: C5_7  and  C6_8 
REMARK    4  A    between atoms: C6_8  and  O1_9 
REMARK    5  A    between atoms: C6_8  and  C7_11 
REMARK    6  A    between atoms: C7_11  and  O2_12 
REMARK    7  A    between atoms: C7_11  and  C8_14 
REMARK    8  A    between atoms: C8_14  and  C9_15 
ROOT
HETATM    1  C6  UNL     1      11.566  18.180  15.793  1.00  0.00     0.164 C 
ENDROOT
BRANCH   1   2
HETATM    2  C5  UNL     1      12.355  16.901  15.884  1.00  0.00     0.149 C 
BRANCH   2   3
HETATM    3  N1  UNL     1      11.545  15.830  16.344  1.00  0.00    -0.411 N 
ATOM      4  H1  UNL     1      10.592  15.696  16.009  1.00  0.00     0.154 HD
BRANCH   3   5
HETATM    5  C2  UNL     1      12.136  14.955  17.296  1.00  0.00     0.014 C 
HETATM    6  C1  UNL     1      11.210  13.820  17.651  1.00  0.00     0.037 C 
HETATM    7  C3  UNL     1      12.594  15.630  18.568  1.00  0.00     0.037 C 
HETATM    8  C4  UNL     1      13.390  14.350  16.668  1.00  0.00     0.037 C 
ENDBRANCH   3   5
ENDBRANCH   2   3
ENDBRANCH   1   2
BRANCH   1   9
HETATM    9  O1  UNL     1      10.265  17.933  15.301  1.00  0.00    -0.391 OA
ATOM     10  H1  UNL     1       9.713  18.699  15.406  1.00  0.00     0.210 HD
ENDBRANCH   1   9
BRANCH   1  11
HETATM   11  C7  UNL     1      11.382  18.867  17.123  1.00  0.00     0.152 C 
BRANCH  11  12
HETATM   12  O2  UNL     1      10.245  18.253  17.701  1.00  0.00    -0.393 OA
ATOM     13  H2  UNL     1       9.830  18.935  18.216  1.00  0.00     0.210 HD
ENDBRANCH  11  12
BRANCH  11  14
HETATM   14  C8  UNL     1      11.002  20.330  16.948  1.00  0.00     0.073 C 
BRANCH  14  15
HETATM   15  C9  UNL     1      11.101  21.005  18.273  1.00  0.00    -0.056 A 
HETATM   16  C10 UNL     1      11.988  20.575  19.236  1.00  0.00     0.007 A 
HETATM   17  C11 UNL     1      12.062  21.207  20.457  1.00  0.00     0.001 A 
HETATM   18  C12 UNL     1      11.260  22.284  20.751  1.00  0.00     0.000 A 
HETATM   19  C13 UNL     1      10.372  22.714  19.785  1.00  0.00     0.001 A 
HETATM   20  C14 UNL     1      10.298  22.082  18.567  1.00  0.00     0.007 A 
ENDBRANCH  14  15
ENDBRANCH  11  14
ENDBRANCH   1  11
TORSDOF 8
ENDMDL
MODEL 4
REMARK VINA RESULT: -6.366277690      2.348      5.364
REMARK  8 active torsions:
REMARK  status: ('A' for Active; 'I' for Inactive)
REMARK    1  A    between atoms: C2_2  and  N1_5 
REMARK    2  A    between atoms: N1_5  and  C5_7 
REMARK    3  A    between atoms: C5_7  and  C6_8 
REMARK    4  A    between atoms: C6_8  and  O1_9 
REMARK    5  A    between atoms: C6_8  and  C7_11 
REMARK    6  A    between atoms: C7_11  and  O2_12 
REMARK    7  A    between atoms: C7_11  and  C8_14 
REMARK    8  A    between atoms: C8_14  and  C9_15 
ROOT
HETATM    1  C6  UNL     1      11.563  18.214  15.764  1.00  0.00     0.164 C 
ENDROOT
BRANCH   1   2
HETATM    2  C5  UNL     1      12.059  16.797  15.876  1.00  0.00     0.149 C 
BRANCH   2   3
HETATM    3  N1  UNL     1      13.145  16.705  16.785  1.00  0.00    -0.411 N 
ATOM      4  H1  UNL     1      13.951  17.326  16.724  1.00  0.00     0.154 HD
BRANCH   3   5
HETATM    5  C2  UNL     1      13.047  15.699  17.785  1.00  0.00     0.014 C 
HETATM    6  C1  UNL     1      14.243  14.782  17.765  1.00  0.00     0.037 C 
HETATM    7  C3  UNL     1      11.788  14.864  17.713  1.00  0.00     0.037 C 
HETATM    8  C4  UNL     1      13.014  16.388  19.147  1.00  0.00     0.037 C 
ENDBRANCH   3   5
ENDBRANCH   2   3
ENDBRANCH   1   2
BRANCH   1   9
HETATM    9  O1  UNL     1      10.301  18.256  15.130  1.00  0.00    -0.391 OA
ATOM     10  H1  UNL     1      10.244  17.597  14.448  1.00  0.00     0.210 HD
ENDBRANCH   1   9
BRANCH   1  11
HETATM   11  C7  UNL     1      11.377  18.891  17.099  1.00  0.00     0.152 C 
BRANCH  11  12
HETATM   12  O2  UNL     1      10.272  18.236  17.695  1.00  0.00    -0.393 OA
ATOM     13  H2  UNL     1      10.625  17.805  18.464  1.00  0.00     0.210 HD
ENDBRANCH  11  12
BRANCH  11  14
HETATM   14  C8  UNL     1      10.942  20.341  16.935  1.00  0.00     0.073 C 
BRANCH  14  15
HETATM   15  C9  UNL     1      11.066  21.022  18.254  1.00  0.00    -0.056 A 
HETATM   16  C10 UNL     1      11.968  20.596  19.204  1.00  0.00     0.007 A 
HETATM   17  C11 UNL     1      12.065  21.235  20.420  1.00  0.00     0.001 A 
HETATM   18  C12 UNL     1      11.269  22.314  20.722  1.00  0.00     0.000 A 
HETATM   19  C13 UNL     1      10.365  22.740  19.770  1.00  0.00     0.001 A 
HETATM   20  C14 UNL     1      10.268  22.102  18.557  1.00  0.00     0.007 A 
ENDBRANCH  14  15
ENDBRANCH  11  14
ENDBRANCH   1  11
TORSDOF 8
ENDMDL
MODEL 5
REMARK VINA RESULT: -6.339874874      2.358      5.354
REMARK  8 active torsions:
REMARK  status: ('A' for Active; 'I' for Inactive)
REMARK    1  A    between atoms: C2_2  and  N1_5 
REMARK    2  A    between atoms: N1_5  and  C5_7 
REMARK    3  A    between atoms: C5_7  and  C6_8 
REMARK    4  A    between atoms: C6_8  and  O1_9 
REMARK    5  A    between atoms: C6_8  and  C7_11 
REMARK    6  A    between atoms: C7_11  and  O2_12 
REMARK    7  A    between atoms: C7_11  and  C8_14 
REMARK    8  A    between atoms: C8_14  and  C9_15 
ROOT
HETATM    1  C6  UNL     1      11.586  18.211  15.781  1.00  0.00     0.164 C 
ENDROOT
BRANCH   1   2
HETATM    2  C5  UNL     1      12.075  16.792  15.897  1.00  0.00     0.149 C 
BRANCH   2   3
HETATM    3  N1  UNL     1      13.165  16.698  16.801  1.00  0.00    -0.411 N 
ATOM      4  H1  UNL     1      13.967  17.324  16.742  1.00  0.00     0.154 HD
BRANCH   3   5
HETATM    5  C2  UNL     1      13.078  15.683  17.793  1.00  0.00     0.014 C 
HETATM    6  C1  UNL     1      14.283  14.779  17.765  1.00  0.00     0.037 C 
HETATM    7  C3  UNL     1      11.828  14.836  17.715  1.00  0.00     0.037 C 
HETATM    8  C4  UNL     1      13.038  16.361  19.161  1.00  0.00     0.037 C 
ENDBRANCH   3   5
ENDBRANCH   2   3
ENDBRANCH   1   2
BRANCH   1   9
HETATM    9  O1  UNL     1      10.335  18.259  15.126  1.00  0.00    -0.391 OA
ATOM     10  H1  UNL     1       9.824  19.001  15.427  1.00  0.00     0.210 HD
ENDBRANCH   1   9
BRANCH   1  11
HETATM   11  C7  UNL     1      11.380  18.885  17.114  1.00  0.00     0.152 C 
BRANCH  11  12
HETATM   12  O2  UNL     1      10.265  18.231  17.691  1.00  0.00    -0.393 OA
ATOM     13  H2  UNL     1       9.858  18.881  18.251  1.00  0.00     0.210 HD
ENDBRANCH  11  12
BRANCH  11  14
HETATM   14  C8  UNL     1      10.950  20.336  16.947  1.00  0.00     0.073 C 
BRANCH  14  15
HETATM   15  C9  UNL     1      11.055  21.014  18.269  1.00  0.00    -0.056 A 
HETATM   16  C10 UNL     1      10.261  22.093  18.591  1.00  0.00     0.007 A 
HETATM   17  C11 UNL     1      10.376  22.711  19.817  1.00  0.00     0.001 A 
HETATM   18  C12 UNL     1      11.281  22.272  20.753  1.00  0.00     0.000 A 
HETATM   19  C13 UNL     1      12.077  21.192  20.429  1.00  0.00     0.001 A 
HETATM   20  C14 UNL     1      11.963  20.576  19.206  1.00  0.00     0.007 A 
ENDBRANCH  14  15
ENDBRANCH  11  14
ENDBRANCH   1  11
TORSDOF 8
ENDMDL
