MODEL 1
REMARK VINA RESULT: -6.218391624      0.000      0.000
REMARK  7 active torsions:
REMARK  status: ('A' for Active; 'I' for Inactive)
REMARK    1  A    between atoms: C5_5  and  C6_6 
REMARK    2  A    between atoms: C6_6  and  C7_7 
REMARK    3  A    between atoms: C7_7  and  N1_8 
REMARK    4  A    between atoms: C7_7  and  C8_12 
REMARK    5  A    between atoms: C8_12  and  N2_13 
REMARK    6  A    between atoms: C8_12  and  C9_17 
REMARK    7  A    between atoms: C9_17  and  C10_18 
ROOT
HETATM    1  C7  UNL     1       9.399 -14.889  24.405  1.00  0.00     0.218 C 
ENDROOT
BRANCH   1   2
HETATM    2  C6  UNL     1      10.510 -15.127  23.411  1.00  0.00     0.073 C 
BRANCH   2   3
HETATM    3  C5  UNL     1      11.311 -13.949  23.080  1.00  0.00    -0.056 A 
HETATM    4  C4  UNL     1      10.804 -12.651  23.205  1.00  0.00     0.007 A 
HETATM    5  C3  UNL     1      11.564 -11.543  22.898  1.00  0.00     0.007 A 
HETATM    6  C2  UNL     1      12.858 -11.676  22.456  1.00  0.00    -0.062 A 
HETATM    7  C1  UNL     1      13.668 -10.452  22.128  1.00  0.00     0.048 C 
HETATM    8  C14 UNL     1      13.374 -12.939  22.327  1.00  0.00     0.007 A 
HETATM    9  C13 UNL     1      12.605 -14.063  22.636  1.00  0.00     0.007 A 
ENDBRANCH   2   3
ENDBRANCH   1   2
BRANCH   1  10
HETATM   10  N1  UNL     1      10.085 -14.696  25.704  1.00  0.00    -0.073 N 
ATOM     11  H13 UNL     1      10.004 -15.491  26.337  1.00  0.00     0.274 HD
ATOM     12  H12 UNL     1      11.103 -14.702  25.640  1.00  0.00     0.274 HD
ATOM     13  H11 UNL     1       9.700 -13.828  26.078  1.00  0.00     0.274 HD
ENDBRANCH   1  10
BRANCH   1  14
HETATM   14  C8  UNL     1       8.467 -16.034  24.556  1.00  0.00     0.219 C 
BRANCH  14  15
HETATM   15  N2  UNL     1       8.736 -16.847  25.747  1.00  0.00    -0.073 N 
ATOM     16  H23 UNL     1       9.652 -17.290  25.684  1.00  0.00     0.274 HD
ATOM     17  H22 UNL     1       8.893 -16.254  26.563  1.00  0.00     0.274 HD
ATOM     18  H21 UNL     1       8.011 -17.539  25.935  1.00  0.00     0.274 HD
ENDBRANCH  14  15
BRANCH  14  19
HETATM   19  C9  UNL     1       7.009 -15.693  24.452  1.00  0.00     0.093 C 
BRANCH  19  20
HETATM   20  C10 UNL     1       6.287 -16.308  23.334  1.00  0.00     0.029 A 
HETATM   21  C11 UNL     1       4.995 -16.833  23.445  1.00  0.00     0.045 A 
HETATM   22  C12 UNL     1       4.706 -17.324  22.187  1.00  0.00     0.109 A 
HETATM   23  N3  UNL     1       5.740 -17.118  21.360  1.00  0.00    -0.312 N 
HETATM   24  N4  UNL     1       6.671 -16.514  22.056  1.00  0.00    -0.305 N 
ATOM     25  H3  UNL     1       5.791 -17.382  20.376  1.00  0.00     0.186 HD
ATOM     26  H4  UNL     1       7.577 -16.233  21.679  1.00  0.00     0.186 HD
ENDBRANCH  19  20
ENDBRANCH  14  19
ENDBRANCH   1  14
TORSDOF 7
ENDMDL
MODEL 2
REMARK VINA RESULT: -6.209266475      0.032      1.111
REMARK  7 active torsions:
REMARK  status: ('A' for Active; 'I' for Inactive)
REMARK    1  A    between atoms: C5_5  and  C6_6 
REMARK    2  A    between atoms: C6_6  and  C7_7 
REMARK    3  A    between atoms: C7_7  and  N1_8 
REMARK    4  A    between atoms: C7_7  and  C8_12 
REMARK    5  A    between atoms: C8_12  and  N2_13 
REMARK    6  A    between atoms: C8_12  and  C9_17 
REMARK    7  A    between atoms: C9_17  and  C10_18 
ROOT
HETATM    1  C7  UNL     1       9.389 -14.883  24.394  1.00  0.00     0.218 C 
ENDROOT
BRANCH   1   2
HETATM    2  C6  UNL     1      10.498 -15.102  23.393  1.00  0.00     0.073 C 
BRANCH   2   3
HETATM    3  C5  UNL     1      11.294 -13.916  23.078  1.00  0.00    -0.056 A 
HETATM    4  C4  UNL     1      12.611 -14.010  22.616  1.00  0.00     0.007 A 
HETATM    5  C3  UNL     1      13.355 -12.889  22.313  1.00  0.00     0.007 A 
HETATM    6  C2  UNL     1      12.824 -11.631  22.456  1.00  0.00    -0.062 A 
HETATM    7  C1  UNL     1      13.655 -10.423  22.119  1.00  0.00     0.048 C 
HETATM    8  C14 UNL     1      11.534 -11.516  22.907  1.00  0.00     0.007 A 
HETATM    9  C13 UNL     1      10.780 -12.650  23.215  1.00  0.00     0.007 A 
ENDBRANCH   2   3
ENDBRANCH   1   2
BRANCH   1  10
HETATM   10  N1  UNL     1      10.080 -14.697  25.693  1.00  0.00    -0.073 N 
ATOM     11  H13 UNL     1      11.082 -14.881  25.658  1.00  0.00     0.274 HD
ATOM     12  H12 UNL     1      10.152 -13.724  25.988  1.00  0.00     0.274 HD
ATOM     13  H11 UNL     1       9.572 -15.292  26.348  1.00  0.00     0.274 HD
ENDBRANCH   1  10
BRANCH   1  14
HETATM   14  C8  UNL     1       8.468 -16.037  24.538  1.00  0.00     0.219 C 
BRANCH  14  15
HETATM   15  N2  UNL     1       8.754 -16.863  25.716  1.00  0.00    -0.073 N 
ATOM     16  H23 UNL     1       9.388 -16.381  26.352  1.00  0.00     0.274 HD
ATOM     17  H22 UNL     1       7.933 -16.931  26.319  1.00  0.00     0.274 HD
ATOM     18  H21 UNL     1       9.110 -17.790  25.483  1.00  0.00     0.274 HD
ENDBRANCH  14  15
BRANCH  14  19
HETATM   19  C9  UNL     1       7.006 -15.708  24.450  1.00  0.00     0.093 C 
BRANCH  19  20
HETATM   20  C10 UNL     1       6.281 -16.314  23.330  1.00  0.00     0.029 A 
HETATM   21  C11 UNL     1       4.984 -16.828  23.439  1.00  0.00     0.045 A 
HETATM   22  C12 UNL     1       4.692 -17.316  22.181  1.00  0.00     0.109 A 
HETATM   23  N3  UNL     1       5.728 -17.119  21.355  1.00  0.00    -0.312 N 
HETATM   24  N4  UNL     1       6.665 -16.523  22.053  1.00  0.00    -0.305 N 
ATOM     25  H3  UNL     1       5.779 -17.382  20.371  1.00  0.00     0.186 HD
ATOM     26  H4  UNL     1       7.573 -16.250  21.677  1.00  0.00     0.186 HD
ENDBRANCH  19  20
ENDBRANCH  14  19
ENDBRANCH   1  14
TORSDOF 7
ENDMDL
MODEL 3
REMARK VINA RESULT: -6.036009754      3.183      6.211
REMARK  7 active torsions:
REMARK  status: ('A' for Active; 'I' for Inactive)
REMARK    1  A    between atoms: C5_5  and  C6_6 
REMARK    2  A    between atoms: C6_6  and  C7_7 
REMARK    3  A    between atoms: C7_7  and  N1_8 
REMARK    4  A    between atoms: C7_7  and  C8_12 
REMARK    5  A    between atoms: C8_12  and  N2_13 
REMARK    6  A    between atoms: C8_12  and  C9_17 
REMARK    7  A    between atoms: C9_17  and  C10_18 
ROOT
HETATM    1  C7  UNL     1      12.743 -13.297  22.811  1.00  0.00     0.218 C 
ENDROOT
BRANCH   1   2
HETATM    2  C6  UNL     1      12.362 -13.692  24.217  1.00  0.00     0.073 C 
BRANCH   2   3
HETATM    3  C5  UNL     1      11.115 -14.448  24.335  1.00  0.00    -0.056 A 
HETATM    4  C4  UNL     1      10.421 -14.908  23.212  1.00  0.00     0.007 A 
HETATM    5  C3  UNL     1       9.249 -15.626  23.327  1.00  0.00     0.007 A 
HETATM    6  C2  UNL     1       8.719 -15.916  24.561  1.00  0.00    -0.062 A 
HETATM    7  C1  UNL     1       7.440 -16.701  24.661  1.00  0.00     0.048 C 
HETATM    8  C14 UNL     1       9.385 -15.473  25.675  1.00  0.00     0.007 A 
HETATM    9  C13 UNL     1      10.571 -14.746  25.559  1.00  0.00     0.007 A 
ENDBRANCH   2   3
ENDBRANCH   1   2
BRANCH   1  10
HETATM   10  N1  UNL     1      13.591 -14.410  22.320  1.00  0.00    -0.073 N 
ATOM     11  H13 UNL     1      13.439 -14.645  21.339  1.00  0.00     0.274 HD
ATOM     12  H12 UNL     1      14.578 -14.169  22.229  1.00  0.00     0.274 HD
ATOM     13  H11 UNL     1      13.411 -15.181  22.963  1.00  0.00     0.274 HD
ENDBRANCH   1  10
BRANCH   1  14
HETATM   14  C8  UNL     1      13.545 -12.052  22.728  1.00  0.00     0.219 C 
BRANCH  14  15
HETATM   15  N2  UNL     1      14.751 -12.193  21.904  1.00  0.00    -0.073 N 
ATOM     16  H23 UNL     1      14.516 -12.548  20.977  1.00  0.00     0.274 HD
ATOM     17  H22 UNL     1      15.122 -11.279  21.644  1.00  0.00     0.274 HD
ATOM     18  H21 UNL     1      15.472 -12.767  22.340  1.00  0.00     0.274 HD
ENDBRANCH  14  15
BRANCH  14  19
HETATM   19  C9  UNL     1      12.778 -10.817  22.357  1.00  0.00     0.093 C 
BRANCH  19  20
HETATM   20  C10 UNL     1      11.323 -10.971  22.266  1.00  0.00     0.029 A 
HETATM   21  C11 UNL     1      10.474 -10.947  23.378  1.00  0.00     0.045 A 
HETATM   22  C12 UNL     1       9.210 -11.146  22.859  1.00  0.00     0.109 A 
HETATM   23  N3  UNL     1       9.271 -11.282  21.528  1.00  0.00    -0.312 N 
HETATM   24  N4  UNL     1      10.534 -11.176  21.191  1.00  0.00    -0.305 N 
ATOM     25  H3  UNL     1       8.486 -11.439  20.897  1.00  0.00     0.186 HD
ATOM     26  H4  UNL     1      10.878 -11.240  20.233  1.00  0.00     0.186 HD
ENDBRANCH  19  20
ENDBRANCH  14  19
ENDBRANCH   1  14
TORSDOF 7
ENDMDL
MODEL 4
REMARK VINA RESULT: -6.021517640      3.186      6.193
REMARK  7 active torsions:
REMARK  status: ('A' for Active; 'I' for Inactive)
REMARK    1  A    between atoms: C5_5  and  C6_6 
REMARK    2  A    between atoms: C6_6  and  C7_7 
REMARK    3  A    between atoms: C7_7  and  N1_8 
REMARK    4  A    between atoms: C7_7  and  C8_12 
REMARK    5  A    between atoms: C8_12  and  N2_13 
REMARK    6  A    between atoms: C8_12  and  C9_17 
REMARK    7  A    between atoms: C9_17  and  C10_18 
ROOT
HETATM    1  C7  UNL     1      12.749 -13.293  22.810  1.00  0.00     0.218 C 
ENDROOT
BRANCH   1   2
HETATM    2  C6  UNL     1      12.355 -13.680  24.215  1.00  0.00     0.073 C 
BRANCH   2   3
HETATM    3  C5  UNL     1      11.116 -14.450  24.324  1.00  0.00    -0.056 A 
HETATM    4  C4  UNL     1      10.550 -14.769  25.563  1.00  0.00     0.007 A 
HETATM    5  C3  UNL     1       9.378 -15.489  25.661  1.00  0.00     0.007 A 
HETATM    6  C2  UNL     1       8.720 -15.921  24.535  1.00  0.00    -0.062 A 
HETATM    7  C1  UNL     1       7.443 -16.704  24.668  1.00  0.00     0.048 C 
HETATM    8  C14 UNL     1       9.258 -15.618  23.311  1.00  0.00     0.007 A 
HETATM    9  C13 UNL     1      10.445 -14.890  23.210  1.00  0.00     0.007 A 
ENDBRANCH   2   3
ENDBRANCH   1   2
BRANCH   1  10
HETATM   10  N1  UNL     1      13.600 -14.410  22.333  1.00  0.00    -0.073 N 
ATOM     11  H13 UNL     1      13.095 -15.116  21.800  1.00  0.00     0.274 HD
ATOM     12  H12 UNL     1      14.249 -14.147  21.592  1.00  0.00     0.274 HD
ATOM     13  H11 UNL     1      14.054 -14.770  23.172  1.00  0.00     0.274 HD
ENDBRANCH   1  10
BRANCH   1  14
HETATM   14  C8  UNL     1      13.553 -12.049  22.728  1.00  0.00     0.219 C 
BRANCH  14  15
HETATM   15  N2  UNL     1      14.760 -12.193  21.906  1.00  0.00    -0.073 N 
ATOM     16  H23 UNL     1      15.463 -12.751  22.390  1.00  0.00     0.274 HD
ATOM     17  H22 UNL     1      14.584 -12.800  21.106  1.00  0.00     0.274 HD
ATOM     18  H21 UNL     1      15.150 -11.300  21.605  1.00  0.00     0.274 HD
ENDBRANCH  14  15
BRANCH  14  19
HETATM   19  C9  UNL     1      12.787 -10.813  22.354  1.00  0.00     0.093 C 
BRANCH  19  20
HETATM   20  C10 UNL     1      11.333 -10.964  22.264  1.00  0.00     0.029 A 
HETATM   21  C11 UNL     1      10.484 -10.941  23.377  1.00  0.00     0.045 A 
HETATM   22  C12 UNL     1       9.220 -11.137  22.859  1.00  0.00     0.109 A 
HETATM   23  N3  UNL     1       9.279 -11.271  21.527  1.00  0.00    -0.312 N 
HETATM   24  N4  UNL     1      10.542 -11.167  21.189  1.00  0.00    -0.305 N 
ATOM     25  H3  UNL     1       8.493 -11.425  20.897  1.00  0.00     0.186 HD
ATOM     26  H4  UNL     1      10.885 -11.230  20.231  1.00  0.00     0.186 HD
ENDBRANCH  19  20
ENDBRANCH  14  19
ENDBRANCH   1  14
TORSDOF 7
ENDMDL
MODEL 5
REMARK VINA RESULT: -5.859370145      1.033      1.656
REMARK  7 active torsions:
REMARK  status: ('A' for Active; 'I' for Inactive)
REMARK    1  A    between atoms: C5_5  and  C6_6 
REMARK    2  A    between atoms: C6_6  and  C7_7 
REMARK    3  A    between atoms: C7_7  and  N1_8 
REMARK    4  A    between atoms: C7_7  and  C8_12 
REMARK    5  A    between atoms: C8_12  and  N2_13 
REMARK    6  A    between atoms: C8_12  and  C9_17 
REMARK    7  A    between atoms: C9_17  and  C10_18 
ROOT
HETATM    1  C7  UNL     1       8.864 -15.274  24.641  1.00  0.00     0.218 C 
ENDROOT
BRANCH   1   2
HETATM    2  C6  UNL     1      10.324 -15.260  24.256  1.00  0.00     0.073 C 
BRANCH   2   3
HETATM    3  C5  UNL     1      10.808 -13.997  23.699  1.00  0.00    -0.056 A 
HETATM    4  C4  UNL     1      12.042 -13.901  23.047  1.00  0.00     0.007 A 
HETATM    5  C3  UNL     1      12.492 -12.710  22.518  1.00  0.00     0.007 A 
HETATM    6  C2  UNL     1      11.736 -11.567  22.613  1.00  0.00    -0.062 A 
HETATM    7  C1  UNL     1      12.247 -10.279  22.027  1.00  0.00     0.048 C 
HETATM    8  C14 UNL     1      10.523 -11.640  23.248  1.00  0.00     0.007 A 
HETATM    9  C13 UNL     1      10.067 -12.845  23.785  1.00  0.00     0.007 A 
ENDBRANCH   2   3
ENDBRANCH   1   2
BRANCH   1  10
HETATM   10  N1  UNL     1       8.811 -16.051  25.903  1.00  0.00    -0.073 N 
ATOM     11  H13 UNL     1       7.926 -15.968  26.402  1.00  0.00     0.274 HD
ATOM     12  H12 UNL     1       8.773 -17.061  25.765  1.00  0.00     0.274 HD
ATOM     13  H11 UNL     1       9.620 -15.737  26.438  1.00  0.00     0.274 HD
ENDBRANCH   1  10
BRANCH   1  14
HETATM   14  C8  UNL     1       7.986 -15.955  23.658  1.00  0.00     0.219 C 
BRANCH  14  15
HETATM   15  N2  UNL     1       8.679 -16.987  22.879  1.00  0.00    -0.073 N 
ATOM     16  H23 UNL     1       8.361 -17.918  23.147  1.00  0.00     0.274 HD
ATOM     17  H22 UNL     1       8.370 -16.978  21.907  1.00  0.00     0.274 HD
ATOM     18  H21 UNL     1       9.696 -16.921  22.937  1.00  0.00     0.274 HD
ENDBRANCH  14  15
BRANCH  14  19
HETATM   19  C9  UNL     1       6.688 -16.472  24.206  1.00  0.00     0.093 C 
BRANCH  19  20
HETATM   20  C10 UNL     1       5.615 -16.671  23.227  1.00  0.00     0.029 A 
HETATM   21  C11 UNL     1       4.276 -16.872  23.580  1.00  0.00     0.045 A 
HETATM   22  C12 UNL     1       3.617 -17.035  22.378  1.00  0.00     0.109 A 
HETATM   23  N3  UNL     1       4.480 -16.941  21.358  1.00  0.00    -0.312 N 
HETATM   24  N4  UNL     1       5.664 -16.725  21.880  1.00  0.00    -0.305 N 
ATOM     25  H3  UNL     1       4.259 -17.022  20.366  1.00  0.00     0.186 HD
ATOM     26  H4  UNL     1       6.518 -16.611  21.333  1.00  0.00     0.186 HD
ENDBRANCH  19  20
ENDBRANCH  14  19
ENDBRANCH   1  14
TORSDOF 7
ENDMDL
