MODEL 1
REMARK VINA RESULT: -7.117441925      0.000      0.000
REMARK  6 active torsions:
REMARK  status: ('A' for Active; 'I' for Inactive)
REMARK    1  A    between atoms: C4_6  and  N2_7 
REMARK    2  A    between atoms: C5_12  and  N4_13 
REMARK    3  A    between atoms: N4_13  and  C6_15 
REMARK    4  A    between atoms: C6_15  and  C7_16 
REMARK    5  A    between atoms: C7_16  and  O1_17 
REMARK    6  A    between atoms: O1_17  and  C8_18 
ROOT
HETATM    1  C1  UNL     1      10.423 -14.935  26.100  1.00  0.00     0.054 C 
HETATM    2  C2  UNL     1       9.330 -15.396  25.180  1.00  0.00    -0.001 A 
HETATM    3  C3  UNL     1       8.720 -16.628  25.429  1.00  0.00     0.116 A 
HETATM    4  N1  UNL     1       7.739 -17.085  24.639  1.00  0.00    -0.202 N 
ATOM      5  H1  UNL     1       7.314 -17.988  24.847  1.00  0.00     0.183 HD
HETATM    6  C4  UNL     1       7.299 -16.386  23.577  1.00  0.00     0.677 A 
HETATM    7  N3  UNL     1       7.864 -15.220  23.327  1.00  0.00    -0.176 N 
ATOM      8  H3  UNL     1       7.533 -14.687  22.522  1.00  0.00     0.186 HD
HETATM    9  C5  UNL     1       8.886 -14.678  24.099  1.00  0.00     0.128 A 
ENDROOT
BRANCH   9  10
HETATM   10  N4  UNL     1       9.353 -13.575  23.785  1.00  0.00    -0.353 N 
ATOM     11  H4  UNL     1      10.211 -13.775  23.272  1.00  0.00     0.166 HD
BRANCH  10  12
HETATM   12  C6  UNL     1       9.246 -12.224  23.809  1.00  0.00     0.089 C 
BRANCH  12  13
HETATM   13  C7  UNL     1       9.584 -11.520  22.476  1.00  0.00     0.220 C 
BRANCH  13  14
HETATM   14  O1  UNL     1      10.860 -10.966  22.634  1.00  0.00    -0.346 OA
BRANCH  14  15
HETATM   15  C8  UNL     1      12.041 -11.589  22.283  1.00  0.00     0.069 A 
HETATM   16  C9  UNL     1      11.943 -12.730  21.505  1.00  0.00     0.037 A 
HETATM   17  C10 UNL     1      13.063 -13.433  21.095  1.00  0.00     0.003 A 
HETATM   18  C11 UNL     1      14.317 -13.000  21.460  1.00  0.00     0.000 A 
HETATM   19  C12 UNL     1      14.397 -11.861  22.235  1.00  0.00     0.003 A 
HETATM   20  C13 UNL     1      13.280 -11.161  22.644  1.00  0.00     0.037 A 
ENDBRANCH  14  15
ENDBRANCH  13  14
ENDBRANCH  12  13
ENDBRANCH  10  12
ENDBRANCH   9  10
BRANCH   6  21
HETATM   21  N2  UNL     1       6.337 -16.877  22.834  1.00  0.00    -0.234 N 
ATOM     22  H22 UNL     1       5.892 -17.772  23.036  1.00  0.00     0.174 HD
ATOM     23  H21 UNL     1       6.013 -16.353  22.022  1.00  0.00     0.174 HD
ENDBRANCH   6  21
TORSDOF 6
ENDMDL
MODEL 2
REMARK VINA RESULT: -7.066998548      0.078      1.112
REMARK  6 active torsions:
REMARK  status: ('A' for Active; 'I' for Inactive)
REMARK    1  A    between atoms: C4_6  and  N2_7 
REMARK    2  A    between atoms: C5_12  and  N4_13 
REMARK    3  A    between atoms: N4_13  and  C6_15 
REMARK    4  A    between atoms: C6_15  and  C7_16 
REMARK    5  A    between atoms: C7_16  and  O1_17 
REMARK    6  A    between atoms: O1_17  and  C8_18 
ROOT
HETATM    1  C1  UNL     1      10.415 -14.951  26.075  1.00  0.00     0.054 C 
HETATM    2  C2  UNL     1       9.314 -15.411  25.163  1.00  0.00    -0.001 A 
HETATM    3  C3  UNL     1       8.718 -16.652  25.405  1.00  0.00     0.116 A 
HETATM    4  N1  UNL     1       7.732 -17.108  24.623  1.00  0.00    -0.202 N 
ATOM      5  H1  UNL     1       7.318 -18.018  24.827  1.00  0.00     0.183 HD
HETATM    6  C4  UNL     1       7.271 -16.400  23.576  1.00  0.00     0.677 A 
HETATM    7  N3  UNL     1       7.822 -15.226  23.332  1.00  0.00    -0.176 N 
ATOM      8  H3  UNL     1       7.476 -14.687  22.538  1.00  0.00     0.186 HD
HETATM    9  C5  UNL     1       8.849 -14.684  24.097  1.00  0.00     0.128 A 
ENDROOT
BRANCH   9  10
HETATM   10  N4  UNL     1       9.301 -13.574  23.790  1.00  0.00    -0.353 N 
ATOM     11  H4  UNL     1      10.134 -13.760  23.231  1.00  0.00     0.166 HD
BRANCH  10  12
HETATM   12  C6  UNL     1       9.198 -12.223  23.855  1.00  0.00     0.089 C 
BRANCH  12  13
HETATM   13  C7  UNL     1       9.532 -11.481  22.542  1.00  0.00     0.220 C 
BRANCH  13  14
HETATM   14  O1  UNL     1      10.843 -11.008  22.678  1.00  0.00    -0.346 OA
BRANCH  14  15
HETATM   15  C8  UNL     1      11.972 -11.681  22.257  1.00  0.00     0.069 A 
HETATM   16  C9  UNL     1      13.196 -11.139  22.612  1.00  0.00     0.037 A 
HETATM   17  C10 UNL     1      14.392 -11.732  22.244  1.00  0.00     0.003 A 
HETATM   18  C11 UNL     1      14.383 -12.893  21.505  1.00  0.00     0.000 A 
HETATM   19  C12 UNL     1      13.156 -13.419  21.159  1.00  0.00     0.003 A 
HETATM   20  C13 UNL     1      11.965 -12.828  21.526  1.00  0.00     0.037 A 
ENDBRANCH  14  15
ENDBRANCH  13  14
ENDBRANCH  12  13
ENDBRANCH  10  12
ENDBRANCH   9  10
BRANCH   6  21
HETATM   21  N2  UNL     1       6.304 -16.891  22.840  1.00  0.00    -0.234 N 
ATOM     22  H22 UNL     1       6.290 -17.863  22.530  1.00  0.00     0.174 HD
ATOM     23  H21 UNL     1       5.530 -16.289  22.560  1.00  0.00     0.174 HD
ENDBRANCH   6  21
TORSDOF 6
ENDMDL
MODEL 3
REMARK VINA RESULT: -6.945619332      3.153      6.050
REMARK  6 active torsions:
REMARK  status: ('A' for Active; 'I' for Inactive)
REMARK    1  A    between atoms: C4_6  and  N2_7 
REMARK    2  A    between atoms: C5_12  and  N4_13 
REMARK    3  A    between atoms: N4_13  and  C6_15 
REMARK    4  A    between atoms: C6_15  and  C7_16 
REMARK    5  A    between atoms: C7_16  and  O1_17 
REMARK    6  A    between atoms: O1_17  and  C8_18 
ROOT
HETATM    1  C1  UNL     1      12.013 -13.473  20.845  1.00  0.00     0.054 C 
HETATM    2  C2  UNL     1      12.753 -12.896  22.018  1.00  0.00    -0.001 A 
HETATM    3  C3  UNL     1      13.892 -13.558  22.484  1.00  0.00     0.116 A 
HETATM    4  N1  UNL     1      14.588 -13.084  23.525  1.00  0.00    -0.202 N 
ATOM      5  H1  UNL     1      15.415 -13.591  23.841  1.00  0.00     0.183 HD
HETATM    6  C4  UNL     1      14.227 -11.959  24.168  1.00  0.00     0.677 A 
HETATM    7  N3  UNL     1      13.154 -11.320  23.742  1.00  0.00    -0.176 N 
ATOM      8  H3  UNL     1      12.877 -10.466  24.227  1.00  0.00     0.186 HD
HETATM    9  C5  UNL     1      12.380 -11.747  22.669  1.00  0.00     0.128 A 
ENDROOT
BRANCH   9  10
HETATM   10  N4  UNL     1      11.390 -11.079  22.342  1.00  0.00    -0.353 N 
ATOM     11  H4  UNL     1      11.759 -10.232  21.911  1.00  0.00     0.166 HD
BRANCH  10  12
HETATM   12  C6  UNL     1      10.040 -10.957  22.294  1.00  0.00     0.089 C 
BRANCH  12  13
HETATM   13  C7  UNL     1       9.288 -11.580  23.491  1.00  0.00     0.220 C 
BRANCH  13  14
HETATM   14  O1  UNL     1       8.966 -12.890  23.118  1.00  0.00    -0.346 OA
BRANCH  14  15
HETATM   15  C8  UNL     1       9.051 -13.991  23.947  1.00  0.00     0.069 A 
HETATM   16  C9  UNL     1      10.065 -13.990  24.890  1.00  0.00     0.037 A 
HETATM   17  C10 UNL     1      10.242 -15.043  25.773  1.00  0.00     0.003 A 
HETATM   18  C11 UNL     1       9.396 -16.127  25.726  1.00  0.00     0.000 A 
HETATM   19  C12 UNL     1       8.391 -16.111  24.781  1.00  0.00     0.003 A 
HETATM   20  C13 UNL     1       8.215 -15.062  23.902  1.00  0.00     0.037 A 
ENDBRANCH  14  15
ENDBRANCH  13  14
ENDBRANCH  12  13
ENDBRANCH  10  12
ENDBRANCH   9  10
BRANCH   6  21
HETATM   21  N2  UNL     1      14.942 -11.537  25.182  1.00  0.00    -0.234 N 
ATOM     22  H22 UNL     1      14.974 -12.032  26.074  1.00  0.00     0.174 HD
ATOM     23  H21 UNL     1      15.491 -10.683  25.089  1.00  0.00     0.174 HD
ENDBRANCH   6  21
TORSDOF 6
ENDMDL
MODEL 4
REMARK VINA RESULT: -6.495373367      3.924      6.348
REMARK  6 active torsions:
REMARK  status: ('A' for Active; 'I' for Inactive)
REMARK    1  A    between atoms: C4_6  and  N2_7 
REMARK    2  A    between atoms: C5_12  and  N4_13 
REMARK    3  A    between atoms: N4_13  and  C6_15 
REMARK    4  A    between atoms: C6_15  and  C7_16 
REMARK    5  A    between atoms: C7_16  and  O1_17 
REMARK    6  A    between atoms: O1_17  and  C8_18 
ROOT
HETATM    1  C1  UNL     1       2.775 -15.886  23.753  1.00  0.00     0.054 C 
HETATM    2  C2  UNL     1       2.670 -17.148  22.946  1.00  0.00    -0.001 A 
HETATM    3  C3  UNL     1       1.599 -18.011  23.188  1.00  0.00     0.116 A 
HETATM    4  N1  UNL     1       1.459 -19.149  22.495  1.00  0.00    -0.202 N 
ATOM      5  H1  UNL     1       0.665 -19.757  22.696  1.00  0.00     0.183 HD
HETATM    6  C4  UNL     1       2.335 -19.512  21.542  1.00  0.00     0.677 A 
HETATM    7  N3  UNL     1       3.354 -18.709  21.300  1.00  0.00    -0.176 N 
ATOM      8  H3  UNL     1       4.021 -18.981  20.577  1.00  0.00     0.186 HD
HETATM    9  C5  UNL     1       3.568 -17.512  21.975  1.00  0.00     0.128 A 
ENDROOT
BRANCH   9  10
HETATM   10  N4  UNL     1       4.553 -16.825  21.676  1.00  0.00    -0.353 N 
ATOM     11  H4  UNL     1       4.213 -16.132  21.009  1.00  0.00     0.166 HD
BRANCH  10  12
HETATM   12  C6  UNL     1       5.876 -16.570  21.828  1.00  0.00     0.089 C 
BRANCH  12  13
HETATM   13  C7  UNL     1       6.386 -16.626  23.285  1.00  0.00     0.220 C 
BRANCH  13  14
HETATM   14  O1  UNL     1       7.767 -16.846  23.213  1.00  0.00    -0.346 OA
BRANCH  14  15
HETATM   15  C8  UNL     1       8.722 -16.086  23.859  1.00  0.00     0.069 A 
HETATM   16  C9  UNL     1       8.744 -16.149  25.242  1.00  0.00     0.037 A 
HETATM   17  C10 UNL     1       9.660 -15.430  25.992  1.00  0.00     0.003 A 
HETATM   18  C11 UNL     1      10.581 -14.626  25.361  1.00  0.00     0.000 A 
HETATM   19  C12 UNL     1      10.545 -14.574  23.983  1.00  0.00     0.003 A 
HETATM   20  C13 UNL     1       9.632 -15.291  23.237  1.00  0.00     0.037 A 
ENDBRANCH  14  15
ENDBRANCH  13  14
ENDBRANCH  12  13
ENDBRANCH  10  12
ENDBRANCH   9  10
BRANCH   6  21
HETATM   21  N2  UNL     1       2.154 -20.636  20.892  1.00  0.00    -0.234 N 
ATOM     22  H22 UNL     1       1.317 -21.207  21.009  1.00  0.00     0.174 HD
ATOM     23  H21 UNL     1       2.869 -20.962  20.242  1.00  0.00     0.174 HD
ENDBRANCH   6  21
TORSDOF 6
ENDMDL
MODEL 5
REMARK VINA RESULT: -6.210440703      2.897      7.065
REMARK  6 active torsions:
REMARK  status: ('A' for Active; 'I' for Inactive)
REMARK    1  A    between atoms: C4_6  and  N2_7 
REMARK    2  A    between atoms: C5_12  and  N4_13 
REMARK    3  A    between atoms: N4_13  and  C6_15 
REMARK    4  A    between atoms: C6_15  and  C7_16 
REMARK    5  A    between atoms: C7_16  and  O1_17 
REMARK    6  A    between atoms: O1_17  and  C8_18 
ROOT
HETATM    1  C1  UNL     1      12.230 -13.548  20.717  1.00  0.00     0.054 C 
HETATM    2  C2  UNL     1      12.960 -13.074  21.941  1.00  0.00    -0.001 A 
HETATM    3  C3  UNL     1      14.146 -12.354  21.778  1.00  0.00     0.116 A 
HETATM    4  N1  UNL     1      14.834 -11.908  22.837  1.00  0.00    -0.202 N 
ATOM      5  H1  UNL     1      15.696 -11.385  22.684  1.00  0.00     0.183 HD
HETATM    6  C4  UNL     1      14.419 -12.129  24.097  1.00  0.00     0.677 A 
HETATM    7  N3  UNL     1      13.300 -12.808  24.271  1.00  0.00    -0.176 N 
ATOM      8  H3  UNL     1      12.983 -12.978  25.225  1.00  0.00     0.186 HD
HETATM    9  C5  UNL     1      12.531 -13.303  23.224  1.00  0.00     0.128 A 
ENDROOT
BRANCH   9  10
HETATM   10  N4  UNL     1      11.495 -13.927  23.487  1.00  0.00    -0.353 N 
ATOM     11  H4  UNL     1      11.661 -14.883  23.171  1.00  0.00     0.166 HD
BRANCH  10  12
HETATM   12  C6  UNL     1      10.241 -13.924  24.002  1.00  0.00     0.089 C 
BRANCH  12  13
HETATM   13  C7  UNL     1       9.802 -15.254  24.654  1.00  0.00     0.220 C 
BRANCH  13  14
HETATM   14  O1  UNL     1       9.245 -16.031  23.631  1.00  0.00    -0.346 OA
BRANCH  14  15
HETATM   15  C8  UNL     1       7.895 -16.264  23.462  1.00  0.00     0.069 A 
HETATM   16  C9  UNL     1       7.415 -16.267  22.164  1.00  0.00     0.037 A 
HETATM   17  C10 UNL     1       6.078 -16.491  21.879  1.00  0.00     0.003 A 
HETATM   18  C11 UNL     1       5.188 -16.720  22.904  1.00  0.00     0.000 A 
HETATM   19  C12 UNL     1       5.683 -16.714  24.191  1.00  0.00     0.003 A 
HETATM   20  C13 UNL     1       7.015 -16.490  24.474  1.00  0.00     0.037 A 
ENDBRANCH  14  15
ENDBRANCH  13  14
ENDBRANCH  12  13
ENDBRANCH  10  12
ENDBRANCH   9  10
BRANCH   6  21
HETATM   21  N2  UNL     1      15.128 -11.672  25.101  1.00  0.00    -0.234 N 
ATOM     22  H22 UNL     1      15.749 -12.267  25.650  1.00  0.00     0.174 HD
ATOM     23  H21 UNL     1      15.066 -10.685  25.351  1.00  0.00     0.174 HD
ENDBRANCH   6  21
TORSDOF 6
ENDMDL
