MODEL 1
REMARK VINA RESULT: -6.499788041      0.000      0.000
REMARK  5 active torsions:
REMARK  status: ('A' for Active; 'I' for Inactive)
REMARK    1  A    between atoms: C3_3  and  C4_4 
REMARK    2  A    between atoms: C3_3  and  N3_13 
REMARK    3  A    between atoms: C4_4  and  C5_5 
REMARK    4  A    between atoms: N3_13  and  C9_16 
REMARK    5  A    between atoms: C9_16  and  C10_17 
ROOT
HETATM    1  C1  UNL     1       9.555 -11.541  22.330  1.00  0.00     0.014 C 
HETATM    2  C2  UNL     1       9.600 -12.416  23.160  1.00  0.00    -0.084 C 
HETATM    3  C3  UNL     1       9.644 -13.492  24.154  1.00  0.00     0.269 C 
ENDROOT
BRANCH   3   4
HETATM    4  C4  UNL     1       9.694 -14.826  23.446  1.00  0.00     0.104 C 
BRANCH   4   5
HETATM    5  C5  UNL     1       8.501 -15.649  23.724  1.00  0.00     0.029 A 
HETATM    6  C6  UNL     1       8.273 -16.458  24.818  1.00  0.00     0.114 A 
HETATM    7  N1  UNL     1       7.058 -17.042  24.694  1.00  0.00    -0.354 N 
HETATM    8  C7  UNL     1       6.525 -16.610  23.542  1.00  0.00     0.077 A 
ATOM      9  H1  UNL     1       6.627 -17.691  25.353  1.00  0.00     0.166 HD
HETATM   10  C8  UNL     1       5.191 -17.004  23.013  1.00  0.00     0.089 C 
HETATM   11  N2  UNL     1       7.399 -15.771  22.962  1.00  0.00    -0.348 N 
ATOM     12  H2  UNL     1       7.249 -15.296  22.072  1.00  0.00     0.167 HD
ENDBRANCH   4   5
ENDBRANCH   3   4
BRANCH   3  13
HETATM   13  N3  UNL     1      10.770 -13.392  25.037  1.00  0.00    -0.055 N 
ATOM     14  H32 UNL     1      11.030 -12.418  25.194  1.00  0.00     0.279 HD
ATOM     15  H31 UNL     1      10.514 -13.648  25.991  1.00  0.00     0.279 HD
BRANCH  13  16
HETATM   16  C9  UNL     1      11.906 -14.166  24.578  1.00  0.00     0.290 C 
BRANCH  16  17
HETATM   17  C10 UNL     1      12.764 -13.393  23.648  1.00  0.00     0.034 A 
HETATM   18  C11 UNL     1      12.934 -13.858  22.354  1.00  0.00     0.027 A 
HETATM   19  C12 UNL     1      13.715 -13.189  21.443  1.00  0.00     0.003 A 
HETATM   20  C13 UNL     1      14.341 -12.028  21.840  1.00  0.00     0.017 A 
HETATM   21  C14 UNL     1      14.146 -11.592  23.150  1.00  0.00     0.088 A 
HETATM   22  N4  UNL     1      13.384 -12.253  24.021  1.00  0.00    -0.368 N 
ATOM     23  H4  UNL     1      13.270 -11.897  24.970  1.00  0.00     0.165 HD
ENDBRANCH  16  17
ENDBRANCH  13  16
ENDBRANCH   3  13
TORSDOF 5
ENDMDL
MODEL 2
REMARK VINA RESULT: -6.071724160      1.212      1.510
REMARK  5 active torsions:
REMARK  status: ('A' for Active; 'I' for Inactive)
REMARK    1  A    between atoms: C3_3  and  C4_4 
REMARK    2  A    between atoms: C3_3  and  N3_13 
REMARK    3  A    between atoms: C4_4  and  C5_5 
REMARK    4  A    between atoms: N3_13  and  C9_16 
REMARK    5  A    between atoms: C9_16  and  C10_17 
ROOT
HETATM    1  C1  UNL     1       9.230 -11.572  23.544  1.00  0.00     0.014 C 
HETATM    2  C2  UNL     1       9.984 -12.480  23.792  1.00  0.00    -0.084 C 
HETATM    3  C3  UNL     1      10.894 -13.583  24.115  1.00  0.00     0.269 C 
ENDROOT
BRANCH   3   4
HETATM    4  C4  UNL     1      10.322 -14.383  25.262  1.00  0.00     0.104 C 
BRANCH   4   5
HETATM    5  C5  UNL     1       9.261 -15.310  24.821  1.00  0.00     0.029 A 
HETATM    6  C6  UNL     1       8.861 -16.482  25.428  1.00  0.00     0.114 A 
HETATM    7  N1  UNL     1       7.858 -17.036  24.706  1.00  0.00    -0.354 N 
HETATM    8  C7  UNL     1       7.627 -16.229  23.661  1.00  0.00     0.077 A 
ATOM      9  H1  UNL     1       7.369 -17.906  24.917  1.00  0.00     0.166 HD
HETATM   10  C8  UNL     1       6.601 -16.461  22.607  1.00  0.00     0.089 C 
HETATM   11  N2  UNL     1       8.476 -15.191  23.734  1.00  0.00    -0.348 N 
ATOM     12  H2  UNL     1       8.518 -14.423  23.064  1.00  0.00     0.167 HD
ENDBRANCH   4   5
ENDBRANCH   3   4
BRANCH   3  13
HETATM   13  N3  UNL     1      11.125 -14.462  23.005  1.00  0.00    -0.055 N 
ATOM     14  H32 UNL     1      10.684 -15.369  23.156  1.00  0.00     0.279 HD
ATOM     15  H31 UNL     1      10.601 -14.161  22.183  1.00  0.00     0.279 HD
BRANCH  13  16
HETATM   16  C9  UNL     1      12.533 -14.612  22.700  1.00  0.00     0.290 C 
BRANCH  16  17
HETATM   17  C10 UNL     1      13.295 -13.370  22.977  1.00  0.00     0.034 A 
HETATM   18  C11 UNL     1      13.258 -12.343  22.047  1.00  0.00     0.027 A 
HETATM   19  C12 UNL     1      13.941 -11.167  22.243  1.00  0.00     0.003 A 
HETATM   20  C13 UNL     1      14.678 -11.018  23.397  1.00  0.00     0.017 A 
HETATM   21  C14 UNL     1      14.690 -12.073  24.308  1.00  0.00     0.088 A 
HETATM   22  N4  UNL     1      14.023 -13.208  24.104  1.00  0.00    -0.368 N 
ATOM     23  H4  UNL     1      14.060 -13.954  24.798  1.00  0.00     0.165 HD
ENDBRANCH  16  17
ENDBRANCH  13  16
ENDBRANCH   3  13
TORSDOF 5
ENDMDL
MODEL 3
REMARK VINA RESULT: -6.070484285      2.063      3.053
REMARK  5 active torsions:
REMARK  status: ('A' for Active; 'I' for Inactive)
REMARK    1  A    between atoms: C3_3  and  C4_4 
REMARK    2  A    between atoms: C3_3  and  N3_13 
REMARK    3  A    between atoms: C4_4  and  C5_5 
REMARK    4  A    between atoms: N3_13  and  C9_16 
REMARK    5  A    between atoms: C9_16  and  C10_17 
ROOT
HETATM    1  C1  UNL     1       7.432  -9.324  24.465  1.00  0.00     0.014 C 
HETATM    2  C2  UNL     1       8.341 -10.024  24.090  1.00  0.00    -0.084 C 
HETATM    3  C3  UNL     1       9.433 -10.893  23.642  1.00  0.00     0.269 C 
ENDROOT
BRANCH   3   4
HETATM    4  C4  UNL     1       8.866 -12.227  23.214  1.00  0.00     0.104 C 
BRANCH   4   5
HETATM    5  C5  UNL     1       9.336 -13.333  24.073  1.00  0.00     0.029 A 
HETATM    6  C6  UNL     1      10.562 -13.452  24.696  1.00  0.00     0.114 A 
HETATM    7  N1  UNL     1      10.596 -14.614  25.390  1.00  0.00    -0.354 N 
HETATM    8  C7  UNL     1       9.414 -15.220  25.210  1.00  0.00     0.077 A 
ATOM      9  H1  UNL     1      11.376 -14.965  25.946  1.00  0.00     0.166 HD
HETATM   10  C8  UNL     1       9.021 -16.530  25.798  1.00  0.00     0.089 C 
HETATM   11  N2  UNL     1       8.659 -14.444  24.415  1.00  0.00    -0.348 N 
ATOM     12  H2  UNL     1       7.709 -14.664  24.115  1.00  0.00     0.167 HD
ENDBRANCH   4   5
ENDBRANCH   3   4
BRANCH   3  13
HETATM   13  N3  UNL     1      10.181 -10.335  22.553  1.00  0.00    -0.055 N 
ATOM     14  H32 UNL     1       9.677  -9.562  22.118  1.00  0.00     0.279 HD
ATOM     15  H31 UNL     1      10.998  -9.827  22.891  1.00  0.00     0.279 HD
BRANCH  13  16
HETATM   16  C9  UNL     1      10.556 -11.331  21.570  1.00  0.00     0.290 C 
BRANCH  16  17
HETATM   17  C10 UNL     1      11.975 -11.738  21.707  1.00  0.00     0.034 A 
HETATM   18  C11 UNL     1      12.353 -12.999  21.271  1.00  0.00     0.027 A 
HETATM   19  C12 UNL     1      13.651 -13.438  21.368  1.00  0.00     0.003 A 
HETATM   20  C13 UNL     1      14.591 -12.594  21.915  1.00  0.00     0.017 A 
HETATM   21  C14 UNL     1      14.173 -11.334  22.342  1.00  0.00     0.088 A 
HETATM   22  N4  UNL     1      12.910 -10.923  22.241  1.00  0.00    -0.368 N 
ATOM     23  H4  UNL     1      12.649  -9.993  22.567  1.00  0.00     0.165 HD
ENDBRANCH  16  17
ENDBRANCH  13  16
ENDBRANCH   3  13
TORSDOF 5
ENDMDL
MODEL 4
REMARK VINA RESULT: -6.053665997      1.251      6.823
REMARK  5 active torsions:
REMARK  status: ('A' for Active; 'I' for Inactive)
REMARK    1  A    between atoms: C3_3  and  C4_4 
REMARK    2  A    between atoms: C3_3  and  N3_13 
REMARK    3  A    between atoms: C4_4  and  C5_5 
REMARK    4  A    between atoms: N3_13  and  C9_16 
REMARK    5  A    between atoms: C9_16  and  C10_17 
ROOT
HETATM    1  C1  UNL     1       9.043 -11.614  23.617  1.00  0.00     0.014 C 
HETATM    2  C2  UNL     1       9.222 -12.799  23.752  1.00  0.00    -0.084 C 
HETATM    3  C3  UNL     1       9.462 -14.236  23.913  1.00  0.00     0.269 C 
ENDROOT
BRANCH   3   4
HETATM    4  C4  UNL     1      10.797 -14.447  24.588  1.00  0.00     0.104 C 
BRANCH   4   5
HETATM    5  C5  UNL     1      11.909 -13.849  23.822  1.00  0.00     0.029 A 
HETATM    6  C6  UNL     1      12.290 -14.137  22.527  1.00  0.00     0.114 A 
HETATM    7  N1  UNL     1      13.357 -13.370  22.198  1.00  0.00    -0.354 N 
HETATM    8  C7  UNL     1      13.646 -12.611  23.264  1.00  0.00     0.077 A 
ATOM      9  H1  UNL     1      13.849 -13.370  21.305  1.00  0.00     0.166 HD
HETATM   10  C8  UNL     1      14.752 -11.618  23.336  1.00  0.00     0.089 C 
HETATM   11  N2  UNL     1      12.771 -12.904  24.240  1.00  0.00    -0.348 N 
ATOM     12  H2  UNL     1      12.761 -12.472  25.164  1.00  0.00     0.167 HD
ENDBRANCH   4   5
ENDBRANCH   3   4
BRANCH   3  13
HETATM   13  N3  UNL     1       8.443 -14.891  24.682  1.00  0.00    -0.055 N 
ATOM     14  H32 UNL     1       8.645 -14.838  25.680  1.00  0.00     0.279 HD
ATOM     15  H31 UNL     1       7.572 -14.362  24.664  1.00  0.00     0.279 HD
BRANCH  13  16
HETATM   16  C9  UNL     1       8.230 -16.262  24.266  1.00  0.00     0.290 C 
BRANCH  16  17
HETATM   17  C10 UNL     1       6.984 -16.415  23.478  1.00  0.00     0.034 A 
HETATM   18  C11 UNL     1       5.784 -16.578  24.153  1.00  0.00     0.027 A 
HETATM   19  C12 UNL     1       4.593 -16.724  23.484  1.00  0.00     0.003 A 
HETATM   20  C13 UNL     1       4.606 -16.707  22.107  1.00  0.00     0.017 A 
HETATM   21  C14 UNL     1       5.832 -16.541  21.464  1.00  0.00     0.088 A 
HETATM   22  N4  UNL     1       6.978 -16.401  22.128  1.00  0.00    -0.368 N 
ATOM     23  H4  UNL     1       7.853 -16.282  21.616  1.00  0.00     0.165 HD
ENDBRANCH  16  17
ENDBRANCH  13  16
ENDBRANCH   3  13
TORSDOF 5
ENDMDL
MODEL 5
REMARK VINA RESULT: -5.975906183      2.154      5.141
REMARK  5 active torsions:
REMARK  status: ('A' for Active; 'I' for Inactive)
REMARK    1  A    between atoms: C3_3  and  C4_4 
REMARK    2  A    between atoms: C3_3  and  N3_13 
REMARK    3  A    between atoms: C4_4  and  C5_5 
REMARK    4  A    between atoms: N3_13  and  C9_16 
REMARK    5  A    between atoms: C9_16  and  C10_17 
ROOT
HETATM    1  C1  UNL     1      14.045 -13.080  21.247  1.00  0.00     0.014 C 
HETATM    2  C2  UNL     1      13.251 -12.466  21.917  1.00  0.00    -0.084 C 
HETATM    3  C3  UNL     1      12.276 -11.714  22.711  1.00  0.00     0.269 C 
ENDROOT
BRANCH   3   4
HETATM    4  C4  UNL     1      10.958 -11.669  21.973  1.00  0.00     0.104 C 
BRANCH   4   5
HETATM    5  C5  UNL     1       9.854 -11.200  22.834  1.00  0.00     0.029 A 
HETATM    6  C6  UNL     1       8.981 -11.969  23.577  1.00  0.00     0.114 A 
HETATM    7  N1  UNL     1       8.115 -11.155  24.226  1.00  0.00    -0.354 N 
HETATM    8  C7  UNL     1       8.434  -9.895  23.902  1.00  0.00     0.077 A 
ATOM      9  H1  UNL     1       7.360 -11.447  24.847  1.00  0.00     0.166 HD
HETATM   10  C8  UNL     1       7.735  -8.677  24.397  1.00  0.00     0.089 C 
HETATM   11  N2  UNL     1       9.482  -9.927  23.063  1.00  0.00    -0.348 N 
ATOM     12  H2  UNL     1       9.932  -9.106  22.657  1.00  0.00     0.167 HD
ENDBRANCH   4   5
ENDBRANCH   3   4
BRANCH   3  13
HETATM   13  N3  UNL     1      12.061 -12.277  24.013  1.00  0.00    -0.055 N 
ATOM     14  H32 UNL     1      12.626 -11.802  24.717  1.00  0.00     0.279 HD
ATOM     15  H31 UNL     1      11.132 -12.045  24.365  1.00  0.00     0.279 HD
BRANCH  13  16
HETATM   16  C9  UNL     1      12.287 -13.708  24.042  1.00  0.00     0.290 C 
BRANCH  16  17
HETATM   17  C10 UNL     1      11.070 -14.454  24.444  1.00  0.00     0.034 A 
HETATM   18  C11 UNL     1      10.325 -15.093  23.466  1.00  0.00     0.027 A 
HETATM   19  C12 UNL     1       9.188 -15.801  23.771  1.00  0.00     0.003 A 
HETATM   20  C13 UNL     1       8.788 -15.868  25.087  1.00  0.00     0.017 A 
HETATM   21  C14 UNL     1       9.563 -15.212  26.042  1.00  0.00     0.088 A 
HETATM   22  N4  UNL     1      10.663 -14.529  25.730  1.00  0.00    -0.368 N 
ATOM     23  H4  UNL     1      11.200 -14.064  26.462  1.00  0.00     0.165 HD
ENDBRANCH  16  17
ENDBRANCH  13  16
ENDBRANCH   3  13
TORSDOF 5
ENDMDL
