MODEL 1
REMARK VINA RESULT: -5.821453901      0.000      0.000
REMARK  7 active torsions:
REMARK  status: ('A' for Active; 'I' for Inactive)
REMARK    1  A    between atoms: C2_2  and  C3_3 
REMARK    2  A    between atoms: C3_3  and  N1_4 
REMARK    3  A    between atoms: C8_9  and  C9_10 
REMARK    4  A    between atoms: N2_11  and  N3_13 
REMARK    5  A    between atoms: N3_13  and  C10_15 
REMARK    6  A    between atoms: C10_15  and  N4_18 
REMARK    7  A    between atoms: N4_18  and  N5_19 
ROOT
HETATM    1  C9  UNL     1      10.726 -13.741  24.831  1.00  0.00     0.136 C 
HETATM    2  N2  UNL     1       9.733 -14.406  25.144  1.00  0.00    -0.312 N 
ATOM      3  H2  UNL     1       9.953 -14.941  25.983  1.00  0.00     0.185 HD
ENDROOT
BRANCH   2   4
HETATM    4  N3  UNL     1       8.473 -14.681  24.783  1.00  0.00    -0.310 N 
ATOM      5  H3  UNL     1       7.783 -13.930  24.784  1.00  0.00     0.182 HD
BRANCH   4   6
HETATM    6  C10 UNL     1       8.052 -16.039  24.385  1.00  0.00     0.127 C 
HETATM    7  C11 UNL     1       8.464 -16.980  25.479  1.00  0.00     0.061 C 
HETATM    8  C12 UNL     1       8.695 -16.372  23.076  1.00  0.00     0.061 C 
BRANCH   6   9
HETATM    9  N4  UNL     1       6.607 -16.023  24.312  1.00  0.00    -0.116 NA
BRANCH   9  10
HETATM   10  N5  UNL     1       6.095 -16.759  23.273  1.00  0.00    -0.346 N 
ATOM     11  H52 UNL     1       6.627 -17.501  22.819  1.00  0.00     0.172 HD
ATOM     12  H51 UNL     1       5.147 -16.492  23.007  1.00  0.00     0.172 HD
ENDBRANCH   9  10
ENDBRANCH   6   9
ENDBRANCH   4   6
ENDBRANCH   2   4
BRANCH   1  13
HETATM   13  C8  UNL     1      10.876 -12.826  23.702  1.00  0.00     0.051 A 
HETATM   14  N1  UNL     1      12.069 -12.693  23.102  1.00  0.00    -0.352 N 
HETATM   15  C4  UNL     1      12.197 -11.847  22.039  1.00  0.00     0.091 A 
HETATM   16  C5  UNL     1      11.134 -11.122  21.564  1.00  0.00     0.017 A 
HETATM   17  C6  UNL     1       9.903 -11.237  22.157  1.00  0.00     0.004 A 
HETATM   18  C7  UNL     1       9.793 -12.096  23.228  1.00  0.00     0.031 A 
BRANCH  14  19
HETATM   19  C3  UNL     1      13.266 -13.388  23.517  1.00  0.00     0.155 C 
BRANCH  19  20
HETATM   20  C2  UNL     1      14.418 -12.454  23.485  1.00  0.00    -0.017 C 
HETATM   21  C1  UNL     1      14.804 -11.708  24.503  1.00  0.00     0.008 C 
ENDBRANCH  19  20
ENDBRANCH  14  19
ENDBRANCH   1  13
TORSDOF 7
ENDMDL
MODEL 2
REMARK VINA RESULT: -5.665872363      2.026      5.861
REMARK  7 active torsions:
REMARK  status: ('A' for Active; 'I' for Inactive)
REMARK    1  A    between atoms: C2_2  and  C3_3 
REMARK    2  A    between atoms: C3_3  and  N1_4 
REMARK    3  A    between atoms: C8_9  and  C9_10 
REMARK    4  A    between atoms: N2_11  and  N3_13 
REMARK    5  A    between atoms: N3_13  and  C10_15 
REMARK    6  A    between atoms: C10_15  and  N4_18 
REMARK    7  A    between atoms: N4_18  and  N5_19 
ROOT
HETATM    1  C9  UNL     1      11.916 -14.218  22.520  1.00  0.00     0.136 C 
HETATM    2  N2  UNL     1      13.098 -14.193  22.877  1.00  0.00    -0.312 N 
ATOM      3  H2  UNL     1      13.578 -14.993  22.464  1.00  0.00     0.185 HD
ENDROOT
BRANCH   2   4
HETATM    4  N3  UNL     1      13.981 -13.501  23.608  1.00  0.00    -0.310 N 
ATOM      5  H3  UNL     1      14.462 -13.969  24.376  1.00  0.00     0.182 HD
BRANCH   4   6
HETATM    6  C10 UNL     1      14.278 -12.079  23.338  1.00  0.00     0.127 C 
HETATM    7  C11 UNL     1      13.117 -11.271  23.840  1.00  0.00     0.061 C 
HETATM    8  C12 UNL     1      14.495 -11.911  21.867  1.00  0.00     0.061 C 
BRANCH   6   9
HETATM    9  N4  UNL     1      15.447 -11.742  24.121  1.00  0.00    -0.116 NA
BRANCH   9  10
HETATM   10  N5  UNL     1      15.210 -11.673  25.470  1.00  0.00    -0.346 N 
ATOM     11  H52 UNL     1      14.412 -11.168  25.857  1.00  0.00     0.172 HD
ATOM     12  H51 UNL     1      15.899 -12.169  26.036  1.00  0.00     0.172 HD
ENDBRANCH   9  10
ENDBRANCH   6   9
ENDBRANCH   4   6
ENDBRANCH   2   4
BRANCH   1  13
HETATM   13  C8  UNL     1      10.854 -13.275  22.862  1.00  0.00     0.051 A 
HETATM   14  N1  UNL     1      10.031 -13.539  23.889  1.00  0.00    -0.352 N 
HETATM   15  C4  UNL     1       9.050 -12.646  24.211  1.00  0.00     0.091 A 
HETATM   16  C5  UNL     1       8.880 -11.479  23.509  1.00  0.00     0.017 A 
HETATM   17  C6  UNL     1       9.706 -11.184  22.456  1.00  0.00     0.004 A 
HETATM   18  C7  UNL     1      10.690 -12.096  22.146  1.00  0.00     0.031 A 
BRANCH  14  19
HETATM   19  C3  UNL     1      10.097 -14.737  24.693  1.00  0.00     0.155 C 
BRANCH  19  20
HETATM   20  C2  UNL     1       9.161 -15.752  24.149  1.00  0.00    -0.017 C 
HETATM   21  C1  UNL     1       8.348 -16.487  24.883  1.00  0.00     0.008 C 
ENDBRANCH  19  20
ENDBRANCH  14  19
ENDBRANCH   1  13
TORSDOF 7
ENDMDL
MODEL 3
REMARK VINA RESULT: -5.418318508      1.750      5.849
REMARK  7 active torsions:
REMARK  status: ('A' for Active; 'I' for Inactive)
REMARK    1  A    between atoms: C2_2  and  C3_3 
REMARK    2  A    between atoms: C3_3  and  N1_4 
REMARK    3  A    between atoms: C8_9  and  C9_10 
REMARK    4  A    between atoms: N2_11  and  N3_13 
REMARK    5  A    between atoms: N3_13  and  C10_15 
REMARK    6  A    between atoms: C10_15  and  N4_18 
REMARK    7  A    between atoms: N4_18  and  N5_19 
ROOT
HETATM    1  C9  UNL     1      10.897 -14.179  25.306  1.00  0.00     0.136 C 
HETATM    2  N2  UNL     1      11.863 -13.795  24.637  1.00  0.00    -0.312 N 
ATOM      3  H2  UNL     1      12.521 -13.326  25.259  1.00  0.00     0.185 HD
ENDROOT
BRANCH   2   4
HETATM    4  N3  UNL     1      12.362 -13.770  23.395  1.00  0.00    -0.310 N 
ATOM      5  H3  UNL     1      12.058 -14.476  22.726  1.00  0.00     0.182 HD
BRANCH   4   6
HETATM    6  C10 UNL     1      13.340 -12.750  22.965  1.00  0.00     0.127 C 
HETATM    7  C11 UNL     1      12.641 -11.421  22.974  1.00  0.00     0.061 C 
HETATM    8  C12 UNL     1      13.844 -13.118  21.606  1.00  0.00     0.061 C 
BRANCH   6   9
HETATM    9  N4  UNL     1      14.385 -12.727  23.965  1.00  0.00    -0.116 NA
BRANCH   9  10
HETATM   10  N5  UNL     1      15.239 -11.659  23.850  1.00  0.00    -0.346 N 
ATOM     11  H52 UNL     1      15.922 -11.588  23.096  1.00  0.00     0.172 HD
ATOM     12  H51 UNL     1      15.123 -10.958  24.581  1.00  0.00     0.172 HD
ENDBRANCH   9  10
ENDBRANCH   6   9
ENDBRANCH   4   6
ENDBRANCH   2   4
BRANCH   1  13
HETATM   13  C8  UNL     1       9.714 -14.900  24.843  1.00  0.00     0.051 A 
HETATM   14  N1  UNL     1       8.998 -14.419  23.814  1.00  0.00    -0.352 N 
HETATM   15  C4  UNL     1       7.902 -15.106  23.378  1.00  0.00     0.091 A 
HETATM   16  C5  UNL     1       7.507 -16.280  23.968  1.00  0.00     0.017 A 
HETATM   17  C6  UNL     1       8.219 -16.795  25.021  1.00  0.00     0.004 A 
HETATM   18  C7  UNL     1       9.322 -16.089  25.445  1.00  0.00     0.031 A 
BRANCH  14  19
HETATM   19  C3  UNL     1       9.301 -13.188  23.121  1.00  0.00     0.155 C 
BRANCH  19  20
HETATM   20  C2  UNL     1       8.841 -12.035  23.935  1.00  0.00    -0.017 C 
HETATM   21  C1  UNL     1       9.001 -10.771  23.596  1.00  0.00     0.008 C 
ENDBRANCH  19  20
ENDBRANCH  14  19
ENDBRANCH   1  13
TORSDOF 7
ENDMDL
MODEL 4
REMARK VINA RESULT: -5.389284724      1.369      2.726
REMARK  7 active torsions:
REMARK  status: ('A' for Active; 'I' for Inactive)
REMARK    1  A    between atoms: C2_2  and  C3_3 
REMARK    2  A    between atoms: C3_3  and  N1_4 
REMARK    3  A    between atoms: C8_9  and  C9_10 
REMARK    4  A    between atoms: N2_11  and  N3_13 
REMARK    5  A    between atoms: N3_13  and  C10_15 
REMARK    6  A    between atoms: C10_15  and  N4_18 
REMARK    7  A    between atoms: N4_18  and  N5_19 
ROOT
HETATM    1  C9  UNL     1      10.874 -12.889  24.627  1.00  0.00     0.136 C 
HETATM    2  N2  UNL     1       9.731 -13.352  24.700  1.00  0.00    -0.312 N 
ATOM      3  H2  UNL     1       9.335 -13.096  25.604  1.00  0.00     0.185 HD
ENDROOT
BRANCH   2   4
HETATM    4  N3  UNL     1       8.822 -14.069  24.027  1.00  0.00    -0.310 N 
ATOM      5  H3  UNL     1       8.293 -13.619  23.280  1.00  0.00     0.182 HD
BRANCH   4   6
HETATM    6  C10 UNL     1       8.563 -15.490  24.332  1.00  0.00     0.127 C 
HETATM    7  C11 UNL     1       9.223 -15.799  25.644  1.00  0.00     0.061 C 
HETATM    8  C12 UNL     1       9.104 -16.323  23.213  1.00  0.00     0.061 C 
BRANCH   6   9
HETATM    9  N4  UNL     1       7.132 -15.628  24.493  1.00  0.00    -0.116 NA
BRANCH   9  10
HETATM   10  N5  UNL     1       6.581 -16.628  23.732  1.00  0.00    -0.346 N 
ATOM     11  H52 UNL     1       6.686 -17.613  23.972  1.00  0.00     0.172 HD
ATOM     12  H51 UNL     1       6.067 -16.291  22.919  1.00  0.00     0.172 HD
ENDBRANCH   9  10
ENDBRANCH   6   9
ENDBRANCH   4   6
ENDBRANCH   2   4
BRANCH   1  13
HETATM   13  C8  UNL     1      11.820 -13.001  23.519  1.00  0.00     0.051 A 
HETATM   14  N1  UNL     1      12.026 -11.953  22.706  1.00  0.00    -0.352 N 
HETATM   15  C4  UNL     1      12.922 -12.062  21.682  1.00  0.00     0.091 A 
HETATM   16  C5  UNL     1      13.622 -13.221  21.458  1.00  0.00     0.017 A 
HETATM   17  C6  UNL     1      13.433 -14.307  22.273  1.00  0.00     0.004 A 
HETATM   18  C7  UNL     1      12.526 -14.178  23.301  1.00  0.00     0.031 A 
BRANCH  14  19
HETATM   19  C3  UNL     1      11.340 -10.687  22.827  1.00  0.00     0.155 C 
BRANCH  19  20
HETATM   20  C2  UNL     1       9.975 -10.806  22.256  1.00  0.00    -0.017 C 
HETATM   21  C1  UNL     1       9.672 -11.522  21.191  1.00  0.00     0.008 C 
ENDBRANCH  19  20
ENDBRANCH  14  19
ENDBRANCH   1  13
TORSDOF 7
ENDMDL
MODEL 5
REMARK VINA RESULT: -5.375787273      1.368      3.204
REMARK  7 active torsions:
REMARK  status: ('A' for Active; 'I' for Inactive)
REMARK    1  A    between atoms: C2_2  and  C3_3 
REMARK    2  A    between atoms: C3_3  and  N1_4 
REMARK    3  A    between atoms: C8_9  and  C9_10 
REMARK    4  A    between atoms: N2_11  and  N3_13 
REMARK    5  A    between atoms: N3_13  and  C10_15 
REMARK    6  A    between atoms: C10_15  and  N4_18 
REMARK    7  A    between atoms: N4_18  and  N5_19 
ROOT
HETATM    1  C9  UNL     1      12.179 -14.508  22.654  1.00  0.00     0.136 C 
HETATM    2  N2  UNL     1      11.155 -14.905  23.219  1.00  0.00    -0.312 N 
ATOM      3  H2  UNL     1      10.844 -15.762  22.761  1.00  0.00     0.185 HD
ENDROOT
BRANCH   2   4
HETATM    4  N3  UNL     1      10.303 -14.621  24.212  1.00  0.00    -0.310 N 
ATOM      5  H3  UNL     1      10.490 -13.817  24.810  1.00  0.00     0.182 HD
BRANCH   4   6
HETATM    6  C10 UNL     1       9.100 -15.438  24.468  1.00  0.00     0.127 C 
HETATM    7  C11 UNL     1       7.906 -14.536  24.348  1.00  0.00     0.061 C 
HETATM    8  C12 UNL     1       9.219 -16.046  25.830  1.00  0.00     0.061 C 
BRANCH   6   9
HETATM    9  N4  UNL     1       9.036 -16.428  23.415  1.00  0.00    -0.116 NA
BRANCH   9  10
HETATM   10  N5  UNL     1       7.757 -16.772  23.054  1.00  0.00    -0.346 N 
ATOM     11  H52 UNL     1       6.980 -16.745  23.714  1.00  0.00     0.172 HD
ATOM     12  H51 UNL     1       7.666 -17.052  22.078  1.00  0.00     0.172 HD
ENDBRANCH   9  10
ENDBRANCH   6   9
ENDBRANCH   4   6
ENDBRANCH   2   4
BRANCH   1  13
HETATM   13  C8  UNL     1      12.976 -13.323  22.965  1.00  0.00     0.051 A 
HETATM   14  N1  UNL     1      12.668 -12.144  22.403  1.00  0.00    -0.352 N 
HETATM   15  C4  UNL     1      13.408 -11.039  22.711  1.00  0.00     0.091 A 
HETATM   16  C5  UNL     1      14.467 -11.101  23.582  1.00  0.00     0.017 A 
HETATM   17  C6  UNL     1      14.804 -12.293  24.170  1.00  0.00     0.004 A 
HETATM   18  C7  UNL     1      14.045 -13.396  23.849  1.00  0.00     0.031 A 
BRANCH  14  19
HETATM   19  C3  UNL     1      11.590 -11.952  21.460  1.00  0.00     0.155 C 
BRANCH  19  20
HETATM   20  C2  UNL     1      10.554 -11.077  22.063  1.00  0.00    -0.017 C 
HETATM   21  C1  UNL     1       9.629 -11.488  22.908  1.00  0.00     0.008 C 
ENDBRANCH  19  20
ENDBRANCH  14  19
ENDBRANCH   1  13
TORSDOF 7
ENDMDL
