MODEL 1
REMARK VINA RESULT: -5.610831597      0.000      0.000
REMARK  5 active torsions:
REMARK  status: ('A' for Active; 'I' for Inactive)
REMARK    1  A    between atoms: N1_2  and  C3_4 
REMARK    2  A    between atoms: C6_7  and  N2_8 
REMARK       I    between atoms: N2_8  and  C7_10 
REMARK    3  A    between atoms: C7_10  and  C8_12 
REMARK    4  A    between atoms: N3_13  and  N4_15 
REMARK    5  A    between atoms: C10_19  and  O2_20 
ROOT
HETATM    1  C3  UNL     1      17.583  18.965  24.834  1.00  0.00     0.360 C 
HETATM    2  C4  UNL     1      17.527  19.029  23.340  1.00  0.00     0.071 C 
HETATM    3  C5  UNL     1      17.398  17.698  22.694  1.00  0.00     0.024 A 
HETATM    4  C6  UNL     1      17.952  16.512  23.360  1.00  0.00     0.098 A 
HETATM    5  C9  UNL     1      16.482  16.822  23.413  1.00  0.00     0.070 A 
HETATM    6  C10 UNL     1      15.956  17.276  24.727  1.00  0.00     0.266 C 
HETATM    7  O3  UNL     1      16.671  18.166  25.438  1.00  0.00    -0.326 OA
ENDROOT
BRANCH   4   8
HETATM    8  N2  UNL     1      18.267  15.306  22.629  1.00  0.00    -0.351 N 
HETATM    9  C7  UNL     1      19.516  14.652  22.713  1.00  0.00     0.258 C 
HETATM   10  O1  UNL     1      20.413  15.106  23.442  1.00  0.00    -0.267 OA
ATOM     11  H2  UNL     1      17.551  14.907  22.022  1.00  0.00     0.163 HD
BRANCH   9  12
HETATM   12  C8  UNL     1      19.776  13.440  21.955  1.00  0.00     0.180 C 
HETATM   13  N3  UNL     1      20.248  12.365  22.478  1.00  0.00    -0.313 N 
ATOM     14  H3  UNL     1      20.409  11.544  21.895  1.00  0.00     0.185 HD
BRANCH  13  15
HETATM   15  N4  UNL     1      20.537  12.319  23.835  1.00  0.00    -0.345 N 
ATOM     16  H42 UNL     1      20.235  13.090  24.430  1.00  0.00     0.176 HD
ATOM     17  H41 UNL     1      21.044  11.524  24.224  1.00  0.00     0.176 HD
ENDBRANCH  13  15
ENDBRANCH   9  12
ENDBRANCH   4   8
BRANCH   6  18
HETATM   18  O2  UNL     1      14.616  17.627  24.537  1.00  0.00    -0.371 OA
ATOM     19  H2  UNL     1      14.506  18.508  24.872  1.00  0.00     0.212 HD
ENDBRANCH   6  18
BRANCH   1  20
HETATM   20  N1  UNL     1      17.575  20.260  25.444  1.00  0.00     0.108 N 
HETATM   21  C1  UNL     1      18.675  21.095  25.054  1.00  0.00     0.312 C 
HETATM   22  C2  UNL     1      16.312  20.932  25.427  1.00  0.00     0.312 C 
ENDBRANCH   1  20
TORSDOF 5
ENDMDL
MODEL 2
REMARK VINA RESULT: -4.963865075      2.803      6.427
REMARK  5 active torsions:
REMARK  status: ('A' for Active; 'I' for Inactive)
REMARK    1  A    between atoms: N1_2  and  C3_4 
REMARK    2  A    between atoms: C6_7  and  N2_8 
REMARK       I    between atoms: N2_8  and  C7_10 
REMARK    3  A    between atoms: C7_10  and  C8_12 
REMARK    4  A    between atoms: N3_13  and  N4_15 
REMARK    5  A    between atoms: C10_19  and  O2_20 
ROOT
HETATM    1  C3  UNL     1      21.752  14.285  24.293  1.00  0.00     0.360 C 
HETATM    2  C4  UNL     1      20.689  13.316  23.879  1.00  0.00     0.071 C 
HETATM    3  C5  UNL     1      19.716  13.882  22.911  1.00  0.00     0.024 A 
HETATM    4  C6  UNL     1      19.433  15.323  22.925  1.00  0.00     0.098 A 
HETATM    5  C9  UNL     1      20.360  14.719  21.907  1.00  0.00     0.070 A 
HETATM    6  C10 UNL     1      21.803  15.033  22.069  1.00  0.00     0.266 C 
HETATM    7  O3  UNL     1      22.340  14.997  23.302  1.00  0.00    -0.326 OA
ENDROOT
BRANCH   4   8
HETATM    8  N2  UNL     1      18.220  15.866  22.358  1.00  0.00    -0.351 N 
HETATM    9  C7  UNL     1      17.581  17.024  22.857  1.00  0.00     0.258 C 
HETATM   10  O1  UNL     1      18.057  17.631  23.829  1.00  0.00    -0.267 OA
ATOM     11  H2  UNL     1      17.804  15.390  21.557  1.00  0.00     0.163 HD
BRANCH   9  12
HETATM   12  C8  UNL     1      16.363  17.525  22.245  1.00  0.00     0.180 C 
HETATM   13  N3  UNL     1      15.188  17.291  22.713  1.00  0.00    -0.313 N 
ATOM     14  H3  UNL     1      14.368  17.670  22.241  1.00  0.00     0.185 HD
BRANCH  13  15
HETATM   15  N4  UNL     1      15.035  16.524  23.860  1.00  0.00    -0.345 N 
ATOM     16  H42 UNL     1      15.711  15.785  24.053  1.00  0.00     0.176 HD
ATOM     17  H41 UNL     1      14.257  16.702  24.495  1.00  0.00     0.176 HD
ENDBRANCH  13  15
ENDBRANCH   9  12
ENDBRANCH   4   8
BRANCH   6  18
HETATM   18  O2  UNL     1      22.499  14.286  21.111  1.00  0.00    -0.371 OA
ATOM     19  H2  UNL     1      23.423  14.358  21.316  1.00  0.00     0.212 HD
ENDBRANCH   6  18
BRANCH   1  20
HETATM   20  N1  UNL     1      22.754  13.687  25.122  1.00  0.00     0.108 N 
HETATM   21  C1  UNL     1      23.134  14.491  26.249  1.00  0.00     0.312 C 
HETATM   22  C2  UNL     1      22.530  12.312  25.449  1.00  0.00     0.312 C 
ENDBRANCH   1  20
TORSDOF 5
ENDMDL
MODEL 3
REMARK VINA RESULT: -4.954546115      2.879      7.025
REMARK  5 active torsions:
REMARK  status: ('A' for Active; 'I' for Inactive)
REMARK    1  A    between atoms: N1_2  and  C3_4 
REMARK    2  A    between atoms: C6_7  and  N2_8 
REMARK       I    between atoms: N2_8  and  C7_10 
REMARK    3  A    between atoms: C7_10  and  C8_12 
REMARK    4  A    between atoms: N3_13  and  N4_15 
REMARK    5  A    between atoms: C10_19  and  O2_20 
ROOT
HETATM    1  C3  UNL     1      20.857  14.049  21.633  1.00  0.00     0.360 C 
HETATM    2  C4  UNL     1      22.113  14.821  21.888  1.00  0.00     0.071 C 
HETATM    3  C5  UNL     1      22.086  15.594  23.156  1.00  0.00     0.024 A 
HETATM    4  C6  UNL     1      20.804  16.079  23.683  1.00  0.00     0.098 A 
HETATM    5  C9  UNL     1      21.462  14.849  24.243  1.00  0.00     0.070 A 
HETATM    6  C10 UNL     1      20.807  13.554  23.926  1.00  0.00     0.266 C 
HETATM    7  O3  UNL     1      20.359  13.343  22.675  1.00  0.00    -0.326 OA
ENDROOT
BRANCH   4   8
HETATM    8  N2  UNL     1      20.731  17.178  24.618  1.00  0.00    -0.351 N 
HETATM    9  C7  UNL     1      19.628  18.057  24.698  1.00  0.00     0.258 C 
HETATM   10  O1  UNL     1      18.653  17.908  23.944  1.00  0.00    -0.267 OA
ATOM     11  H2  UNL     1      21.516  17.327  25.252  1.00  0.00     0.163 HD
BRANCH   9  12
HETATM   12  C8  UNL     1      19.610  19.146  25.659  1.00  0.00     0.180 C 
HETATM   13  N3  UNL     1      19.516  20.383  25.325  1.00  0.00    -0.313 N 
ATOM     14  H3  UNL     1      19.509  21.105  26.045  1.00  0.00     0.185 HD
BRANCH  13  15
HETATM   15  N4  UNL     1      19.425  20.739  23.987  1.00  0.00    -0.345 N 
ATOM     16  H42 UNL     1      20.124  20.385  23.333  1.00  0.00     0.176 HD
ATOM     17  H41 UNL     1      18.668  21.345  23.668  1.00  0.00     0.176 HD
ENDBRANCH  13  15
ENDBRANCH   9  12
ENDBRANCH   4   8
BRANCH   6  18
HETATM   18  O2  UNL     1      21.632  12.540  24.426  1.00  0.00    -0.371 OA
ATOM     19  H2  UNL     1      21.585  11.814  23.817  1.00  0.00     0.212 HD
ENDBRANCH   6  18
BRANCH   1  20
HETATM   20  N1  UNL     1      20.949  13.210  20.477  1.00  0.00     0.108 N 
HETATM   21  C1  UNL     1      20.092  12.059  20.522  1.00  0.00     0.312 C 
HETATM   22  C2  UNL     1      20.918  13.897  19.222  1.00  0.00     0.312 C 
ENDBRANCH   1  20
TORSDOF 5
ENDMDL
MODEL 4
REMARK VINA RESULT: -4.588938421      1.070      1.184
REMARK  5 active torsions:
REMARK  status: ('A' for Active; 'I' for Inactive)
REMARK    1  A    between atoms: N1_2  and  C3_4 
REMARK    2  A    between atoms: C6_7  and  N2_8 
REMARK       I    between atoms: N2_8  and  C7_10 
REMARK    3  A    between atoms: C7_10  and  C8_12 
REMARK    4  A    between atoms: N3_13  and  N4_15 
REMARK    5  A    between atoms: C10_19  and  O2_20 
ROOT
HETATM    1  C3  UNL     1      16.388  18.871  24.722  1.00  0.00     0.360 C 
HETATM    2  C4  UNL     1      17.248  19.133  23.525  1.00  0.00     0.071 C 
HETATM    3  C5  UNL     1      17.486  17.928  22.692  1.00  0.00     0.024 A 
HETATM    4  C6  UNL     1      17.482  16.600  23.319  1.00  0.00     0.098 A 
HETATM    5  C9  UNL     1      16.290  17.106  22.556  1.00  0.00     0.070 A 
HETATM    6  C10 UNL     1      15.096  17.457  23.366  1.00  0.00     0.266 C 
HETATM    7  O3  UNL     1      15.268  18.139  24.513  1.00  0.00    -0.326 OA
ENDROOT
BRANCH   4   8
HETATM    8  N2  UNL     1      18.130  15.465  22.703  1.00  0.00    -0.351 N 
HETATM    9  C7  UNL     1      19.488  15.137  22.915  1.00  0.00     0.258 C 
HETATM   10  O1  UNL     1      20.191  15.835  23.663  1.00  0.00    -0.267 OA
ATOM     11  H2  UNL     1      17.579  14.871  22.083  1.00  0.00     0.163 HD
BRANCH   9  12
HETATM   12  C8  UNL     1      20.086  13.982  22.268  1.00  0.00     0.180 C 
HETATM   13  N3  UNL     1      20.790  13.106  22.892  1.00  0.00    -0.313 N 
ATOM     14  H3  UNL     1      21.185  12.315  22.385  1.00  0.00     0.185 HD
BRANCH  13  15
HETATM   15  N4  UNL     1      21.014  13.236  24.256  1.00  0.00    -0.345 N 
ATOM     16  H42 UNL     1      20.878  14.147  24.694  1.00  0.00     0.176 HD
ATOM     17  H41 UNL     1      21.311  12.429  24.806  1.00  0.00     0.176 HD
ENDBRANCH  13  15
ENDBRANCH   9  12
ENDBRANCH   4   8
BRANCH   6  18
HETATM   18  O2  UNL     1      14.155  18.016  22.494  1.00  0.00    -0.371 OA
ATOM     19  H2  UNL     1      13.345  17.535  22.609  1.00  0.00     0.212 HD
ENDBRANCH   6  18
BRANCH   1  20
HETATM   20  N1  UNL     1      16.061  20.066  25.440  1.00  0.00     0.108 N 
HETATM   21  C1  UNL     1      17.129  21.022  25.499  1.00  0.00     0.312 C 
HETATM   22  C2  UNL     1      14.793  20.643  25.115  1.00  0.00     0.312 C 
ENDBRANCH   1  20
TORSDOF 5
ENDMDL
MODEL 5
REMARK VINA RESULT: -4.269282233      2.686      3.518
REMARK  5 active torsions:
REMARK  status: ('A' for Active; 'I' for Inactive)
REMARK    1  A    between atoms: N1_2  and  C3_4 
REMARK    2  A    between atoms: C6_7  and  N2_8 
REMARK       I    between atoms: N2_8  and  C7_10 
REMARK    3  A    between atoms: C7_10  and  C8_12 
REMARK    4  A    between atoms: N3_13  and  N4_15 
REMARK    5  A    between atoms: C10_19  and  O2_20 
ROOT
HETATM    1  C3  UNL     1      17.200  18.868  24.691  1.00  0.00     0.360 C 
HETATM    2  C4  UNL     1      17.940  18.843  25.992  1.00  0.00     0.071 C 
HETATM    3  C5  UNL     1      19.403  18.644  25.837  1.00  0.00     0.024 A 
HETATM    4  C6  UNL     1      19.915  17.892  24.684  1.00  0.00     0.098 A 
HETATM    5  C9  UNL     1      19.946  19.395  24.712  1.00  0.00     0.070 A 
HETATM    6  C10 UNL     1      18.998  20.086  23.801  1.00  0.00     0.266 C 
HETATM    7  O3  UNL     1      17.738  19.624  23.705  1.00  0.00    -0.326 OA
ENDROOT
BRANCH   4   8
HETATM    8  N2  UNL     1      21.226  17.283  24.693  1.00  0.00    -0.351 N 
HETATM    9  C7  UNL     1      21.485  15.993  24.177  1.00  0.00     0.258 C 
HETATM   10  O1  UNL     1      20.566  15.321  23.682  1.00  0.00    -0.267 OA
ATOM     11  H2  UNL     1      22.002  17.810  25.092  1.00  0.00     0.163 HD
BRANCH   9  12
HETATM   12  C8  UNL     1      22.823  15.431  24.213  1.00  0.00     0.180 C 
HETATM   13  N3  UNL     1      23.435  14.992  23.171  1.00  0.00    -0.313 N 
ATOM     14  H3  UNL     1      24.376  14.608  23.257  1.00  0.00     0.185 HD
BRANCH  13  15
HETATM   15  N4  UNL     1      22.818  15.040  21.929  1.00  0.00    -0.345 N 
ATOM     16  H42 UNL     1      21.838  14.767  21.854  1.00  0.00     0.176 HD
ATOM     17  H41 UNL     1      23.342  15.344  21.108  1.00  0.00     0.176 HD
ENDBRANCH  13  15
ENDBRANCH   9  12
ENDBRANCH   4   8
BRANCH   6  18
HETATM   18  O2  UNL     1      19.095  21.457  24.066  1.00  0.00    -0.371 OA
ATOM     19  H2  UNL     1      18.230  21.828  23.944  1.00  0.00     0.212 HD
ENDBRANCH   6  18
BRANCH   1  20
HETATM   20  N1  UNL     1      15.814  19.190  24.849  1.00  0.00     0.108 N 
HETATM   21  C1  UNL     1      15.566  20.573  25.139  1.00  0.00     0.312 C 
HETATM   22  C2  UNL     1      14.947  18.651  23.847  1.00  0.00     0.312 C 
ENDBRANCH   1  20
TORSDOF 5
ENDMDL
