MODEL 1
REMARK VINA RESULT: -6.079316675      0.000      0.000
REMARK  6 active torsions:
REMARK  status: ('A' for Active; 'I' for Inactive)
REMARK    1  A    between atoms: N1_1  and  C1_5 
REMARK    2  A    between atoms: C1_5  and  C2_6 
REMARK    3  A    between atoms: C2_6  and  N2_7 
REMARK    4  A    between atoms: N2_7  and  S1_9 
REMARK    5  A    between atoms: C9_18  and  O2_19 
REMARK    6  A    between atoms: C10_21  and  O3_22 
ROOT
HETATM    1  S1  UNL     1      21.071  14.129  23.204  1.00  0.00     0.101 S 
HETATM    2  O1  UNL     1      20.492  15.306  23.908  1.00  0.00    -0.240 OA
HETATM    3  C3  UNL     1      21.106  14.332  21.469  1.00  0.00     0.112 A 
HETATM    4  C4  UNL     1      22.208  14.848  20.807  1.00  0.00     0.040 A 
HETATM    5  C5  UNL     1      22.177  14.983  19.432  1.00  0.00     0.004 A 
HETATM    6  C6  UNL     1      21.042  14.593  18.748  1.00  0.00     0.017 A 
HETATM    7  C7  UNL     1      19.963  14.084  19.428  1.00  0.00     0.092 A 
HETATM    8  N3  UNL     1      20.009  13.959  20.788  1.00  0.00    -0.346 N 
HETATM    9  C8  UNL     1      18.899  13.434  21.515  1.00  0.00     0.164 C 
HETATM   10  C9  UNL     1      19.225  12.273  22.424  1.00  0.00     0.178 C 
HETATM   11  C10 UNL     1      20.154  12.651  23.545  1.00  0.00     0.255 C 
ENDROOT
BRANCH   1  12
HETATM   12  N2  UNL     1      22.495  14.042  23.790  1.00  0.00    -0.322 N 
ATOM     13  H2  UNL     1      23.167  13.485  23.262  1.00  0.00     0.174 HD
BRANCH  12  14
HETATM   14  C2  UNL     1      22.963  14.627  24.942  1.00  0.00     0.097 C 
BRANCH  14  15
HETATM   15  C1  UNL     1      23.004  13.896  26.219  1.00  0.00     0.274 C 
BRANCH  15  16
HETATM   16  N1  UNL     1      22.849  12.451  26.062  1.00  0.00    -0.075 N 
ATOM     17  H13 UNL     1      22.298  12.061  26.826  1.00  0.00     0.274 HD
ATOM     18  H12 UNL     1      22.230  12.235  25.280  1.00  0.00     0.274 HD
ATOM     19  H11 UNL     1      23.737  11.957  25.968  1.00  0.00     0.274 HD
ENDBRANCH  15  16
ENDBRANCH  14  15
ENDBRANCH  12  14
ENDBRANCH   1  12
BRANCH  11  20
HETATM   20  O3  UNL     1      21.059  11.645  23.869  1.00  0.00    -0.379 OA
ATOM     21  H3  UNL     1      21.149  11.074  23.115  1.00  0.00     0.211 HD
ENDBRANCH  11  20
BRANCH  10  22
HETATM   22  O2  UNL     1      19.755  11.264  21.616  1.00  0.00    -0.390 OA
ATOM     23  H2  UNL     1      20.700  11.368  21.631  1.00  0.00     0.210 HD
ENDBRANCH  10  22
TORSDOF 6
ENDMDL
MODEL 2
REMARK VINA RESULT: -4.968503667      7.573      8.504
REMARK  6 active torsions:
REMARK  status: ('A' for Active; 'I' for Inactive)
REMARK    1  A    between atoms: N1_1  and  C1_5 
REMARK    2  A    between atoms: C1_5  and  C2_6 
REMARK    3  A    between atoms: C2_6  and  N2_7 
REMARK    4  A    between atoms: N2_7  and  S1_9 
REMARK    5  A    between atoms: C9_18  and  O2_19 
REMARK    6  A    between atoms: C10_21  and  O3_22 
ROOT
HETATM    1  S1  UNL     1      16.645  18.593  24.356  1.00  0.00     0.101 S 
HETATM    2  O1  UNL     1      17.251  18.019  25.588  1.00  0.00    -0.240 OA
HETATM    3  C3  UNL     1      15.248  19.588  24.692  1.00  0.00     0.112 A 
HETATM    4  C4  UNL     1      15.342  20.956  24.881  1.00  0.00     0.040 A 
HETATM    5  C5  UNL     1      14.200  21.690  25.142  1.00  0.00     0.004 A 
HETATM    6  C6  UNL     1      12.985  21.035  25.205  1.00  0.00     0.017 A 
HETATM    7  C7  UNL     1      12.919  19.677  25.014  1.00  0.00     0.092 A 
HETATM    8  N3  UNL     1      14.058  18.966  24.757  1.00  0.00    -0.346 N 
HETATM    9  C8  UNL     1      14.012  17.554  24.557  1.00  0.00     0.164 C 
HETATM   10  C9  UNL     1      14.650  17.072  23.276  1.00  0.00     0.178 C 
HETATM   11  C10 UNL     1      16.133  17.324  23.230  1.00  0.00     0.255 C 
ENDROOT
BRANCH   1  12
HETATM   12  N2  UNL     1      17.799  19.427  23.759  1.00  0.00    -0.322 N 
ATOM     13  H2  UNL     1      17.724  19.656  22.768  1.00  0.00     0.174 HD
BRANCH  12  14
HETATM   14  C2  UNL     1      18.915  19.896  24.409  1.00  0.00     0.097 C 
BRANCH  14  15
HETATM   15  C1  UNL     1      18.837  21.001  25.377  1.00  0.00     0.274 C 
BRANCH  15  16
HETATM   16  N1  UNL     1      18.530  20.560  26.736  1.00  0.00    -0.075 N 
ATOM     17  H13 UNL     1      17.523  20.542  26.892  1.00  0.00     0.274 HD
ATOM     18  H12 UNL     1      18.736  19.567  26.850  1.00  0.00     0.274 HD
ATOM     19  H11 UNL     1      18.998  21.112  27.456  1.00  0.00     0.274 HD
ENDBRANCH  15  16
ENDBRANCH  14  15
ENDBRANCH  12  14
ENDBRANCH   1  12
BRANCH  11  20
HETATM   20  O3  UNL     1      16.591  17.660  21.960  1.00  0.00    -0.379 OA
ATOM     21  H3  UNL     1      15.874  18.060  21.482  1.00  0.00     0.211 HD
ENDBRANCH  11  20
BRANCH  10  22
HETATM   22  O2  UNL     1      13.975  17.700  22.227  1.00  0.00    -0.390 OA
ATOM     23  H2  UNL     1      14.495  17.563  21.444  1.00  0.00     0.210 HD
ENDBRANCH  10  22
TORSDOF 6
ENDMDL
MODEL 3
REMARK VINA RESULT: -4.649452698      1.665      2.309
REMARK  6 active torsions:
REMARK  status: ('A' for Active; 'I' for Inactive)
REMARK    1  A    between atoms: N1_1  and  C1_5 
REMARK    2  A    between atoms: C1_5  and  C2_6 
REMARK    3  A    between atoms: C2_6  and  N2_7 
REMARK    4  A    between atoms: N2_7  and  S1_9 
REMARK    5  A    between atoms: C9_18  and  O2_19 
REMARK    6  A    between atoms: C10_21  and  O3_22 
ROOT
HETATM    1  S1  UNL     1      21.402  14.653  23.270  1.00  0.00     0.101 S 
HETATM    2  O1  UNL     1      20.769  15.908  23.759  1.00  0.00    -0.240 OA
HETATM    3  C3  UNL     1      21.041  14.325  21.592  1.00  0.00     0.112 A 
HETATM    4  C4  UNL     1      21.865  14.747  20.562  1.00  0.00     0.040 A 
HETATM    5  C5  UNL     1      21.527  14.456  19.254  1.00  0.00     0.004 A 
HETATM    6  C6  UNL     1      20.369  13.744  19.006  1.00  0.00     0.017 A 
HETATM    7  C7  UNL     1      19.570  13.337  20.045  1.00  0.00     0.092 A 
HETATM    8  N3  UNL     1      19.917  13.634  21.333  1.00  0.00    -0.346 N 
HETATM    9  C8  UNL     1      19.100  13.223  22.427  1.00  0.00     0.164 C 
HETATM   10  C9  UNL     1      19.820  12.439  23.499  1.00  0.00     0.178 C 
HETATM   11  C10 UNL     1      20.871  13.247  24.209  1.00  0.00     0.255 C 
ENDROOT
BRANCH   1  12
HETATM   12  N2  UNL     1      22.907  14.920  23.480  1.00  0.00    -0.322 N 
ATOM     13  H2  UNL     1      23.500  14.097  23.587  1.00  0.00     0.174 HD
BRANCH  12  14
HETATM   14  C2  UNL     1      23.540  16.139  23.540  1.00  0.00     0.097 C 
BRANCH  14  15
HETATM   15  C1  UNL     1      23.439  17.115  22.444  1.00  0.00     0.274 C 
BRANCH  15  16
HETATM   16  N1  UNL     1      24.164  18.358  22.708  1.00  0.00    -0.075 N 
ATOM     17  H13 UNL     1      25.155  18.251  22.493  1.00  0.00     0.274 HD
ATOM     18  H12 UNL     1      23.919  19.073  22.023  1.00  0.00     0.274 HD
ATOM     19  H11 UNL     1      24.034  18.706  23.658  1.00  0.00     0.274 HD
ENDBRANCH  15  16
ENDBRANCH  14  15
ENDBRANCH  12  14
ENDBRANCH   1  12
BRANCH  11  20
HETATM   20  O3  UNL     1      21.997  12.503  24.550  1.00  0.00    -0.379 OA
ATOM     21  H3  UNL     1      21.744  11.869  25.211  1.00  0.00     0.211 HD
ENDBRANCH  11  20
BRANCH  10  22
HETATM   22  O2  UNL     1      20.353  11.305  22.881  1.00  0.00    -0.390 OA
ATOM     23  H2  UNL     1      20.670  10.738  23.575  1.00  0.00     0.210 HD
ENDBRANCH  10  22
TORSDOF 6
ENDMDL
MODEL 4
REMARK VINA RESULT: -4.560179567      1.204      1.435
REMARK  6 active torsions:
REMARK  status: ('A' for Active; 'I' for Inactive)
REMARK    1  A    between atoms: N1_1  and  C1_5 
REMARK    2  A    between atoms: C1_5  and  C2_6 
REMARK    3  A    between atoms: C2_6  and  N2_7 
REMARK    4  A    between atoms: N2_7  and  S1_9 
REMARK    5  A    between atoms: C9_18  and  O2_19 
REMARK    6  A    between atoms: C10_21  and  O3_22 
ROOT
HETATM    1  S1  UNL     1      20.083  13.536  22.726  1.00  0.00     0.101 S 
HETATM    2  O1  UNL     1      19.059  14.468  23.272  1.00  0.00    -0.240 OA
HETATM    3  C3  UNL     1      21.018  14.244  21.430  1.00  0.00     0.112 A 
HETATM    4  C4  UNL     1      22.217  14.898  21.656  1.00  0.00     0.040 A 
HETATM    5  C5  UNL     1      22.912  15.437  20.589  1.00  0.00     0.004 A 
HETATM    6  C6  UNL     1      22.390  15.305  19.317  1.00  0.00     0.017 A 
HETATM    7  C7  UNL     1      21.199  14.651  19.121  1.00  0.00     0.092 A 
HETATM    8  N3  UNL     1      20.523  14.125  20.186  1.00  0.00    -0.346 N 
HETATM    9  C8  UNL     1      19.283  13.444  20.005  1.00  0.00     0.164 C 
HETATM   10  C9  UNL     1      19.228  12.055  20.597  1.00  0.00     0.178 C 
HETATM   11  C10 UNL     1      19.345  12.053  22.097  1.00  0.00     0.255 C 
ENDROOT
BRANCH   1  12
HETATM   12  N2  UNL     1      20.965  13.233  23.956  1.00  0.00    -0.322 N 
ATOM     13  H2  UNL     1      21.039  12.253  24.228  1.00  0.00     0.174 HD
BRANCH  12  14
HETATM   14  C2  UNL     1      21.662  14.132  24.727  1.00  0.00     0.097 C 
BRANCH  14  15
HETATM   15  C1  UNL     1      22.582  13.690  25.787  1.00  0.00     0.274 C 
BRANCH  15  16
HETATM   16  N1  UNL     1      23.798  13.063  25.273  1.00  0.00    -0.075 N 
ATOM     17  H13 UNL     1      24.361  12.687  26.035  1.00  0.00     0.274 HD
ATOM     18  H12 UNL     1      23.579  12.196  24.782  1.00  0.00     0.274 HD
ATOM     19  H11 UNL     1      24.354  13.683  24.684  1.00  0.00     0.274 HD
ENDBRANCH  15  16
ENDBRANCH  14  15
ENDBRANCH  12  14
ENDBRANCH   1  12
BRANCH  11  20
HETATM   20  O3  UNL     1      20.064  10.968  22.589  1.00  0.00    -0.379 OA
ATOM     21  H3  UNL     1      19.449  10.270  22.784  1.00  0.00     0.211 HD
ENDBRANCH  11  20
BRANCH  10  22
HETATM   22  O2  UNL     1      20.244  11.315  19.987  1.00  0.00    -0.390 OA
ATOM     23  H2  UNL     1      20.004  10.400  20.068  1.00  0.00     0.210 HD
ENDBRANCH  10  22
TORSDOF 6
ENDMDL
MODEL 5
REMARK VINA RESULT: -4.286659383      2.009      5.508
REMARK  6 active torsions:
REMARK  status: ('A' for Active; 'I' for Inactive)
REMARK    1  A    between atoms: N1_1  and  C1_5 
REMARK    2  A    between atoms: C1_5  and  C2_6 
REMARK    3  A    between atoms: C2_6  and  N2_7 
REMARK    4  A    between atoms: N2_7  and  S1_9 
REMARK    5  A    between atoms: C9_18  and  O2_19 
REMARK    6  A    between atoms: C10_21  and  O3_22 
ROOT
HETATM    1  S1  UNL     1      20.928  14.274  22.949  1.00  0.00     0.101 S 
HETATM    2  O1  UNL     1      19.528  14.728  23.169  1.00  0.00    -0.240 OA
HETATM    3  C3  UNL     1      21.750  13.875  24.439  1.00  0.00     0.112 A 
HETATM    4  C4  UNL     1      21.767  12.589  24.953  1.00  0.00     0.040 A 
HETATM    5  C5  UNL     1      22.436  12.335  26.135  1.00  0.00     0.004 A 
HETATM    6  C6  UNL     1      23.076  13.377  26.778  1.00  0.00     0.017 A 
HETATM    7  C7  UNL     1      23.044  14.643  26.247  1.00  0.00     0.092 A 
HETATM    8  N3  UNL     1      22.377  14.878  25.077  1.00  0.00    -0.346 N 
HETATM    9  C8  UNL     1      22.330  16.186  24.510  1.00  0.00     0.164 C 
HETATM   10  C9  UNL     1      22.785  16.272  23.072  1.00  0.00     0.178 C 
HETATM   11  C10 UNL     1      21.893  15.513  22.129  1.00  0.00     0.255 C 
ENDROOT
BRANCH   1  12
HETATM   12  N2  UNL     1      20.752  13.030  22.053  1.00  0.00    -0.322 N 
ATOM     13  H2  UNL     1      21.409  12.265  22.208  1.00  0.00     0.174 HD
BRANCH  12  14
HETATM   14  C2  UNL     1      19.810  12.833  21.071  1.00  0.00     0.097 C 
BRANCH  14  15
HETATM   15  C1  UNL     1      20.092  13.137  19.660  1.00  0.00     0.274 C 
BRANCH  15  16
HETATM   16  N1  UNL     1      19.918  14.550  19.327  1.00  0.00    -0.075 N 
ATOM     17  H13 UNL     1      20.558  15.131  19.868  1.00  0.00     0.274 HD
ATOM     18  H12 UNL     1      20.266  14.746  18.387  1.00  0.00     0.274 HD
ATOM     19  H11 UNL     1      18.957  14.875  19.433  1.00  0.00     0.274 HD
ENDBRANCH  15  16
ENDBRANCH  14  15
ENDBRANCH  12  14
ENDBRANCH   1  12
BRANCH  11  20
HETATM   20  O3  UNL     1      22.589  14.903  21.089  1.00  0.00    -0.379 OA
ATOM     21  H3  UNL     1      22.756  15.557  20.421  1.00  0.00     0.211 HD
ENDBRANCH  11  20
BRANCH  10  22
HETATM   22  O2  UNL     1      24.104  15.812  23.038  1.00  0.00    -0.390 OA
ATOM     23  H2  UNL     1      24.156  15.083  23.645  1.00  0.00     0.210 HD
ENDBRANCH  10  22
TORSDOF 6
ENDMDL
