MODEL 1
REMARK VINA RESULT: -6.422898785      0.000      0.000
REMARK  4 active torsions:
REMARK  status: ('A' for Active; 'I' for Inactive)
REMARK    1  A    between atoms: C3_10  and  C4_11 
REMARK    2  A    between atoms: C4_11  and  C5_12 
REMARK    3  A    between atoms: C5_12  and  N3_13 
REMARK    4  A    between atoms: N3_13  and  C6_15 
ROOT
HETATM    1  C4  UNL     1      19.770  14.022  22.767  1.00  0.00     0.068 C 
ENDROOT
BRANCH   1   2
HETATM    2  C3  UNL     1      20.890  14.210  23.761  1.00  0.00     0.300 C 
HETATM    3  S1  UNL     1      22.294  15.070  23.016  1.00  0.00     0.141 S 
HETATM    4  O1  UNL     1      22.473  14.683  21.384  1.00  0.00    -0.234 OA
HETATM    5  N1  UNL     1      23.712  14.492  23.908  1.00  0.00    -0.338 N 
HETATM    6  C1  UNL     1      23.278  14.230  25.244  1.00  0.00     0.157 C 
ATOM      7  H1  UNL     1      24.655  14.369  23.540  1.00  0.00     0.169 HD
HETATM    8  C2  UNL     1      22.253  13.168  25.393  1.00  0.00     0.254 C 
HETATM    9  N2  UNL     1      21.399  12.963  24.268  1.00  0.00    -0.057 N 
ATOM     10  H22 UNL     1      21.865  12.425  23.538  1.00  0.00     0.278 HD
ATOM     11  H21 UNL     1      20.645  12.313  24.486  1.00  0.00     0.278 HD
ENDBRANCH   1   2
BRANCH   1  12
HETATM   12  C5  UNL     1      19.324  15.402  22.306  1.00  0.00     0.123 C 
BRANCH  12  13
HETATM   13  N3  UNL     1      18.055  15.687  22.903  1.00  0.00    -0.390 N 
ATOM     14  H3  UNL     1      17.472  14.886  23.148  1.00  0.00     0.159 HD
BRANCH  13  15
HETATM   15  C6  UNL     1      17.583  16.836  23.159  1.00  0.00     0.030 A 
HETATM   16  C7  UNL     1      16.309  17.250  22.839  1.00  0.00     0.046 A 
HETATM   17  C8  UNL     1      15.877  18.527  23.156  1.00  0.00     0.089 A 
HETATM   18  N4  UNL     1      16.704  19.402  23.794  1.00  0.00    -0.375 N 
HETATM   19  C9  UNL     1      17.960  19.029  24.123  1.00  0.00     0.089 A 
ATOM     20  H4  UNL     1      16.374  20.340  24.023  1.00  0.00     0.164 HD
HETATM   21  C10 UNL     1      18.401  17.747  23.806  1.00  0.00     0.046 A 
ENDBRANCH  13  15
ENDBRANCH  12  13
ENDBRANCH   1  12
TORSDOF 4
ENDMDL
MODEL 2
REMARK VINA RESULT: -6.391099392      0.069      1.178
REMARK  4 active torsions:
REMARK  status: ('A' for Active; 'I' for Inactive)
REMARK    1  A    between atoms: C3_10  and  C4_11 
REMARK    2  A    between atoms: C4_11  and  C5_12 
REMARK    3  A    between atoms: C5_12  and  N3_13 
REMARK    4  A    between atoms: N3_13  and  C6_15 
ROOT
HETATM    1  C4  UNL     1      19.757  14.032  22.770  1.00  0.00     0.068 C 
ENDROOT
BRANCH   1   2
HETATM    2  C3  UNL     1      20.886  14.225  23.753  1.00  0.00     0.300 C 
HETATM    3  S1  UNL     1      22.285  15.076  22.988  1.00  0.00     0.141 S 
HETATM    4  O1  UNL     1      22.449  14.674  21.358  1.00  0.00    -0.234 OA
HETATM    5  N1  UNL     1      23.709  14.502  23.874  1.00  0.00    -0.338 N 
HETATM    6  C1  UNL     1      23.287  14.253  25.215  1.00  0.00     0.157 C 
ATOM      7  H1  UNL     1      24.649  14.374  23.498  1.00  0.00     0.169 HD
HETATM    8  C2  UNL     1      22.261  13.194  25.382  1.00  0.00     0.254 C 
HETATM    9  N2  UNL     1      21.396  12.982  24.266  1.00  0.00    -0.057 N 
ATOM     10  H22 UNL     1      21.855  12.437  23.537  1.00  0.00     0.278 HD
ATOM     11  H21 UNL     1      20.643  12.335  24.496  1.00  0.00     0.278 HD
ENDBRANCH   1   2
BRANCH   1  12
HETATM   12  C5  UNL     1      19.319  15.408  22.291  1.00  0.00     0.123 C 
BRANCH  12  13
HETATM   13  N3  UNL     1      18.074  15.727  22.918  1.00  0.00    -0.390 N 
ATOM     14  H3  UNL     1      17.463  14.944  23.151  1.00  0.00     0.159 HD
BRANCH  13  15
HETATM   15  C6  UNL     1      17.654  16.887  23.214  1.00  0.00     0.030 A 
HETATM   16  C7  UNL     1      18.402  17.853  23.850  1.00  0.00     0.046 A 
HETATM   17  C8  UNL     1      17.860  19.096  24.135  1.00  0.00     0.089 A 
HETATM   18  N4  UNL     1      16.575  19.389  23.792  1.00  0.00    -0.375 N 
HETATM   19  C9  UNL     1      15.813  18.465  23.167  1.00  0.00     0.089 A 
ATOM     20  H4  UNL     1      16.187  20.308  24.007  1.00  0.00     0.164 HD
HETATM   21  C10 UNL     1      16.351  17.213  22.878  1.00  0.00     0.046 A 
ENDBRANCH  13  15
ENDBRANCH  12  13
ENDBRANCH   1  12
TORSDOF 4
ENDMDL
MODEL 3
REMARK VINA RESULT: -5.653508279      2.514      3.176
REMARK  4 active torsions:
REMARK  status: ('A' for Active; 'I' for Inactive)
REMARK    1  A    between atoms: C3_10  and  C4_11 
REMARK    2  A    between atoms: C4_11  and  C5_12 
REMARK    3  A    between atoms: C5_12  and  N3_13 
REMARK    4  A    between atoms: N3_13  and  C6_15 
ROOT
HETATM    1  C4  UNL     1      19.647  14.323  23.056  1.00  0.00     0.068 C 
ENDROOT
BRANCH   1   2
HETATM    2  C3  UNL     1      20.042  14.140  21.612  1.00  0.00     0.300 C 
HETATM    3  S1  UNL     1      19.573  12.504  21.003  1.00  0.00     0.141 S 
HETATM    4  O1  UNL     1      19.671  11.333  22.213  1.00  0.00    -0.234 OA
HETATM    5  N1  UNL     1      20.754  12.130  19.736  1.00  0.00    -0.338 N 
HETATM    6  C1  UNL     1      21.111  13.372  19.128  1.00  0.00     0.157 C 
ATOM      7  H1  UNL     1      21.111  11.207  19.489  1.00  0.00     0.169 HD
HETATM    8  C2  UNL     1      21.778  14.357  20.015  1.00  0.00     0.254 C 
HETATM    9  N2  UNL     1      21.461  14.260  21.403  1.00  0.00    -0.057 N 
ATOM     10  H22 UNL     1      21.970  13.498  21.850  1.00  0.00     0.278 HD
ATOM     11  H21 UNL     1      21.851  15.040  21.930  1.00  0.00     0.278 HD
ENDBRANCH   1   2
BRANCH   1  12
HETATM   12  C5  UNL     1      19.379  15.804  23.279  1.00  0.00     0.123 C 
BRANCH  12  13
HETATM   13  N3  UNL     1      18.016  16.070  22.933  1.00  0.00    -0.390 N 
ATOM     14  H3  UNL     1      17.529  15.353  22.395  1.00  0.00     0.159 HD
BRANCH  13  15
HETATM   15  C6  UNL     1      17.353  17.110  23.229  1.00  0.00     0.030 A 
HETATM   16  C7  UNL     1      16.034  17.322  22.892  1.00  0.00     0.046 A 
HETATM   17  C8  UNL     1      15.387  18.491  23.256  1.00  0.00     0.089 A 
HETATM   18  N4  UNL     1      16.042  19.458  23.957  1.00  0.00    -0.375 N 
HETATM   19  C9  UNL     1      17.336  19.284  24.304  1.00  0.00     0.089 A 
ATOM     20  H4  UNL     1      15.555  20.315  24.221  1.00  0.00     0.164 HD
HETATM   21  C10 UNL     1      17.993  18.110  23.941  1.00  0.00     0.046 A 
ENDBRANCH  13  15
ENDBRANCH  12  13
ENDBRANCH   1  12
TORSDOF 4
ENDMDL
MODEL 4
REMARK VINA RESULT: -5.595559148      3.049      6.874
REMARK  4 active torsions:
REMARK  status: ('A' for Active; 'I' for Inactive)
REMARK    1  A    between atoms: C3_10  and  C4_11 
REMARK    2  A    between atoms: C4_11  and  C5_12 
REMARK    3  A    between atoms: C5_12  and  N3_13 
REMARK    4  A    between atoms: N3_13  and  C6_15 
ROOT
HETATM    1  C4  UNL     1      17.270  17.604  22.389  1.00  0.00     0.068 C 
ENDROOT
BRANCH   1   2
HETATM    2  C3  UNL     1      15.982  18.145  22.959  1.00  0.00     0.300 C 
HETATM    3  S1  UNL     1      16.284  19.152  24.429  1.00  0.00     0.141 S 
HETATM    4  O1  UNL     1      17.599  18.583  25.319  1.00  0.00    -0.234 OA
HETATM    5  N1  UNL     1      14.811  18.993  25.403  1.00  0.00    -0.338 N 
HETATM    6  C1  UNL     1      13.727  18.840  24.488  1.00  0.00     0.157 C 
ATOM      7  H1  UNL     1      14.750  19.008  26.422  1.00  0.00     0.169 HD
HETATM    8  C2  UNL     1      13.770  17.629  23.632  1.00  0.00     0.254 C 
HETATM    9  N2  UNL     1      15.070  17.106  23.358  1.00  0.00    -0.057 N 
ATOM     10  H22 UNL     1      15.433  16.573  24.148  1.00  0.00     0.278 HD
ATOM     11  H21 UNL     1      15.032  16.356  22.667  1.00  0.00     0.278 HD
ENDBRANCH   1   2
BRANCH   1  12
HETATM   12  C5  UNL     1      17.452  16.190  22.918  1.00  0.00     0.123 C 
BRANCH  12  13
HETATM   13  N3  UNL     1      18.606  15.621  22.291  1.00  0.00    -0.390 N 
ATOM     14  H3  UNL     1      18.833  15.957  21.355  1.00  0.00     0.159 HD
BRANCH  13  15
HETATM   15  C6  UNL     1      19.375  14.740  22.784  1.00  0.00     0.030 A 
HETATM   16  C7  UNL     1      20.524  15.011  23.494  1.00  0.00     0.046 A 
HETATM   17  C8  UNL     1      21.306  13.984  23.995  1.00  0.00     0.089 A 
HETATM   18  N4  UNL     1      20.955  12.683  23.799  1.00  0.00    -0.375 N 
HETATM   19  C9  UNL     1      19.834  12.382  23.107  1.00  0.00     0.089 A 
ATOM     20  H4  UNL     1      21.538  11.935  24.174  1.00  0.00     0.164 HD
HETATM   21  C10 UNL     1      19.043  13.409  22.599  1.00  0.00     0.046 A 
ENDBRANCH  13  15
ENDBRANCH  12  13
ENDBRANCH   1  12
TORSDOF 4
ENDMDL
MODEL 5
REMARK VINA RESULT: -5.586256437      3.046      6.800
REMARK  4 active torsions:
REMARK  status: ('A' for Active; 'I' for Inactive)
REMARK    1  A    between atoms: C3_10  and  C4_11 
REMARK    2  A    between atoms: C4_11  and  C5_12 
REMARK    3  A    between atoms: C5_12  and  N3_13 
REMARK    4  A    between atoms: N3_13  and  C6_15 
ROOT
HETATM    1  C4  UNL     1      17.346  17.638  22.447  1.00  0.00     0.068 C 
ENDROOT
BRANCH   1   2
HETATM    2  C3  UNL     1      16.042  18.185  22.974  1.00  0.00     0.300 C 
HETATM    3  S1  UNL     1      16.297  19.162  24.473  1.00  0.00     0.141 S 
HETATM    4  O1  UNL     1      17.567  18.561  25.405  1.00  0.00    -0.234 OA
HETATM    5  N1  UNL     1      14.784  19.006  25.384  1.00  0.00    -0.338 N 
HETATM    6  C1  UNL     1      13.736  18.884  24.422  1.00  0.00     0.157 C 
ATOM      7  H1  UNL     1      14.682  19.005  26.399  1.00  0.00     0.169 HD
HETATM    8  C2  UNL     1      13.799  17.686  23.548  1.00  0.00     0.254 C 
HETATM    9  N2  UNL     1      15.102  17.151  23.317  1.00  0.00    -0.057 N 
ATOM     10  H22 UNL     1      15.426  16.601  24.112  1.00  0.00     0.278 HD
ATOM     11  H21 UNL     1      15.083  16.414  22.613  1.00  0.00     0.278 HD
ENDBRANCH   1   2
BRANCH   1  12
HETATM   12  C5  UNL     1      17.481  16.206  22.945  1.00  0.00     0.123 C 
BRANCH  12  13
HETATM   13  N3  UNL     1      18.617  15.615  22.306  1.00  0.00    -0.390 N 
ATOM     14  H3  UNL     1      18.882  15.993  21.397  1.00  0.00     0.159 HD
BRANCH  13  15
HETATM   15  C6  UNL     1      19.328  14.666  22.759  1.00  0.00     0.030 A 
HETATM   16  C7  UNL     1      19.056  13.328  22.579  1.00  0.00     0.046 A 
HETATM   17  C8  UNL     1      19.889  12.357  23.112  1.00  0.00     0.089 A 
HETATM   18  N4  UNL     1      20.995  12.706  23.826  1.00  0.00    -0.375 N 
HETATM   19  C9  UNL     1      21.291  14.010  24.021  1.00  0.00     0.089 A 
ATOM     20  H4  UNL     1      21.601  11.982  24.213  1.00  0.00     0.164 HD
HETATM   21  C10 UNL     1      20.459  14.991  23.489  1.00  0.00     0.046 A 
ENDBRANCH  13  15
ENDBRANCH  12  13
ENDBRANCH   1  12
TORSDOF 4
ENDMDL
