MODEL 1
REMARK VINA RESULT: -7.153739355      0.000      0.000
REMARK  3 active torsions:
REMARK  status: ('A' for Active; 'I' for Inactive)
REMARK       I    between atoms: N2_3  and  C2_5 
REMARK       I    between atoms: C2_5  and  N3_6 
REMARK    1  A    between atoms: N6_11  and  C4_13 
REMARK    2  A    between atoms: C4_13  and  C5_14 
REMARK    3  A    between atoms: N7_17  and  C8_18 
ROOT
HETATM    1  N1  UNL     1      22.138  13.592  25.282  1.00  0.00    -0.171 NA
HETATM    2  C1  UNL     1      21.567  14.109  24.394  1.00  0.00     0.196 C 
HETATM    3  N2  UNL     1      20.907  14.737  23.330  1.00  0.00    -0.126 N 
ATOM      4  H2  UNL     1      21.331  15.546  22.876  1.00  0.00     0.197 HD
HETATM    5  C2  UNL     1      19.653  14.251  22.883  1.00  0.00     0.689 C 
HETATM    6  N3  UNL     1      19.530  12.856  22.665  1.00  0.00    -0.165 N 
ATOM      7  H3  UNL     1      19.483  12.244  23.480  1.00  0.00     0.186 HD
HETATM    8  C3  UNL     1      19.476  12.320  21.502  1.00  0.00     0.215 C 
HETATM    9  N4  UNL     1      19.539  13.164  20.364  1.00  0.00    -0.066 NA
HETATM   10  N5  UNL     1      19.353  10.906  21.418  1.00  0.00    -0.066 NA
HETATM   11  N6  UNL     1      18.626  14.994  22.666  1.00  0.00    -0.220 N 
ATOM     12  H6  UNL     1      17.765  14.554  22.344  1.00  0.00     0.178 HD
ENDROOT
BRANCH  11  13
HETATM   13  C4  UNL     1      18.642  16.412  22.856  1.00  0.00     0.195 C 
BRANCH  13  14
HETATM   14  C5  UNL     1      17.276  16.893  23.208  1.00  0.00     0.029 A 
HETATM   15  C6  UNL     1      16.900  18.203  22.983  1.00  0.00     0.044 A 
HETATM   16  C7  UNL     1      15.620  18.568  23.336  1.00  0.00     0.102 A 
HETATM   17  N7  UNL     1      14.717  17.731  23.885  1.00  0.00    -0.296 N 
HETATM   18  C9  UNL     1      15.121  16.457  24.090  1.00  0.00     0.190 A 
HETATM   19  N8  UNL     1      16.362  16.061  23.759  1.00  0.00    -0.354 N 
ATOM     20  H8  UNL     1      16.627  15.092  23.931  1.00  0.00     0.166 HD
BRANCH  17  21
HETATM   21  C8  UNL     1      13.410  18.129  24.239  1.00  0.00     0.360 C 
HETATM   22  O1  UNL     1      13.042  18.058  25.424  1.00  0.00    -0.283 OA
ENDBRANCH  17  21
ENDBRANCH  13  14
ENDBRANCH  11  13
TORSDOF 3
ENDMDL
MODEL 2
REMARK VINA RESULT: -6.428109105      4.572      6.440
REMARK  3 active torsions:
REMARK  status: ('A' for Active; 'I' for Inactive)
REMARK       I    between atoms: N2_3  and  C2_5 
REMARK       I    between atoms: C2_5  and  N3_6 
REMARK    1  A    between atoms: N6_11  and  C4_13 
REMARK    2  A    between atoms: C4_13  and  C5_14 
REMARK    3  A    between atoms: N7_17  and  C8_18 
ROOT
HETATM    1  N1  UNL     1      24.186  17.664  22.946  1.00  0.00    -0.171 NA
HETATM    2  C1  UNL     1      23.450  16.750  22.891  1.00  0.00     0.196 C 
HETATM    3  N2  UNL     1      22.583  15.653  22.805  1.00  0.00    -0.126 N 
ATOM      4  H2  UNL     1      22.493  15.144  21.925  1.00  0.00     0.197 HD
HETATM    5  C2  UNL     1      21.831  15.248  23.936  1.00  0.00     0.689 C 
HETATM    6  N3  UNL     1      22.518  15.121  25.168  1.00  0.00    -0.165 N 
ATOM      7  H3  UNL     1      22.798  15.973  25.653  1.00  0.00     0.186 HD
HETATM    8  C3  UNL     1      22.809  13.996  25.709  1.00  0.00     0.215 C 
HETATM    9  N4  UNL     1      22.421  12.805  25.042  1.00  0.00    -0.066 NA
HETATM   10  N5  UNL     1      23.502  14.003  26.950  1.00  0.00    -0.066 NA
HETATM   11  N6  UNL     1      20.572  14.991  23.912  1.00  0.00    -0.220 N 
ATOM     12  H6  UNL     1      20.115  14.705  24.777  1.00  0.00     0.178 HD
ENDROOT
BRANCH  11  13
HETATM   13  C4  UNL     1      19.784  15.090  22.721  1.00  0.00     0.195 C 
BRANCH  13  14
HETATM   14  C5  UNL     1      19.749  13.772  22.025  1.00  0.00     0.029 A 
HETATM   15  C6  UNL     1      20.447  13.566  20.851  1.00  0.00     0.044 A 
HETATM   16  C7  UNL     1      20.364  12.319  20.270  1.00  0.00     0.102 A 
HETATM   17  N7  UNL     1      19.646  11.295  20.773  1.00  0.00    -0.296 N 
HETATM   18  C9  UNL     1      18.975  11.535  21.923  1.00  0.00     0.190 A 
HETATM   19  N8  UNL     1      19.031  12.737  22.521  1.00  0.00    -0.354 N 
ATOM     20  H8  UNL     1      18.510  12.876  23.387  1.00  0.00     0.166 HD
BRANCH  17  21
HETATM   21  C8  UNL     1      19.575  10.027  20.159  1.00  0.00     0.360 C 
HETATM   22  O1  UNL     1      20.536   9.610  19.490  1.00  0.00    -0.283 OA
ENDBRANCH  17  21
ENDBRANCH  13  14
ENDBRANCH  11  13
TORSDOF 3
ENDMDL
MODEL 3
REMARK VINA RESULT: -6.317870736      0.680      1.116
REMARK  3 active torsions:
REMARK  status: ('A' for Active; 'I' for Inactive)
REMARK       I    between atoms: N2_3  and  C2_5 
REMARK       I    between atoms: C2_5  and  N3_6 
REMARK    1  A    between atoms: N6_11  and  C4_13 
REMARK    2  A    between atoms: C4_13  and  C5_14 
REMARK    3  A    between atoms: N7_17  and  C8_18 
ROOT
HETATM    1  N1  UNL     1      22.119  13.770  25.239  1.00  0.00    -0.171 NA
HETATM    2  C1  UNL     1      21.524  14.278  24.361  1.00  0.00     0.196 C 
HETATM    3  N2  UNL     1      20.836  14.894  23.309  1.00  0.00    -0.126 N 
ATOM      4  H2  UNL     1      21.248  15.695  22.831  1.00  0.00     0.197 HD
HETATM    5  C2  UNL     1      19.567  14.406  22.905  1.00  0.00     0.689 C 
HETATM    6  N3  UNL     1      19.434  13.009  22.709  1.00  0.00    -0.165 N 
ATOM      7  H3  UNL     1      19.408  12.408  23.533  1.00  0.00     0.186 HD
HETATM    8  C3  UNL     1      19.344  12.458  21.556  1.00  0.00     0.215 C 
HETATM    9  N4  UNL     1      19.377  13.286  20.405  1.00  0.00    -0.066 NA
HETATM   10  N5  UNL     1      19.214  11.043  21.494  1.00  0.00    -0.066 NA
HETATM   11  N6  UNL     1      18.537  15.150  22.707  1.00  0.00    -0.220 N 
ATOM     12  H6  UNL     1      17.665  14.709  22.416  1.00  0.00     0.178 HD
ENDROOT
BRANCH  11  13
HETATM   13  C4  UNL     1      18.563  16.571  22.878  1.00  0.00     0.195 C 
BRANCH  13  14
HETATM   14  C5  UNL     1      17.213  17.059  23.279  1.00  0.00     0.029 A 
HETATM   15  C6  UNL     1      16.260  16.192  23.777  1.00  0.00     0.044 A 
HETATM   16  C7  UNL     1      15.036  16.722  24.125  1.00  0.00     0.102 A 
HETATM   17  N7  UNL     1      14.715  18.026  24.009  1.00  0.00    -0.296 N 
HETATM   18  C9  UNL     1      15.674  18.844  23.517  1.00  0.00     0.190 A 
HETATM   19  N8  UNL     1      16.880  18.365  23.167  1.00  0.00    -0.354 N 
ATOM     20  H8  UNL     1      17.574  19.016  22.799  1.00  0.00     0.166 HD
BRANCH  17  21
HETATM   21  C8  UNL     1      13.454  18.546  24.372  1.00  0.00     0.360 C 
HETATM   22  O1  UNL     1      12.919  18.185  25.434  1.00  0.00    -0.283 OA
ENDBRANCH  17  21
ENDBRANCH  13  14
ENDBRANCH  11  13
TORSDOF 3
ENDMDL
MODEL 4
REMARK VINA RESULT: -6.246443723      3.362      6.694
REMARK  3 active torsions:
REMARK  status: ('A' for Active; 'I' for Inactive)
REMARK       I    between atoms: N2_3  and  C2_5 
REMARK       I    between atoms: C2_5  and  N3_6 
REMARK    1  A    between atoms: N6_11  and  C4_13 
REMARK    2  A    between atoms: C4_13  and  C5_14 
REMARK    3  A    between atoms: N7_17  and  C8_18 
ROOT
HETATM    1  N1  UNL     1      19.023  20.382  24.144  1.00  0.00    -0.171 NA
HETATM    2  C1  UNL     1      18.841  19.224  24.226  1.00  0.00     0.196 C 
HETATM    3  N2  UNL     1      18.630  17.845  24.346  1.00  0.00    -0.126 N 
ATOM      4  H2  UNL     1      19.036  17.335  25.131  1.00  0.00     0.197 HD
HETATM    5  C2  UNL     1      17.853  17.155  23.382  1.00  0.00     0.689 C 
HETATM    6  N3  UNL     1      16.606  17.722  23.018  1.00  0.00    -0.165 N 
ATOM      7  H3  UNL     1      16.609  18.554  22.428  1.00  0.00     0.186 HD
HETATM    8  C3  UNL     1      15.474  17.248  23.388  1.00  0.00     0.215 C 
HETATM    9  N4  UNL     1      15.460  16.090  24.208  1.00  0.00    -0.066 NA
HETATM   10  N5  UNL     1      14.293  17.911  22.955  1.00  0.00    -0.066 NA
HETATM   11  N6  UNL     1      18.209  16.055  22.821  1.00  0.00    -0.220 N 
ATOM     12  H6  UNL     1      17.582  15.630  22.137  1.00  0.00     0.178 HD
ENDROOT
BRANCH  11  13
HETATM   13  C4  UNL     1      19.447  15.400  23.115  1.00  0.00     0.195 C 
BRANCH  13  14
HETATM   14  C5  UNL     1      19.604  14.197  22.249  1.00  0.00     0.029 A 
HETATM   15  C6  UNL     1      20.422  14.222  21.135  1.00  0.00     0.044 A 
HETATM   16  C7  UNL     1      20.513  13.069  20.386  1.00  0.00     0.102 A 
HETATM   17  N7  UNL     1      19.857  11.926  20.671  1.00  0.00    -0.296 N 
HETATM   18  C9  UNL     1      19.066  11.940  21.768  1.00  0.00     0.190 A 
HETATM   19  N8  UNL     1      18.950  13.045  22.525  1.00  0.00    -0.354 N 
ATOM     20  H8  UNL     1      18.343  13.014  23.343  1.00  0.00     0.166 HD
BRANCH  17  21
HETATM   21  C8  UNL     1      19.967  10.757  19.888  1.00  0.00     0.360 C 
HETATM   22  O1  UNL     1      19.520   9.681  20.319  1.00  0.00    -0.283 OA
ENDBRANCH  17  21
ENDBRANCH  13  14
ENDBRANCH  11  13
TORSDOF 3
ENDMDL
MODEL 5
REMARK VINA RESULT: -6.055776907      1.770      3.127
REMARK  3 active torsions:
REMARK  status: ('A' for Active; 'I' for Inactive)
REMARK       I    between atoms: N2_3  and  C2_5 
REMARK       I    between atoms: C2_5  and  N3_6 
REMARK    1  A    between atoms: N6_11  and  C4_13 
REMARK    2  A    between atoms: C4_13  and  C5_14 
REMARK    3  A    between atoms: N7_17  and  C8_18 
ROOT
HETATM    1  N1  UNL     1      22.932  14.840  19.784  1.00  0.00    -0.171 NA
HETATM    2  C1  UNL     1      22.091  14.550  20.552  1.00  0.00     0.196 C 
HETATM    3  N2  UNL     1      21.083  14.184  21.453  1.00  0.00    -0.126 N 
ATOM      4  H2  UNL     1      20.386  13.491  21.183  1.00  0.00     0.197 HD
HETATM    5  C2  UNL     1      21.030  14.775  22.741  1.00  0.00     0.689 C 
HETATM    6  N3  UNL     1      22.234  14.832  23.486  1.00  0.00    -0.165 N 
ATOM      7  H3  UNL     1      22.945  15.506  23.200  1.00  0.00     0.186 HD
HETATM    8  C3  UNL     1      22.482  14.086  24.498  1.00  0.00     0.215 C 
HETATM    9  N4  UNL     1      21.498  13.148  24.903  1.00  0.00    -0.066 NA
HETATM   10  N5  UNL     1      23.730  14.242  25.161  1.00  0.00    -0.066 NA
HETATM   11  N6  UNL     1      19.963  15.259  23.270  1.00  0.00    -0.220 N 
ATOM     12  H6  UNL     1      20.022  15.664  24.204  1.00  0.00     0.178 HD
ENDROOT
BRANCH  11  13
HETATM   13  C4  UNL     1      18.696  15.252  22.604  1.00  0.00     0.195 C 
BRANCH  13  14
HETATM   14  C5  UNL     1      17.814  16.306  23.181  1.00  0.00     0.029 A 
HETATM   15  C6  UNL     1      18.306  17.559  23.488  1.00  0.00     0.044 A 
HETATM   16  C7  UNL     1      17.426  18.478  24.018  1.00  0.00     0.102 A 
HETATM   17  N7  UNL     1      16.122  18.229  24.254  1.00  0.00    -0.296 N 
HETATM   18  C9  UNL     1      15.677  16.991  23.940  1.00  0.00     0.190 A 
HETATM   19  N8  UNL     1      16.504  16.067  23.421  1.00  0.00    -0.354 N 
ATOM     20  H8  UNL     1      16.128  15.145  23.199  1.00  0.00     0.166 HD
BRANCH  17  21
HETATM   21  C8  UNL     1      15.239  19.186  24.798  1.00  0.00     0.360 C 
HETATM   22  O1  UNL     1      14.250  18.813  25.451  1.00  0.00    -0.283 OA
ENDBRANCH  17  21
ENDBRANCH  13  14
ENDBRANCH  11  13
TORSDOF 3
ENDMDL
