MODEL 1
REMARK VINA RESULT: -6.276819957      0.000      0.000
REMARK  5 active torsions:
REMARK  status: ('A' for Active; 'I' for Inactive)
REMARK    1  A    between atoms: N1_2  and  C2_3 
REMARK    2  A    between atoms: C2_3  and  C3_4 
REMARK    3  A    between atoms: C6_7  and  N2_8 
REMARK       I    between atoms: N2_8  and  C7_10 
REMARK    4  A    between atoms: C8_13  and  C9_14 
REMARK    5  A    between atoms: C9_14  and  O2_15 
ROOT
HETATM    1  C3  UNL     1      20.406  13.614  21.743  1.00  0.00     0.173 C 
HETATM    2  C4  UNL     1      19.762  12.520  22.561  1.00  0.00     0.005 C 
HETATM    3  C5  UNL     1      20.277  12.401  23.789  1.00  0.00    -0.001 C 
HETATM    4  C6  UNL     1      21.385  13.388  24.084  1.00  0.00     0.139 C 
HETATM    5  C8  UNL     1      21.014  14.752  23.599  1.00  0.00     0.172 C 
HETATM    6  O3  UNL     1      20.193  14.774  22.483  1.00  0.00    -0.370 OA
ENDROOT
BRANCH   1   7
HETATM    7  C2  UNL     1      19.753  13.708  20.383  1.00  0.00     0.307 C 
BRANCH   7   8
HETATM    8  N1  UNL     1      20.542  14.549  19.533  1.00  0.00     0.048 N 
HETATM    9  C1  UNL     1      21.972  14.490  19.797  1.00  0.00     0.310 C 
HETATM   10  C10 UNL     1      20.165  14.658  18.189  1.00  0.00     0.342 A 
HETATM   11  N4  UNL     1      20.093  15.699  19.019  1.00  0.00    -0.197 N 
ATOM     12  H4  UNL     1      19.859  16.681  19.161  1.00  0.00     0.195 HD
ENDBRANCH   7   8
ENDBRANCH   1   7
BRANCH   5  13
HETATM   13  C9  UNL     1      22.237  15.597  23.240  1.00  0.00     0.198 C 
BRANCH  13  14
HETATM   14  O2  UNL     1      23.352  14.832  22.990  1.00  0.00    -0.398 OA
ATOM     15  H2  UNL     1      24.147  15.350  22.940  1.00  0.00     0.209 HD
ENDBRANCH  13  14
ENDBRANCH   5  13
BRANCH   4  16
HETATM   16  N2  UNL     1      21.671  13.335  25.487  1.00  0.00    -0.335 N 
HETATM   17  C7  UNL     1      23.000  13.234  25.935  1.00  0.00     0.329 C 
HETATM   18  N3  UNL     1      23.368  13.178  27.305  1.00  0.00    -0.040 NA
HETATM   19  O1  UNL     1      23.936  13.190  25.097  1.00  0.00    -0.251 OA
ATOM     20  H2  UNL     1      20.908  13.370  26.163  1.00  0.00     0.164 HD
ENDBRANCH   4  16
TORSDOF 5
ENDMDL
MODEL 2
REMARK VINA RESULT: -5.548635740      0.878      1.073
REMARK  5 active torsions:
REMARK  status: ('A' for Active; 'I' for Inactive)
REMARK    1  A    between atoms: N1_2  and  C2_3 
REMARK    2  A    between atoms: C2_3  and  C3_4 
REMARK    3  A    between atoms: C6_7  and  N2_8 
REMARK       I    between atoms: N2_8  and  C7_10 
REMARK    4  A    between atoms: C8_13  and  C9_14 
REMARK    5  A    between atoms: C9_14  and  O2_15 
ROOT
HETATM    1  C3  UNL     1      20.740  14.169  21.987  1.00  0.00     0.173 C 
HETATM    2  C4  UNL     1      19.943  13.078  22.659  1.00  0.00     0.005 C 
HETATM    3  C5  UNL     1      20.381  12.778  23.886  1.00  0.00    -0.001 C 
HETATM    4  C6  UNL     1      21.574  13.598  24.325  1.00  0.00     0.139 C 
HETATM    5  C8  UNL     1      21.377  15.037  23.975  1.00  0.00     0.172 C 
HETATM    6  O3  UNL     1      20.619  15.265  22.837  1.00  0.00    -0.370 OA
ENDROOT
BRANCH   1   7
HETATM    7  C2  UNL     1      20.169  14.474  20.621  1.00  0.00     0.307 C 
BRANCH   7   8
HETATM    8  N1  UNL     1      21.210  14.392  19.640  1.00  0.00     0.048 N 
HETATM    9  C1  UNL     1      21.047  13.308  18.685  1.00  0.00     0.310 C 
HETATM   10  C10 UNL     1      21.726  15.592  19.134  1.00  0.00     0.342 A 
HETATM   11  N4  UNL     1      22.471  14.773  19.877  1.00  0.00    -0.197 N 
ATOM     12  H4  UNL     1      23.369  14.577  20.317  1.00  0.00     0.195 HD
ENDBRANCH   7   8
ENDBRANCH   1   7
BRANCH   5  13
HETATM   13  C9  UNL     1      22.701  15.770  23.753  1.00  0.00     0.198 C 
BRANCH  13  14
HETATM   14  O2  UNL     1      23.730  14.917  23.432  1.00  0.00    -0.398 OA
ATOM     15  H2  UNL     1      24.568  15.361  23.371  1.00  0.00     0.209 HD
ENDBRANCH  13  14
ENDBRANCH   5  13
BRANCH   4  16
HETATM   16  N2  UNL     1      21.784  13.370  25.725  1.00  0.00    -0.335 N 
HETATM   17  C7  UNL     1      23.078  13.122  26.215  1.00  0.00     0.329 C 
HETATM   18  N3  UNL     1      23.371  12.890  27.584  1.00  0.00    -0.040 NA
HETATM   19  O1  UNL     1      24.050  13.100  25.418  1.00  0.00    -0.251 OA
ATOM     20  H2  UNL     1      20.991  13.389  26.367  1.00  0.00     0.164 HD
ENDBRANCH   4  16
TORSDOF 5
ENDMDL
MODEL 3
REMARK VINA RESULT: -4.575036297      1.941      5.830
REMARK  5 active torsions:
REMARK  status: ('A' for Active; 'I' for Inactive)
REMARK    1  A    between atoms: N1_2  and  C2_3 
REMARK    2  A    between atoms: C2_3  and  C3_4 
REMARK    3  A    between atoms: C6_7  and  N2_8 
REMARK       I    between atoms: N2_8  and  C7_10 
REMARK    4  A    between atoms: C8_13  and  C9_14 
REMARK    5  A    between atoms: C9_14  and  O2_15 
ROOT
HETATM    1  C3  UNL     1      20.936  13.249  23.747  1.00  0.00     0.173 C 
HETATM    2  C4  UNL     1      20.948  14.744  23.539  1.00  0.00     0.005 C 
HETATM    3  C5  UNL     1      20.558  15.114  22.314  1.00  0.00    -0.001 C 
HETATM    4  C6  UNL     1      20.193  13.953  21.415  1.00  0.00     0.139 C 
HETATM    5  C8  UNL     1      19.357  12.960  22.155  1.00  0.00     0.172 C 
HETATM    6  O3  UNL     1      19.616  12.874  23.514  1.00  0.00    -0.370 OA
ENDROOT
BRANCH   1   7
HETATM    7  C2  UNL     1      21.357  12.911  25.159  1.00  0.00     0.307 C 
BRANCH   7   8
HETATM    8  N1  UNL     1      22.562  13.618  25.478  1.00  0.00     0.048 N 
HETATM    9  C1  UNL     1      22.462  15.062  25.335  1.00  0.00     0.310 C 
HETATM   10  C10 UNL     1      23.326  13.154  26.555  1.00  0.00     0.342 A 
HETATM   11  N4  UNL     1      23.783  13.100  25.304  1.00  0.00    -0.197 N 
ATOM     12  H4  UNL     1      24.535  12.844  24.665  1.00  0.00     0.195 HD
ENDBRANCH   7   8
ENDBRANCH   1   7
BRANCH   5  13
HETATM   13  C9  UNL     1      19.514  11.541  21.605  1.00  0.00     0.198 C 
BRANCH  13  14
HETATM   14  O2  UNL     1      20.432  11.468  20.584  1.00  0.00    -0.398 OA
ATOM     15  H2  UNL     1      20.124  10.945  19.853  1.00  0.00     0.209 HD
ENDBRANCH  13  14
ENDBRANCH   5  13
BRANCH   4  16
HETATM   16  N2  UNL     1      19.557  14.478  20.242  1.00  0.00    -0.335 N 
HETATM   17  C7  UNL     1      20.229  14.465  19.007  1.00  0.00     0.329 C 
HETATM   18  N3  UNL     1      19.671  14.962  17.800  1.00  0.00    -0.040 NA
HETATM   19  O1  UNL     1      21.392  13.990  18.937  1.00  0.00    -0.251 OA
ATOM     20  H2  UNL     1      18.615  14.863  20.304  1.00  0.00     0.164 HD
ENDBRANCH   4  16
TORSDOF 5
ENDMDL
MODEL 4
REMARK VINA RESULT: -4.476541814      1.839      5.891
REMARK  5 active torsions:
REMARK  status: ('A' for Active; 'I' for Inactive)
REMARK    1  A    between atoms: N1_2  and  C2_3 
REMARK    2  A    between atoms: C2_3  and  C3_4 
REMARK    3  A    between atoms: C6_7  and  N2_8 
REMARK       I    between atoms: N2_8  and  C7_10 
REMARK    4  A    between atoms: C8_13  and  C9_14 
REMARK    5  A    between atoms: C9_14  and  O2_15 
ROOT
HETATM    1  C3  UNL     1      21.241  13.850  23.260  1.00  0.00     0.173 C 
HETATM    2  C4  UNL     1      22.009  14.803  22.376  1.00  0.00     0.005 C 
HETATM    3  C5  UNL     1      21.793  14.610  21.070  1.00  0.00    -0.001 C 
HETATM    4  C6  UNL     1      20.829  13.482  20.773  1.00  0.00     0.139 C 
HETATM    5  C8  UNL     1      19.647  13.549  21.685  1.00  0.00     0.172 C 
HETATM    6  O3  UNL     1      19.905  14.076  22.940  1.00  0.00    -0.370 OA
ENDROOT
BRANCH   1   7
HETATM    7  C2  UNL     1      21.511  14.149  24.717  1.00  0.00     0.307 C 
BRANCH   7   8
HETATM    8  N1  UNL     1      22.769  13.577  25.094  1.00  0.00     0.048 N 
HETATM    9  C1  UNL     1      23.927  14.269  24.550  1.00  0.00     0.310 C 
HETATM   10  C10 UNL     1      22.898  13.085  26.399  1.00  0.00     0.342 A 
HETATM   11  N4  UNL     1      22.935  12.273  25.343  1.00  0.00    -0.197 N 
ATOM     12  H4  UNL     1      23.027  11.324  24.980  1.00  0.00     0.195 HD
ENDBRANCH   7   8
ENDBRANCH   1   7
BRANCH   5  13
HETATM   13  C9  UNL     1      19.017  12.175  21.925  1.00  0.00     0.198 C 
BRANCH  13  14
HETATM   14  O2  UNL     1      19.774  11.150  21.409  1.00  0.00    -0.398 OA
ATOM     15  H2  UNL     1      19.440  10.293  21.650  1.00  0.00     0.209 HD
ENDBRANCH  13  14
ENDBRANCH   5  13
BRANCH   4  16
HETATM   16  N2  UNL     1      20.486  13.541  19.382  1.00  0.00    -0.335 N 
HETATM   17  C7  UNL     1      20.037  14.747  18.815  1.00  0.00     0.329 C 
HETATM   18  N3  UNL     1      19.680  14.891  17.449  1.00  0.00    -0.040 NA
HETATM   19  O1  UNL     1      19.937  15.773  19.535  1.00  0.00    -0.251 OA
ATOM     20  H2  UNL     1      20.568  12.706  18.803  1.00  0.00     0.164 HD
ENDBRANCH   4  16
TORSDOF 5
ENDMDL
MODEL 5
REMARK VINA RESULT: -3.870242944      1.361      1.701
REMARK  5 active torsions:
REMARK  status: ('A' for Active; 'I' for Inactive)
REMARK    1  A    between atoms: N1_2  and  C2_3 
REMARK    2  A    between atoms: C2_3  and  C3_4 
REMARK    3  A    between atoms: C6_7  and  N2_8 
REMARK       I    between atoms: N2_8  and  C7_10 
REMARK    4  A    between atoms: C8_13  and  C9_14 
REMARK    5  A    between atoms: C9_14  and  O2_15 
ROOT
HETATM    1  C3  UNL     1      21.037  14.363  22.030  1.00  0.00     0.173 C 
HETATM    2  C4  UNL     1      20.229  13.506  22.975  1.00  0.00     0.005 C 
HETATM    3  C5  UNL     1      20.798  13.356  24.176  1.00  0.00    -0.001 C 
HETATM    4  C6  UNL     1      22.119  14.079  24.318  1.00  0.00     0.139 C 
HETATM    5  C8  UNL     1      22.028  15.456  23.743  1.00  0.00     0.172 C 
HETATM    6  O3  UNL     1      21.149  15.589  22.680  1.00  0.00    -0.370 OA
ENDROOT
BRANCH   1   7
HETATM    7  C2  UNL     1      20.318  14.511  20.708  1.00  0.00     0.307 C 
BRANCH   7   8
HETATM    8  N1  UNL     1      20.150  13.219  20.111  1.00  0.00     0.048 N 
HETATM    9  C1  UNL     1      18.833  12.635  20.314  1.00  0.00     0.310 C 
HETATM   10  C10 UNL     1      20.741  12.995  18.862  1.00  0.00     0.342 A 
HETATM   11  N4  UNL     1      21.154  12.349  19.953  1.00  0.00    -0.197 N 
ATOM     12  H4  UNL     1      21.788  11.670  20.372  1.00  0.00     0.195 HD
ENDBRANCH   7   8
ENDBRANCH   1   7
BRANCH   5  13
HETATM   13  C9  UNL     1      23.379  15.968  23.241  1.00  0.00     0.198 C 
BRANCH  13  14
HETATM   14  O2  UNL     1      24.382  15.039  23.381  1.00  0.00    -0.398 OA
ATOM     15  H2  UNL     1      24.296  14.525  24.176  1.00  0.00     0.209 HD
ENDBRANCH  13  14
ENDBRANCH   5  13
BRANCH   4  16
HETATM   16  N2  UNL     1      22.494  14.058  25.702  1.00  0.00    -0.335 N 
HETATM   17  C7  UNL     1      22.933  12.862  26.297  1.00  0.00     0.329 C 
HETATM   18  N3  UNL     1      23.325  12.757  27.658  1.00  0.00    -0.040 NA
HETATM   19  O1  UNL     1      22.995  11.811  25.610  1.00  0.00    -0.251 OA
ATOM     20  H2  UNL     1      22.441  14.913  26.256  1.00  0.00     0.164 HD
ENDBRANCH   4  16
TORSDOF 5
ENDMDL
