MODEL 1
REMARK VINA RESULT: -3.839549161      0.000      0.000
REMARK  5 active torsions:
REMARK  status: ('A' for Active; 'I' for Inactive)
REMARK    1  A    between atoms: S1_2  and  C2_4 
REMARK    2  A    between atoms: C2_4  and  C3_5 
REMARK    3  A    between atoms: C3_5  and  O2_6 
REMARK    4  A    between atoms: C8_13  and  O3_14 
REMARK    5  A    between atoms: C9_16  and  O4_17 
ROOT
HETATM    1  C3  UNL     1      19.178  12.553  56.865  1.00  0.00     0.121 C 
HETATM    2  C4  UNL     1      19.989  11.333  57.140  1.00  0.00     0.277 C 
HETATM    3  N1  UNL     1      19.292  10.173  57.533  1.00  0.00    -0.069 N 
HETATM    4  C5  UNL     1      20.180   9.367  58.367  1.00  0.00     0.272 C 
HETATM    5  C6  UNL     1      18.951   9.324  56.385  1.00  0.00     0.272 C 
HETATM    6  C7  UNL     1      18.085  10.372  58.278  1.00  0.00     0.270 C 
HETATM    7  C8  UNL     1      17.219  11.466  57.738  1.00  0.00     0.176 C 
HETATM    8  C9  UNL     1      18.067  12.740  57.875  1.00  0.00     0.185 C 
ENDROOT
BRANCH   1   9
HETATM    9  C2  UNL     1      20.078  13.765  56.955  1.00  0.00     0.150 C 
BRANCH   9  10
HETATM   10  S1  UNL     1      21.562  13.512  57.842  1.00  0.00     0.013 S 
HETATM   11  C1  UNL     1      22.961  13.119  56.879  1.00  0.00     0.127 C 
HETATM   12  O1  UNL     1      21.828  14.578  59.079  1.00  0.00    -0.258 OA
ENDBRANCH   9  10
ENDBRANCH   1   9
BRANCH   1  13
HETATM   13  O2  UNL     1      18.583  12.471  55.615  1.00  0.00    -0.385 OA
ATOM     14  H2  UNL     1      18.164  13.293  55.385  1.00  0.00     0.210 HD
ENDBRANCH   1  13
BRANCH   8  15
HETATM   15  O4  UNL     1      18.541  12.743  59.179  1.00  0.00    -0.390 OA
ATOM     16  H4  UNL     1      17.994  12.228  59.760  1.00  0.00     0.210 HD
ENDBRANCH   8  15
BRANCH   7  17
HETATM   17  O3  UNL     1      16.038  11.547  58.418  1.00  0.00    -0.391 OA
ATOM     18  H3  UNL     1      15.330  11.143  57.931  1.00  0.00     0.210 HD
ENDBRANCH   7  17
TORSDOF 5
ENDMDL
MODEL 2
REMARK VINA RESULT: -3.486330472      1.838      2.932
REMARK  5 active torsions:
REMARK  status: ('A' for Active; 'I' for Inactive)
REMARK    1  A    between atoms: S1_2  and  C2_4 
REMARK    2  A    between atoms: C2_4  and  C3_5 
REMARK    3  A    between atoms: C3_5  and  O2_6 
REMARK    4  A    between atoms: C8_13  and  O3_14 
REMARK    5  A    between atoms: C9_16  and  O4_17 
ROOT
HETATM    1  C3  UNL     1      19.927  12.175  57.267  1.00  0.00     0.121 C 
HETATM    2  C4  UNL     1      18.620  12.254  57.979  1.00  0.00     0.277 C 
HETATM    3  N1  UNL     1      17.884  11.059  58.106  1.00  0.00    -0.069 N 
HETATM    4  C5  UNL     1      16.466  11.400  58.180  1.00  0.00     0.272 C 
HETATM    5  C6  UNL     1      18.187  10.360  59.361  1.00  0.00     0.272 C 
HETATM    6  C7  UNL     1      18.029  10.101  57.050  1.00  0.00     0.270 C 
HETATM    7  C8  UNL     1      19.443   9.918  56.595  1.00  0.00     0.176 C 
HETATM    8  C9  UNL     1      19.857  11.290  56.041  1.00  0.00     0.185 C 
ENDROOT
BRANCH   1   9
HETATM    9  C2  UNL     1      20.309  13.562  56.799  1.00  0.00     0.150 C 
BRANCH   9  10
HETATM   10  S1  UNL     1      21.539  14.347  57.760  1.00  0.00     0.013 S 
HETATM   11  C1  UNL     1      20.965  15.233  59.146  1.00  0.00     0.127 C 
HETATM   12  O1  UNL     1      22.910  13.453  58.007  1.00  0.00    -0.258 OA
ENDBRANCH   9  10
ENDBRANCH   1   9
BRANCH   1  13
HETATM   13  O2  UNL     1      20.904  11.647  58.097  1.00  0.00    -0.385 OA
ATOM     14  H2  UNL     1      21.528  11.131  57.599  1.00  0.00     0.210 HD
ENDBRANCH   1  13
BRANCH   8  15
HETATM   15  O4  UNL     1      18.842  11.673  55.177  1.00  0.00    -0.390 OA
ATOM     16  H4  UNL     1      19.176  12.126  54.412  1.00  0.00     0.210 HD
ENDBRANCH   8  15
BRANCH   7  17
HETATM   17  O3  UNL     1      19.541   8.926  55.663  1.00  0.00    -0.391 OA
ATOM     18  H3  UNL     1      19.705   9.280  54.797  1.00  0.00     0.210 HD
ENDBRANCH   7  17
TORSDOF 5
ENDMDL
MODEL 3
REMARK VINA RESULT: -3.296665935      1.029      1.029
REMARK  5 active torsions:
REMARK  status: ('A' for Active; 'I' for Inactive)
REMARK    1  A    between atoms: S1_2  and  C2_4 
REMARK    2  A    between atoms: C2_4  and  C3_5 
REMARK    3  A    between atoms: C3_5  and  O2_6 
REMARK    4  A    between atoms: C8_13  and  O3_14 
REMARK    5  A    between atoms: C9_16  and  O4_17 
ROOT
HETATM    1  C3  UNL     1      19.419  12.836  57.312  1.00  0.00     0.121 C 
HETATM    2  C4  UNL     1      19.982  11.472  57.521  1.00  0.00     0.277 C 
HETATM    3  N1  UNL     1      19.077  10.392  57.500  1.00  0.00    -0.069 N 
HETATM    4  C5  UNL     1      19.615   9.327  58.341  1.00  0.00     0.272 C 
HETATM    5  C6  UNL     1      18.950   9.810  56.159  1.00  0.00     0.272 C 
HETATM    6  C7  UNL     1      17.748  10.661  57.965  1.00  0.00     0.270 C 
HETATM    7  C8  UNL     1      17.187  11.955  57.467  1.00  0.00     0.176 C 
HETATM    8  C9  UNL     1      18.112  13.034  58.051  1.00  0.00     0.185 C 
ENDROOT
BRANCH   1   9
HETATM    9  C2  UNL     1      20.399  13.854  57.852  1.00  0.00     0.150 C 
BRANCH   9  10
HETATM   10  S1  UNL     1      21.950  13.876  57.047  1.00  0.00     0.013 S 
HETATM   11  C1  UNL     1      22.269  15.276  56.059  1.00  0.00     0.127 C 
HETATM   12  O1  UNL     1      23.222  13.349  57.964  1.00  0.00    -0.258 OA
ENDBRANCH   9  10
ENDBRANCH   1   9
BRANCH   1  13
HETATM   13  O2  UNL     1      19.165  13.058  55.967  1.00  0.00    -0.385 OA
ATOM     14  H2  UNL     1      19.902  12.783  55.434  1.00  0.00     0.210 HD
ENDBRANCH   1  13
BRANCH   8  15
HETATM   15  O4  UNL     1      18.227  12.745  59.403  1.00  0.00    -0.390 OA
ATOM     16  H4  UNL     1      17.695  13.322  59.938  1.00  0.00     0.210 HD
ENDBRANCH   8  15
BRANCH   7  17
HETATM   17  O3  UNL     1      15.887  12.115  57.853  1.00  0.00    -0.391 OA
ATOM     18  H3  UNL     1      15.829  12.509  58.715  1.00  0.00     0.210 HD
ENDBRANCH   7  17
TORSDOF 5
ENDMDL
MODEL 4
REMARK VINA RESULT: -3.212660685      1.157      1.157
REMARK  5 active torsions:
REMARK  status: ('A' for Active; 'I' for Inactive)
REMARK    1  A    between atoms: S1_2  and  C2_4 
REMARK    2  A    between atoms: C2_4  and  C3_5 
REMARK    3  A    between atoms: C3_5  and  O2_6 
REMARK    4  A    between atoms: C8_13  and  O3_14 
REMARK    5  A    between atoms: C9_16  and  O4_17 
ROOT
HETATM    1  C3  UNL     1      19.620  12.763  57.275  1.00  0.00     0.121 C 
HETATM    2  C4  UNL     1      20.178  11.404  57.522  1.00  0.00     0.277 C 
HETATM    3  N1  UNL     1      19.280  10.320  57.471  1.00  0.00    -0.069 N 
HETATM    4  C5  UNL     1      19.784   9.265  58.345  1.00  0.00     0.272 C 
HETATM    5  C6  UNL     1      19.216   9.725  56.130  1.00  0.00     0.272 C 
HETATM    6  C7  UNL     1      17.930  10.586  57.873  1.00  0.00     0.270 C 
HETATM    7  C8  UNL     1      17.386  11.874  57.336  1.00  0.00     0.176 C 
HETATM    8  C9  UNL     1      18.280  12.962  57.952  1.00  0.00     0.185 C 
ENDROOT
BRANCH   1   9
HETATM    9  C2  UNL     1      20.570  13.791  57.849  1.00  0.00     0.150 C 
BRANCH   9  10
HETATM   10  S1  UNL     1      21.964  14.136  56.853  1.00  0.00     0.013 S 
HETATM   11  C1  UNL     1      23.198  12.906  56.828  1.00  0.00     0.127 C 
HETATM   12  O1  UNL     1      21.625  14.831  55.391  1.00  0.00    -0.258 OA
ENDBRANCH   9  10
ENDBRANCH   1   9
BRANCH   1  13
HETATM   13  O2  UNL     1      19.426  12.972  55.918  1.00  0.00    -0.385 OA
ATOM     14  H2  UNL     1      18.605  12.591  55.630  1.00  0.00     0.210 HD
ENDBRANCH   1  13
BRANCH   8  15
HETATM   15  O4  UNL     1      18.334  12.687  59.310  1.00  0.00    -0.390 OA
ATOM     16  H4  UNL     1      17.487  12.436  59.658  1.00  0.00     0.210 HD
ENDBRANCH   8  15
BRANCH   7  17
HETATM   17  O3  UNL     1      16.070  12.031  57.661  1.00  0.00    -0.391 OA
ATOM     18  H3  UNL     1      15.709  11.236  58.034  1.00  0.00     0.210 HD
ENDBRANCH   7  17
TORSDOF 5
ENDMDL
MODEL 5
REMARK VINA RESULT: -3.193421451      1.523      1.587
REMARK  5 active torsions:
REMARK  status: ('A' for Active; 'I' for Inactive)
REMARK    1  A    between atoms: S1_2  and  C2_4 
REMARK    2  A    between atoms: C2_4  and  C3_5 
REMARK    3  A    between atoms: C3_5  and  O2_6 
REMARK    4  A    between atoms: C8_13  and  O3_14 
REMARK    5  A    between atoms: C9_16  and  O4_17 
ROOT
HETATM    1  C3  UNL     1      20.018  12.576  57.370  1.00  0.00     0.121 C 
HETATM    2  C4  UNL     1      20.416  11.154  57.570  1.00  0.00     0.277 C 
HETATM    3  N1  UNL     1      19.439  10.171  57.316  1.00  0.00    -0.069 N 
HETATM    4  C5  UNL     1      19.728   9.011  58.154  1.00  0.00     0.272 C 
HETATM    5  C6  UNL     1      19.501   9.683  55.933  1.00  0.00     0.272 C 
HETATM    6  C7  UNL     1      18.078  10.540  57.567  1.00  0.00     0.270 C 
HETATM    7  C8  UNL     1      17.726  11.910  57.077  1.00  0.00     0.176 C 
HETATM    8  C9  UNL     1      18.624  12.857  57.888  1.00  0.00     0.185 C 
ENDROOT
BRANCH   1   9
HETATM    9  C2  UNL     1      20.972  13.461  58.142  1.00  0.00     0.150 C 
BRANCH   9  10
HETATM   10  S1  UNL     1      21.237  15.040  57.441  1.00  0.00     0.013 S 
HETATM   11  C1  UNL     1      21.685  16.299  58.558  1.00  0.00     0.127 C 
HETATM   12  O1  UNL     1      22.060  15.038  56.005  1.00  0.00    -0.258 OA
ENDBRANCH   9  10
ENDBRANCH   1   9
BRANCH   1  13
HETATM   13  O2  UNL     1      20.025  12.901  56.022  1.00  0.00    -0.385 OA
ATOM     14  H2  UNL     1      19.792  13.813  55.892  1.00  0.00     0.210 HD
ENDBRANCH   1  13
BRANCH   8  15
HETATM   15  O4  UNL     1      18.473  12.481  59.215  1.00  0.00    -0.390 OA
ATOM     16  H4  UNL     1      17.668  12.000  59.361  1.00  0.00     0.210 HD
ENDBRANCH   8  15
BRANCH   7  17
HETATM   17  O3  UNL     1      16.398  12.173  57.248  1.00  0.00    -0.391 OA
ATOM     18  H3  UNL     1      15.960  12.294  56.414  1.00  0.00     0.210 HD
ENDBRANCH   7  17
TORSDOF 5
ENDMDL
