MODEL 1
REMARK VINA RESULT: -4.558285297      0.000      0.000
REMARK  5 active torsions:
REMARK  status: ('A' for Active; 'I' for Inactive)
REMARK    1  A    between atoms: N1_2  and  C3_4 
REMARK    2  A    between atoms: C5_9  and  N3_10 
REMARK    3  A    between atoms: C6_14  and  N4_15 
REMARK    4  A    between atoms: N4_15  and  S1_17 
REMARK    5  A    between atoms: S1_17  and  N5_18 
ROOT
HETATM    1  C3  UNL     1      20.120  13.341  57.187  1.00  0.00     0.443 C 
HETATM    2  N2  UNL     1      19.823  14.278  58.284  1.00  0.00    -0.039 N 
ATOM      3  H21 UNL     1      19.705  15.241  57.968  1.00  0.00     0.279 HD
ATOM      4  H22 UNL     1      20.619  14.439  58.901  1.00  0.00     0.279 HD
HETATM    5  C4  UNL     1      18.663  13.762  58.977  1.00  0.00     0.270 C 
HETATM    6  C5  UNL     1      18.177  12.575  58.162  1.00  0.00     0.236 C 
HETATM    7  C6  UNL     1      19.549  12.084  57.651  1.00  0.00     0.190 C 
ENDROOT
BRANCH   7   8
HETATM    8  N4  UNL     1      19.346  10.996  56.839  1.00  0.00    -0.288 N 
HETATM    9  C7  UNL     1      18.812  11.300  55.555  1.00  0.00     0.165 C 
BRANCH   8  10
HETATM   10  S1  UNL     1      20.246   9.607  56.851  1.00  0.00     0.315 S 
HETATM   11  O1  UNL     1      19.700   8.707  57.969  1.00  0.00    -0.183 OA
HETATM   12  O2  UNL     1      20.202   8.733  55.646  1.00  0.00    -0.183 OA
BRANCH  10  13
HETATM   13  N5  UNL     1      21.907   9.896  57.334  1.00  0.00    -0.311 N 
ATOM     14  H52 UNL     1      22.708   9.553  56.804  1.00  0.00     0.170 HD
ATOM     15  H51 UNL     1      21.970  10.439  58.195  1.00  0.00     0.170 HD
ENDBRANCH  10  13
ENDBRANCH   8  10
ENDBRANCH   7   8
BRANCH   1  16
HETATM   16  N1  UNL     1      21.520  13.398  56.950  1.00  0.00     0.113 N 
HETATM   17  C1  UNL     1      21.807  14.671  56.285  1.00  0.00     0.312 C 
HETATM   18  C2  UNL     1      22.354  13.312  58.095  1.00  0.00     0.312 C 
ENDBRANCH   1  16
BRANCH   6  19
HETATM   19  N3  UNL     1      17.509  11.586  58.939  1.00  0.00    -0.071 N 
ATOM     20  H33 UNL     1      17.981  11.451  59.833  1.00  0.00     0.274 HD
ATOM     21  H32 UNL     1      16.611  11.936  59.272  1.00  0.00     0.274 HD
ATOM     22  H31 UNL     1      17.392  10.697  58.454  1.00  0.00     0.274 HD
ENDBRANCH   6  19
TORSDOF 5
ENDMDL
MODEL 2
REMARK VINA RESULT: -4.391904407      2.934      4.442
REMARK  5 active torsions:
REMARK  status: ('A' for Active; 'I' for Inactive)
REMARK    1  A    between atoms: N1_2  and  C3_4 
REMARK    2  A    between atoms: C5_9  and  N3_10 
REMARK    3  A    between atoms: C6_14  and  N4_15 
REMARK    4  A    between atoms: N4_15  and  S1_17 
REMARK    5  A    between atoms: S1_17  and  N5_18 
ROOT
HETATM    1  C3  UNL     1      18.785  11.514  57.211  1.00  0.00     0.443 C 
HETATM    2  N2  UNL     1      18.576  10.162  57.756  1.00  0.00    -0.039 N 
ATOM      3  H21 UNL     1      17.887   9.621  57.233  1.00  0.00     0.279 HD
ATOM      4  H22 UNL     1      18.089  10.162  58.652  1.00  0.00     0.279 HD
HETATM    5  C4  UNL     1      19.873   9.525  57.814  1.00  0.00     0.270 C 
HETATM    6  C5  UNL     1      20.843  10.478  57.135  1.00  0.00     0.236 C 
HETATM    7  C6  UNL     1      20.171  11.806  57.549  1.00  0.00     0.190 C 
ENDROOT
BRANCH   7   8
HETATM    8  N4  UNL     1      20.885  12.843  57.003  1.00  0.00    -0.288 N 
HETATM    9  C7  UNL     1      20.333  13.384  55.808  1.00  0.00     0.165 C 
BRANCH   8  10
HETATM   10  S1  UNL     1      21.787  13.941  57.852  1.00  0.00     0.315 S 
HETATM   11  O1  UNL     1      23.109  13.261  58.236  1.00  0.00    -0.183 OA
HETATM   12  O2  UNL     1      22.221  15.182  57.152  1.00  0.00    -0.183 OA
BRANCH  10  13
HETATM   13  N5  UNL     1      21.067  14.335  59.402  1.00  0.00    -0.311 N 
ATOM     14  H52 UNL     1      20.058  14.359  59.557  1.00  0.00     0.170 HD
ATOM     15  H51 UNL     1      21.768  14.533  60.115  1.00  0.00     0.170 HD
ENDBRANCH  10  13
ENDBRANCH   8  10
ENDBRANCH   7   8
BRANCH   1  16
HETATM   16  N1  UNL     1      17.770  12.349  57.750  1.00  0.00     0.113 N 
HETATM   17  C1  UNL     1      16.761  11.483  58.363  1.00  0.00     0.312 C 
HETATM   18  C2  UNL     1      18.185  13.287  58.732  1.00  0.00     0.312 C 
ENDBRANCH   1  16
BRANCH   6  19
HETATM   19  N3  UNL     1      22.176  10.376  57.623  1.00  0.00    -0.071 N 
ATOM     20  H33 UNL     1      22.341  11.054  58.367  1.00  0.00     0.274 HD
ATOM     21  H32 UNL     1      22.303   9.512  58.149  1.00  0.00     0.274 HD
ATOM     22  H31 UNL     1      22.885  10.463  56.894  1.00  0.00     0.274 HD
ENDBRANCH   6  19
TORSDOF 5
ENDMDL
MODEL 3
REMARK VINA RESULT: -4.153166847      1.919      3.442
REMARK  5 active torsions:
REMARK  status: ('A' for Active; 'I' for Inactive)
REMARK    1  A    between atoms: N1_2  and  C3_4 
REMARK    2  A    between atoms: C5_9  and  N3_10 
REMARK    3  A    between atoms: C6_14  and  N4_15 
REMARK    4  A    between atoms: N4_15  and  S1_17 
REMARK    5  A    between atoms: S1_17  and  N5_18 
ROOT
HETATM    1  C3  UNL     1      21.445  11.365  56.827  1.00  0.00     0.443 C 
HETATM    2  N2  UNL     1      22.658  12.069  57.276  1.00  0.00    -0.039 N 
ATOM      3  H21 UNL     1      23.365  12.157  56.545  1.00  0.00     0.279 HD
ATOM      4  H22 UNL     1      23.218  11.525  57.933  1.00  0.00     0.279 HD
HETATM    5  C4  UNL     1      22.233  13.344  57.811  1.00  0.00     0.270 C 
HETATM    6  C5  UNL     1      20.745  13.450  57.519  1.00  0.00     0.236 C 
HETATM    7  C6  UNL     1      20.391  11.951  57.644  1.00  0.00     0.190 C 
ENDROOT
BRANCH   7   8
HETATM    8  N4  UNL     1      19.053  11.798  57.382  1.00  0.00    -0.288 N 
HETATM    9  C7  UNL     1      18.656  12.169  56.066  1.00  0.00     0.165 C 
BRANCH   8  10
HETATM   10  S1  UNL     1      18.066  10.652  58.055  1.00  0.00     0.315 S 
HETATM   11  O1  UNL     1      17.383   9.894  56.907  1.00  0.00    -0.183 OA
HETATM   12  O2  UNL     1      18.697   9.570  58.861  1.00  0.00    -0.183 OA
BRANCH  10  13
HETATM   13  N5  UNL     1      16.724  11.363  58.931  1.00  0.00    -0.311 N 
ATOM     14  H52 UNL     1      16.674  11.387  59.949  1.00  0.00     0.170 HD
ATOM     15  H51 UNL     1      16.012  11.741  58.306  1.00  0.00     0.170 HD
ENDBRANCH  10  13
ENDBRANCH   8  10
ENDBRANCH   7   8
BRANCH   1  16
HETATM   16  N1  UNL     1      21.695   9.972  56.949  1.00  0.00     0.113 N 
HETATM   17  C1  UNL     1      20.691   9.269  56.148  1.00  0.00     0.312 C 
HETATM   18  C2  UNL     1      22.974   9.524  56.527  1.00  0.00     0.312 C 
ENDBRANCH   1  16
BRANCH   6  19
HETATM   19  N3  UNL     1      20.036  14.248  58.461  1.00  0.00    -0.071 N 
ATOM     20  H33 UNL     1      20.210  15.240  58.296  1.00  0.00     0.274 HD
ATOM     21  H32 UNL     1      19.034  14.218  58.276  1.00  0.00     0.274 HD
ATOM     22  H31 UNL     1      20.232  14.004  59.432  1.00  0.00     0.274 HD
ENDBRANCH   6  19
TORSDOF 5
ENDMDL
MODEL 4
REMARK VINA RESULT: -3.983582716      2.214      3.341
REMARK  5 active torsions:
REMARK  status: ('A' for Active; 'I' for Inactive)
REMARK    1  A    between atoms: N1_2  and  C3_4 
REMARK    2  A    between atoms: C5_9  and  N3_10 
REMARK    3  A    between atoms: C6_14  and  N4_15 
REMARK    4  A    between atoms: N4_15  and  S1_17 
REMARK    5  A    between atoms: S1_17  and  N5_18 
ROOT
HETATM    1  C3  UNL     1      21.394  11.456  56.917  1.00  0.00     0.443 C 
HETATM    2  N2  UNL     1      22.562  12.117  57.523  1.00  0.00    -0.039 N 
ATOM      3  H21 UNL     1      23.362  12.175  56.892  1.00  0.00     0.279 HD
ATOM      4  H22 UNL     1      23.009  11.557  58.248  1.00  0.00     0.279 HD
HETATM    5  C4  UNL     1      22.118  13.409  57.996  1.00  0.00     0.270 C 
HETATM    6  C5  UNL     1      20.687  13.568  57.510  1.00  0.00     0.236 C 
HETATM    7  C6  UNL     1      20.264  12.084  57.587  1.00  0.00     0.190 C 
ENDROOT
BRANCH   7   8
HETATM    8  N4  UNL     1      18.967  11.980  57.151  1.00  0.00    -0.288 N 
HETATM    9  C7  UNL     1      18.773  12.287  55.774  1.00  0.00     0.165 C 
BRANCH   8  10
HETATM   10  S1  UNL     1      17.836  10.925  57.741  1.00  0.00     0.315 S 
HETATM   11  O1  UNL     1      16.622  11.749  58.195  1.00  0.00    -0.183 OA
HETATM   12  O2  UNL     1      17.250   9.928  56.802  1.00  0.00    -0.183 OA
BRANCH  10  13
HETATM   13  N5  UNL     1      18.369  10.137  59.214  1.00  0.00    -0.311 N 
ATOM     14  H52 UNL     1      17.733   9.882  59.970  1.00  0.00     0.170 HD
ATOM     15  H51 UNL     1      19.374   9.968  59.220  1.00  0.00     0.170 HD
ENDBRANCH  10  13
ENDBRANCH   8  10
ENDBRANCH   7   8
BRANCH   1  16
HETATM   16  N1  UNL     1      21.573  10.055  57.072  1.00  0.00     0.113 N 
HETATM   17  C1  UNL     1      20.536   9.385  56.285  1.00  0.00     0.312 C 
HETATM   18  C2  UNL     1      22.828   9.534  56.663  1.00  0.00     0.312 C 
ENDBRANCH   1  16
BRANCH   6  19
HETATM   19  N3  UNL     1      19.889  14.398  58.349  1.00  0.00    -0.071 N 
ATOM     20  H33 UNL     1      19.096  14.777  57.832  1.00  0.00     0.274 HD
ATOM     21  H32 UNL     1      19.391  13.838  59.040  1.00  0.00     0.274 HD
ATOM     22  H31 UNL     1      20.416  15.146  58.801  1.00  0.00     0.274 HD
ENDBRANCH   6  19
TORSDOF 5
ENDMDL
MODEL 5
REMARK VINA RESULT: -3.772083658      2.628      3.823
REMARK  5 active torsions:
REMARK  status: ('A' for Active; 'I' for Inactive)
REMARK    1  A    between atoms: N1_2  and  C3_4 
REMARK    2  A    between atoms: C5_9  and  N3_10 
REMARK    3  A    between atoms: C6_14  and  N4_15 
REMARK    4  A    between atoms: N4_15  and  S1_17 
REMARK    5  A    between atoms: S1_17  and  N5_18 
ROOT
HETATM    1  C3  UNL     1      21.221  11.325  57.733  1.00  0.00     0.443 C 
HETATM    2  N2  UNL     1      22.331  10.844  56.894  1.00  0.00    -0.039 N 
ATOM      3  H21 UNL     1      23.219  10.794  57.393  1.00  0.00     0.279 HD
ATOM      4  H22 UNL     1      22.618  11.517  56.184  1.00  0.00     0.279 HD
HETATM    5  C4  UNL     1      21.920   9.573  56.339  1.00  0.00     0.270 C 
HETATM    6  C5  UNL     1      20.596   9.230  57.001  1.00  0.00     0.236 C 
HETATM    7  C6  UNL     1      20.054  10.668  57.161  1.00  0.00     0.190 C 
ENDROOT
BRANCH   7   8
HETATM    8  N4  UNL     1      18.834  10.604  57.787  1.00  0.00    -0.288 N 
HETATM    9  C7  UNL     1      18.785   9.733  58.912  1.00  0.00     0.165 C 
BRANCH   8  10
HETATM   10  S1  UNL     1      17.734  11.838  57.879  1.00  0.00     0.315 S 
HETATM   11  O1  UNL     1      17.639  12.481  56.488  1.00  0.00    -0.183 OA
HETATM   12  O2  UNL     1      16.322  11.495  58.203  1.00  0.00    -0.183 OA
BRANCH  10  13
HETATM   13  N5  UNL     1      18.294  13.150  58.899  1.00  0.00    -0.311 N 
ATOM     14  H52 UNL     1      18.973  13.021  59.649  1.00  0.00     0.170 HD
ATOM     15  H51 UNL     1      17.863  14.041  58.653  1.00  0.00     0.170 HD
ENDBRANCH  10  13
ENDBRANCH   8  10
ENDBRANCH   7   8
BRANCH   1  16
HETATM   16  N1  UNL     1      21.266  12.745  57.722  1.00  0.00     0.113 N 
HETATM   17  C1  UNL     1      22.661  13.146  57.916  1.00  0.00     0.312 C 
HETATM   18  C2  UNL     1      20.796  13.379  56.542  1.00  0.00     0.312 C 
ENDBRANCH   1  16
BRANCH   6  19
HETATM   19  N3  UNL     1      19.747   8.423  56.192  1.00  0.00    -0.071 N 
ATOM     20  H33 UNL     1      18.982   8.038  56.745  1.00  0.00     0.274 HD
ATOM     21  H32 UNL     1      19.213   9.001  55.543  1.00  0.00     0.274 HD
ATOM     22  H31 UNL     1      20.241   7.683  55.694  1.00  0.00     0.274 HD
ENDBRANCH   6  19
TORSDOF 5
ENDMDL
