MODEL 1
REMARK VINA RESULT: -4.557228730      0.000      0.000
REMARK  5 active torsions:
REMARK  status: ('A' for Active; 'I' for Inactive)
REMARK    1  A    between atoms: S1_2  and  C2_4 
REMARK    2  A    between atoms: C2_4  and  C3_5 
REMARK    3  A    between atoms: C4_9  and  N2_10 
REMARK    4  A    between atoms: C8_16  and  O2_17 
REMARK    5  A    between atoms: C9_19  and  O3_20 
ROOT
HETATM    1  C3  UNL     1      20.341  12.050  57.472  1.00  0.00     0.231 C 
HETATM    2  N1  UNL     1      19.982  13.232  56.683  1.00  0.00    -0.044 N 
ATOM      3  H11 UNL     1      19.156  13.723  57.025  1.00  0.00     0.280 HD
ATOM      4  H12 UNL     1      19.614  13.015  55.756  1.00  0.00     0.280 HD
HETATM    5  C4  UNL     1      21.187  14.048  56.661  1.00  0.00     0.323 C 
HETATM    6  C8  UNL     1      22.321  13.077  56.648  1.00  0.00     0.199 C 
HETATM    7  C9  UNL     1      21.799  11.850  57.393  1.00  0.00     0.182 C 
ENDROOT
BRANCH   5   8
HETATM    8  N2  UNL     1      21.192  14.975  57.748  1.00  0.00    -0.321 N 
HETATM    9  C5  UNL     1      21.948  16.081  57.856  1.00  0.00     0.111 A 
HETATM   10  C6  UNL     1      21.634  16.677  59.059  1.00  0.00     0.106 A 
HETATM   11  N3  UNL     1      20.695  15.933  59.669  1.00  0.00    -0.361 N 
HETATM   12  C7  UNL     1      20.427  14.884  58.854  1.00  0.00     0.184 A 
ATOM     13  H3  UNL     1      20.264  16.122  60.574  1.00  0.00     0.166 HD
ENDBRANCH   5   8
BRANCH   6  14
HETATM   14  O2  UNL     1      23.453  13.507  57.306  1.00  0.00    -0.389 OA
ATOM     15  H2  UNL     1      23.286  14.010  58.094  1.00  0.00     0.210 HD
ENDBRANCH   6  14
BRANCH   1  16
HETATM   16  C2  UNL     1      19.579  10.855  57.011  1.00  0.00     0.144 C 
BRANCH  16  17
HETATM   17  S1  UNL     1      17.957  10.741  57.560  1.00  0.00     0.013 S 
HETATM   18  C1  UNL     1      17.593   9.987  59.066  1.00  0.00     0.127 C 
HETATM   19  O1  UNL     1      17.039  12.109  57.356  1.00  0.00    -0.258 OA
ENDBRANCH  16  17
ENDBRANCH   1  16
BRANCH   7  20
HETATM   20  O3  UNL     1      22.323  11.855  58.695  1.00  0.00    -0.391 OA
ATOM     21  H3  UNL     1      23.272  11.837  58.640  1.00  0.00     0.210 HD
ENDBRANCH   7  20
TORSDOF 5
ENDMDL
MODEL 2
REMARK VINA RESULT: -4.407709935      1.997      2.114
REMARK  5 active torsions:
REMARK  status: ('A' for Active; 'I' for Inactive)
REMARK    1  A    between atoms: S1_2  and  C2_4 
REMARK    2  A    between atoms: C2_4  and  C3_5 
REMARK    3  A    between atoms: C4_9  and  N2_10 
REMARK    4  A    between atoms: C8_16  and  O2_17 
REMARK    5  A    between atoms: C9_19  and  O3_20 
ROOT
HETATM    1  C3  UNL     1      21.793  11.874  57.623  1.00  0.00     0.231 C 
HETATM    2  N1  UNL     1      20.409  12.356  57.585  1.00  0.00    -0.044 N 
ATOM      3  H11 UNL     1      19.942  12.343  58.492  1.00  0.00     0.280 HD
ATOM      4  H12 UNL     1      19.764  11.723  57.112  1.00  0.00     0.280 HD
HETATM    5  C4  UNL     1      20.489  13.676  56.980  1.00  0.00     0.323 C 
HETATM    6  C8  UNL     1      21.602  13.590  55.988  1.00  0.00     0.199 C 
HETATM    7  C9  UNL     1      22.561  12.549  56.561  1.00  0.00     0.182 C 
ENDROOT
BRANCH   5   8
HETATM    8  N2  UNL     1      20.642  14.685  57.979  1.00  0.00    -0.321 N 
HETATM    9  C5  UNL     1      21.470  15.743  57.932  1.00  0.00     0.111 A 
HETATM   10  C6  UNL     1      21.295  16.453  59.102  1.00  0.00     0.106 A 
HETATM   11  N3  UNL     1      20.368  15.824  59.845  1.00  0.00    -0.361 N 
HETATM   12  C7  UNL     1      19.969  14.734  59.147  1.00  0.00     0.184 A 
ATOM     13  H3  UNL     1      20.028  16.113  60.762  1.00  0.00     0.166 HD
ENDBRANCH   5   8
BRANCH   6  14
HETATM   14  O2  UNL     1      22.315  14.757  55.821  1.00  0.00    -0.389 OA
ATOM     15  H2  UNL     1      23.225  14.707  56.088  1.00  0.00     0.210 HD
ENDBRANCH   6  14
BRANCH   1  16
HETATM   16  C2  UNL     1      21.840  10.389  57.501  1.00  0.00     0.144 C 
BRANCH  16  17
HETATM   17  S1  UNL     1      20.372   9.625  57.051  1.00  0.00     0.013 S 
HETATM   18  C1  UNL     1      20.276   8.693  55.606  1.00  0.00     0.127 C 
HETATM   19  O1  UNL     1      19.555   8.873  58.285  1.00  0.00    -0.258 OA
ENDBRANCH  16  17
ENDBRANCH   1  16
BRANCH   7  20
HETATM   20  O3  UNL     1      23.650  13.212  57.148  1.00  0.00    -0.391 OA
ATOM     21  H3  UNL     1      23.658  14.112  56.842  1.00  0.00     0.210 HD
ENDBRANCH   7  20
TORSDOF 5
ENDMDL
MODEL 3
REMARK VINA RESULT: -3.515532849      2.834      5.396
REMARK  5 active torsions:
REMARK  status: ('A' for Active; 'I' for Inactive)
REMARK    1  A    between atoms: S1_2  and  C2_4 
REMARK    2  A    between atoms: C2_4  and  C3_5 
REMARK    3  A    between atoms: C4_9  and  N2_10 
REMARK    4  A    between atoms: C8_16  and  O2_17 
REMARK    5  A    between atoms: C9_19  and  O3_20 
ROOT
HETATM    1  C3  UNL     1      19.407  13.284  58.283  1.00  0.00     0.231 C 
HETATM    2  N1  UNL     1      20.093  13.167  56.993  1.00  0.00    -0.044 N 
ATOM      3  H11 UNL     1      21.104  13.056  57.071  1.00  0.00     0.280 HD
ATOM      4  H12 UNL     1      20.111  14.034  56.454  1.00  0.00     0.280 HD
HETATM    5  C4  UNL     1      19.428  12.065  56.314  1.00  0.00     0.323 C 
HETATM    6  C8  UNL     1      18.001  12.139  56.745  1.00  0.00     0.199 C 
HETATM    7  C9  UNL     1      18.043  12.743  58.147  1.00  0.00     0.182 C 
ENDROOT
BRANCH   5   8
HETATM    8  N2  UNL     1      20.085  10.828  56.592  1.00  0.00    -0.321 N 
HETATM    9  C5  UNL     1      19.709   9.607  56.171  1.00  0.00     0.111 A 
HETATM   10  C6  UNL     1      20.623   8.702  56.670  1.00  0.00     0.106 A 
HETATM   11  N3  UNL     1      21.540   9.376  57.385  1.00  0.00    -0.361 N 
HETATM   12  C7  UNL     1      21.202  10.687  57.333  1.00  0.00     0.184 A 
ATOM     13  H3  UNL     1      22.341   8.976  57.874  1.00  0.00     0.166 HD
ENDBRANCH   5   8
BRANCH   6  14
HETATM   14  O2  UNL     1      17.366  10.919  56.842  1.00  0.00    -0.389 OA
ATOM     15  H2  UNL     1      16.582  10.838  56.312  1.00  0.00     0.210 HD
ENDBRANCH   6  14
BRANCH   1  16
HETATM   16  C2  UNL     1      19.412  14.696  58.759  1.00  0.00     0.144 C 
BRANCH  16  17
HETATM   17  S1  UNL     1      20.946  15.462  58.825  1.00  0.00     0.013 S 
HETATM   18  C1  UNL     1      21.930  15.575  57.415  1.00  0.00     0.127 C 
HETATM   19  O1  UNL     1      20.997  16.880  59.686  1.00  0.00    -0.258 OA
ENDBRANCH  16  17
ENDBRANCH   1  16
BRANCH   7  20
HETATM   20  O3  UNL     1      17.873  11.715  59.087  1.00  0.00    -0.391 OA
ATOM     21  H3  UNL     1      17.039  11.840  59.526  1.00  0.00     0.210 HD
ENDBRANCH   7  20
TORSDOF 5
ENDMDL
MODEL 4
REMARK VINA RESULT: -3.506611790      2.470      5.594
REMARK  5 active torsions:
REMARK  status: ('A' for Active; 'I' for Inactive)
REMARK    1  A    between atoms: S1_2  and  C2_4 
REMARK    2  A    between atoms: C2_4  and  C3_5 
REMARK    3  A    between atoms: C4_9  and  N2_10 
REMARK    4  A    between atoms: C8_16  and  O2_17 
REMARK    5  A    between atoms: C9_19  and  O3_20 
ROOT
HETATM    1  C3  UNL     1      19.484  13.239  58.227  1.00  0.00     0.231 C 
HETATM    2  N1  UNL     1      20.023  12.906  56.905  1.00  0.00    -0.044 N 
ATOM      3  H11 UNL     1      20.998  12.609  56.919  1.00  0.00     0.280 HD
ATOM      4  H12 UNL     1      20.156  13.715  56.297  1.00  0.00     0.280 HD
HETATM    5  C4  UNL     1      19.109  11.910  56.367  1.00  0.00     0.323 C 
HETATM    6  C8  UNL     1      17.763  12.286  56.892  1.00  0.00     0.199 C 
HETATM    7  C9  UNL     1      18.036  12.963  58.233  1.00  0.00     0.182 C 
ENDROOT
BRANCH   5   8
HETATM    8  N2  UNL     1      19.544  10.591  56.698  1.00  0.00    -0.321 N 
HETATM    9  C5  UNL     1      18.798   9.473  56.687  1.00  0.00     0.111 A 
HETATM   10  C6  UNL     1      19.615   8.430  57.073  1.00  0.00     0.106 A 
HETATM   11  N3  UNL     1      20.843   8.921  57.312  1.00  0.00    -0.361 N 
HETATM   12  C7  UNL     1      20.793  10.254  57.079  1.00  0.00     0.184 A 
ATOM     13  H3  UNL     1      21.660   8.389  57.613  1.00  0.00     0.166 HD
ENDBRANCH   5   8
BRANCH   6  14
HETATM   14  O2  UNL     1      16.922  11.220  57.133  1.00  0.00    -0.389 OA
ATOM     15  H2  UNL     1      16.853  10.969  58.046  1.00  0.00     0.210 HD
ENDBRANCH   6  14
BRANCH   1  16
HETATM   16  C2  UNL     1      19.793  14.652  58.584  1.00  0.00     0.144 C 
BRANCH  16  17
HETATM   17  S1  UNL     1      21.346  15.221  58.128  1.00  0.00     0.013 S 
HETATM   18  C1  UNL     1      21.906  16.761  58.658  1.00  0.00     0.127 C 
HETATM   19  O1  UNL     1      22.566  14.098  58.208  1.00  0.00    -0.258 OA
ENDBRANCH  16  17
ENDBRANCH   1  16
BRANCH   7  20
HETATM   20  O3  UNL     1      17.758  12.051  59.264  1.00  0.00    -0.391 OA
ATOM     21  H3  UNL     1      17.115  11.426  58.951  1.00  0.00     0.210 HD
ENDBRANCH   7  20
TORSDOF 5
ENDMDL
MODEL 5
REMARK VINA RESULT: -3.089724526      2.742      5.388
REMARK  5 active torsions:
REMARK  status: ('A' for Active; 'I' for Inactive)
REMARK    1  A    between atoms: S1_2  and  C2_4 
REMARK    2  A    between atoms: C2_4  and  C3_5 
REMARK    3  A    between atoms: C4_9  and  N2_10 
REMARK    4  A    between atoms: C8_16  and  O2_17 
REMARK    5  A    between atoms: C9_19  and  O3_20 
ROOT
HETATM    1  C3  UNL     1      20.946  13.071  57.984  1.00  0.00     0.231 C 
HETATM    2  N1  UNL     1      21.282  11.914  57.150  1.00  0.00    -0.044 N 
ATOM      3  H11 UNL     1      21.853  11.214  57.624  1.00  0.00     0.280 HD
ATOM      4  H12 UNL     1      21.947  12.121  56.404  1.00  0.00     0.280 HD
HETATM    5  C4  UNL     1      20.003  11.409  56.676  1.00  0.00     0.323 C 
HETATM    6  C8  UNL     1      19.141  12.616  56.505  1.00  0.00     0.199 C 
HETATM    7  C9  UNL     1      19.649  13.614  57.543  1.00  0.00     0.182 C 
ENDROOT
BRANCH   5   8
HETATM    8  N2  UNL     1      19.489  10.415  57.564  1.00  0.00    -0.321 N 
HETATM    9  C5  UNL     1      18.411  10.530  58.360  1.00  0.00     0.111 A 
HETATM   10  C6  UNL     1      18.278   9.340  59.044  1.00  0.00     0.106 A 
HETATM   11  N3  UNL     1      19.269   8.517  58.660  1.00  0.00    -0.361 N 
HETATM   12  C7  UNL     1      20.012   9.187  57.747  1.00  0.00     0.184 A 
ATOM     13  H3  UNL     1      19.431   7.566  58.993  1.00  0.00     0.166 HD
ENDBRANCH   5   8
BRANCH   6  14
HETATM   14  O2  UNL     1      17.802  12.407  56.756  1.00  0.00    -0.389 OA
ATOM     15  H2  UNL     1      17.217  13.014  56.318  1.00  0.00     0.210 HD
ENDBRANCH   6  14
BRANCH   1  16
HETATM   16  C2  UNL     1      22.032  14.090  57.938  1.00  0.00     0.144 C 
BRANCH  16  17
HETATM   17  S1  UNL     1      21.528  15.729  57.993  1.00  0.00     0.013 S 
HETATM   18  C1  UNL     1      20.759  16.362  59.400  1.00  0.00     0.127 C 
HETATM   19  O1  UNL     1      22.609  16.827  57.376  1.00  0.00    -0.258 OA
ENDBRANCH  16  17
ENDBRANCH   1  16
BRANCH   7  20
HETATM   20  O3  UNL     1      18.768  13.615  58.637  1.00  0.00    -0.391 OA
ATOM     21  H3  UNL     1      18.536  12.716  58.840  1.00  0.00     0.210 HD
ENDBRANCH   7  20
TORSDOF 5
ENDMDL
