MODEL 1
REMARK VINA RESULT: -5.753082210      0.000      0.000
REMARK  5 active torsions:
REMARK  status: ('A' for Active; 'I' for Inactive)
REMARK    1  A    between atoms: O1_2  and  C2_3 
REMARK    2  A    between atoms: C4_5  and  N1_6 
REMARK    3  A    between atoms: N1_6  and  S1_8 
REMARK    4  A    between atoms: S1_8  and  N2_9 
REMARK    5  A    between atoms: C8_17  and  O4_18 
ROOT
HETATM    1  C2  UNL     1      20.488  10.227  56.923  1.00  0.00     0.152 C 
HETATM    2  C3  UNL     1      21.189  11.528  56.662  1.00  0.00     0.061 C 
HETATM    3  C4  UNL     1      20.408  12.527  57.491  1.00  0.00     0.107 C 
HETATM    4  C5  UNL     1      19.015  11.994  57.382  1.00  0.00     0.002 C 
HETATM    5  C6  UNL     1      18.054  12.665  58.328  1.00  0.00     0.020 C 
HETATM    6  C7  UNL     1      18.480  12.073  55.976  1.00  0.00     0.020 C 
HETATM    7  C8  UNL     1      19.254  10.542  57.740  1.00  0.00     0.157 C 
ENDROOT
BRANCH   3   8
HETATM    8  N1  UNL     1      20.557  13.875  57.008  1.00  0.00    -0.297 N 
ATOM      9  H1  UNL     1      20.126  14.273  56.173  1.00  0.00     0.174 HD
BRANCH   8  10
HETATM   10  S1  UNL     1      21.609  14.690  58.113  1.00  0.00     0.313 S 
HETATM   11  O2  UNL     1      22.861  13.882  58.283  1.00  0.00    -0.183 OA
HETATM   12  O3  UNL     1      21.993  15.995  57.460  1.00  0.00    -0.183 OA
BRANCH  10  13
HETATM   13  N2  UNL     1      20.881  14.918  59.640  1.00  0.00    -0.312 N 
ATOM     14  H22 UNL     1      20.021  14.450  59.922  1.00  0.00     0.170 HD
ATOM     15  H21 UNL     1      21.407  15.570  60.222  1.00  0.00     0.170 HD
ENDBRANCH  10  13
ENDBRANCH   8  10
ENDBRANCH   3   8
BRANCH   1  16
HETATM   16  O1  UNL     1      21.339   9.430  57.678  1.00  0.00    -0.388 OA
HETATM   17  C1  UNL     1      22.569   9.399  57.026  1.00  0.00     0.202 C 
ENDBRANCH   1  16
BRANCH   7  18
HETATM   18  O4  UNL     1      18.187   9.734  57.372  1.00  0.00    -0.392 OA
ATOM     19  H4  UNL     1      17.873   9.221  58.109  1.00  0.00     0.210 HD
ENDBRANCH   7  18
TORSDOF 5
ENDMDL
MODEL 2
REMARK VINA RESULT: -5.272960933      1.036      1.178
REMARK  5 active torsions:
REMARK  status: ('A' for Active; 'I' for Inactive)
REMARK    1  A    between atoms: O1_2  and  C2_3 
REMARK    2  A    between atoms: C4_5  and  N1_6 
REMARK    3  A    between atoms: N1_6  and  S1_8 
REMARK    4  A    between atoms: S1_8  and  N2_9 
REMARK    5  A    between atoms: C8_17  and  O4_18 
ROOT
HETATM    1  C2  UNL     1      20.800  10.439  56.822  1.00  0.00     0.152 C 
HETATM    2  C3  UNL     1      21.214  11.876  56.947  1.00  0.00     0.061 C 
HETATM    3  C4  UNL     1      20.141  12.481  57.828  1.00  0.00     0.107 C 
HETATM    4  C5  UNL     1      18.924  11.727  57.395  1.00  0.00     0.002 C 
HETATM    5  C6  UNL     1      17.738  11.957  58.294  1.00  0.00     0.020 C 
HETATM    6  C7  UNL     1      18.543  12.025  55.969  1.00  0.00     0.020 C 
HETATM    7  C8  UNL     1      19.445  10.307  57.482  1.00  0.00     0.157 C 
ENDROOT
BRANCH   3   8
HETATM    8  N1  UNL     1      20.034  13.908  57.660  1.00  0.00    -0.297 N 
ATOM      9  H1  UNL     1      19.249  14.414  57.249  1.00  0.00     0.174 HD
BRANCH   8  10
HETATM   10  S1  UNL     1      21.490  14.597  58.289  1.00  0.00     0.313 S 
HETATM   11  O2  UNL     1      21.969  15.667  57.352  1.00  0.00    -0.183 OA
HETATM   12  O3  UNL     1      21.123  15.263  59.592  1.00  0.00    -0.183 OA
BRANCH  10  13
HETATM   13  N2  UNL     1      22.721  13.431  58.479  1.00  0.00    -0.312 N 
ATOM     14  H22 UNL     1      23.291  13.092  57.705  1.00  0.00     0.170 HD
ATOM     15  H21 UNL     1      22.811  13.123  59.447  1.00  0.00     0.170 HD
ENDBRANCH  10  13
ENDBRANCH   8  10
ENDBRANCH   3   8
BRANCH   1  16
HETATM   16  O1  UNL     1      21.721   9.671  57.524  1.00  0.00    -0.388 OA
HETATM   17  C1  UNL     1      22.750   9.347  56.644  1.00  0.00     0.202 C 
ENDBRANCH   1  16
BRANCH   7  18
HETATM   18  O4  UNL     1      18.635   9.413  56.794  1.00  0.00    -0.392 OA
ATOM     19  H4  UNL     1      17.895   9.856  56.394  1.00  0.00     0.210 HD
ENDBRANCH   7  18
TORSDOF 5
ENDMDL
MODEL 3
REMARK VINA RESULT: -5.128232130      2.457      4.169
REMARK  5 active torsions:
REMARK  status: ('A' for Active; 'I' for Inactive)
REMARK    1  A    between atoms: O1_2  and  C2_3 
REMARK    2  A    between atoms: C4_5  and  N1_6 
REMARK    3  A    between atoms: N1_6  and  S1_8 
REMARK    4  A    between atoms: S1_8  and  N2_9 
REMARK    5  A    between atoms: C8_17  and  O4_18 
ROOT
HETATM    1  C2  UNL     1      21.839  11.525  57.036  1.00  0.00     0.152 C 
HETATM    2  C3  UNL     1      20.453  12.067  56.842  1.00  0.00     0.061 C 
HETATM    3  C4  UNL     1      19.572  11.049  57.537  1.00  0.00     0.107 C 
HETATM    4  C5  UNL     1      20.296   9.772  57.256  1.00  0.00     0.002 C 
HETATM    5  C6  UNL     1      19.765   8.608  58.050  1.00  0.00     0.020 C 
HETATM    6  C7  UNL     1      20.298   9.425  55.790  1.00  0.00     0.020 C 
HETATM    7  C8  UNL     1      21.698  10.161  57.674  1.00  0.00     0.157 C 
ENDROOT
BRANCH   3   8
HETATM    8  N1  UNL     1      18.217  11.073  57.048  1.00  0.00    -0.297 N 
ATOM      9  H1  UNL     1      17.895  10.756  56.133  1.00  0.00     0.174 HD
BRANCH   8  10
HETATM   10  S1  UNL     1      17.241  11.740  58.310  1.00  0.00     0.313 S 
HETATM   11  O2  UNL     1      15.923  12.169  57.734  1.00  0.00    -0.183 OA
HETATM   12  O3  UNL     1      16.970  10.619  59.284  1.00  0.00    -0.183 OA
BRANCH  10  13
HETATM   13  N2  UNL     1      17.986  13.082  59.056  1.00  0.00    -0.312 N 
ATOM     14  H22 UNL     1      17.889  13.292  60.048  1.00  0.00     0.170 HD
ATOM     15  H21 UNL     1      18.531  13.635  58.394  1.00  0.00     0.170 HD
ENDBRANCH  10  13
ENDBRANCH   8  10
ENDBRANCH   3   8
BRANCH   1  16
HETATM   16  O1  UNL     1      22.505  12.370  57.915  1.00  0.00    -0.388 OA
HETATM   17  C1  UNL     1      22.243  13.677  57.515  1.00  0.00     0.202 C 
ENDBRANCH   1  16
BRANCH   7  18
HETATM   18  O4  UNL     1      22.651   9.276  57.187  1.00  0.00    -0.392 OA
ATOM     19  H4  UNL     1      22.709   9.320  56.239  1.00  0.00     0.210 HD
ENDBRANCH   7  18
TORSDOF 5
ENDMDL
MODEL 4
REMARK VINA RESULT: -4.942067662      2.599      4.969
REMARK  5 active torsions:
REMARK  status: ('A' for Active; 'I' for Inactive)
REMARK    1  A    between atoms: O1_2  and  C2_3 
REMARK    2  A    between atoms: C4_5  and  N1_6 
REMARK    3  A    between atoms: N1_6  and  S1_8 
REMARK    4  A    between atoms: S1_8  and  N2_9 
REMARK    5  A    between atoms: C8_17  and  O4_18 
ROOT
HETATM    1  C2  UNL     1      21.360  14.629  58.226  1.00  0.00     0.152 C 
HETATM    2  C3  UNL     1      20.020  14.321  57.626  1.00  0.00     0.061 C 
HETATM    3  C4  UNL     1      19.994  12.808  57.565  1.00  0.00     0.107 C 
HETATM    4  C5  UNL     1      21.425  12.488  57.267  1.00  0.00     0.002 C 
HETATM    5  C6  UNL     1      21.738  11.021  57.398  1.00  0.00     0.020 C 
HETATM    6  C7  UNL     1      21.851  12.978  55.909  1.00  0.00     0.020 C 
HETATM    7  C8  UNL     1      22.112  13.320  58.331  1.00  0.00     0.157 C 
ENDROOT
BRANCH   3   8
HETATM    8  N1  UNL     1      19.069  12.315  56.578  1.00  0.00    -0.297 N 
ATOM      9  H1  UNL     1      19.075  12.524  55.580  1.00  0.00     0.174 HD
BRANCH   8  10
HETATM   10  S1  UNL     1      17.943  11.300  57.411  1.00  0.00     0.313 S 
HETATM   11  O2  UNL     1      16.661  12.052  57.611  1.00  0.00    -0.183 OA
HETATM   12  O3  UNL     1      17.651  10.137  56.493  1.00  0.00    -0.183 OA
BRANCH  10  13
HETATM   13  N2  UNL     1      18.536  10.795  58.929  1.00  0.00    -0.312 N 
ATOM     14  H22 UNL     1      19.412  10.287  59.044  1.00  0.00     0.170 HD
ATOM     15  H21 UNL     1      17.913  11.062  59.692  1.00  0.00     0.170 HD
ENDBRANCH  10  13
ENDBRANCH   8  10
ENDBRANCH   3   8
BRANCH   1  16
HETATM   16  O1  UNL     1      21.148  15.132  59.503  1.00  0.00    -0.388 OA
HETATM   17  C1  UNL     1      20.914  16.499  59.379  1.00  0.00     0.202 C 
ENDBRANCH   1  16
BRANCH   7  18
HETATM   18  O4  UNL     1      23.463  13.492  58.063  1.00  0.00    -0.392 OA
ATOM     19  H4  UNL     1      23.990  13.349  58.841  1.00  0.00     0.210 HD
ENDBRANCH   7  18
TORSDOF 5
ENDMDL
MODEL 5
REMARK VINA RESULT: -4.038430272      2.652      4.621
REMARK  5 active torsions:
REMARK  status: ('A' for Active; 'I' for Inactive)
REMARK    1  A    between atoms: O1_2  and  C2_3 
REMARK    2  A    between atoms: C4_5  and  N1_6 
REMARK    3  A    between atoms: N1_6  and  S1_8 
REMARK    4  A    between atoms: S1_8  and  N2_9 
REMARK    5  A    between atoms: C8_17  and  O4_18 
ROOT
HETATM    1  C2  UNL     1      18.998  13.357  57.847  1.00  0.00     0.152 C 
HETATM    2  C3  UNL     1      19.501  12.254  56.962  1.00  0.00     0.061 C 
HETATM    3  C4  UNL     1      20.953  12.107  57.365  1.00  0.00     0.107 C 
HETATM    4  C5  UNL     1      21.332  13.521  57.673  1.00  0.00     0.002 C 
HETATM    5  C6  UNL     1      22.675  13.636  58.345  1.00  0.00     0.020 C 
HETATM    6  C7  UNL     1      21.300  14.401  56.451  1.00  0.00     0.020 C 
HETATM    7  C8  UNL     1      20.194  13.909  58.593  1.00  0.00     0.157 C 
ENDROOT
BRANCH   3   8
HETATM    8  N1  UNL     1      21.750  11.501  56.330  1.00  0.00    -0.297 N 
ATOM      9  H1  UNL     1      22.120  11.962  55.498  1.00  0.00     0.174 HD
BRANCH   8  10
HETATM   10  S1  UNL     1      21.961   9.841  56.768  1.00  0.00     0.313 S 
HETATM   11  O2  UNL     1      22.035   9.734  58.262  1.00  0.00    -0.183 OA
HETATM   12  O3  UNL     1      20.715   9.116  56.320  1.00  0.00    -0.183 OA
BRANCH  10  13
HETATM   13  N2  UNL     1      23.378   9.174  56.090  1.00  0.00    -0.312 N 
ATOM     14  H22 UNL     1      23.628   9.279  55.108  1.00  0.00     0.170 HD
ATOM     15  H21 UNL     1      23.931   8.667  56.781  1.00  0.00     0.170 HD
ENDBRANCH  10  13
ENDBRANCH   8  10
ENDBRANCH   3   8
BRANCH   1  16
HETATM   16  O1  UNL     1      18.113  12.799  58.761  1.00  0.00    -0.388 OA
HETATM   17  C1  UNL     1      17.333  11.873  58.073  1.00  0.00     0.202 C 
ENDBRANCH   1  16
BRANCH   7  18
HETATM   18  O4  UNL     1      20.098  15.285  58.749  1.00  0.00    -0.392 OA
ATOM     19  H4  UNL     1      19.878  15.516  59.645  1.00  0.00     0.210 HD
ENDBRANCH   7  18
TORSDOF 5
ENDMDL
