MODEL 1
REMARK VINA RESULT: -7.076333975      0.000      0.000
REMARK  4 active torsions:
REMARK  status: ('A' for Active; 'I' for Inactive)
REMARK    1  A    between atoms: C5_8  and  C6_9 
REMARK    2  A    between atoms: C6_9  and  C7_10 
REMARK    3  A    between atoms: C7_10  and  N3_11 
REMARK       I    between atoms: C8_13  and  N5_15 
REMARK    4  A    between atoms: N5_15  and  C9_17 
ROOT
HETATM    1  N3  UNL     1      21.174  12.117  57.394  1.00  0.00    -0.364 N 
ATOM      2  H3  UNL     1      20.215  12.446  57.505  1.00  0.00     0.162 HD
HETATM    3  C8  UNL     1      22.085  12.964  57.093  1.00  0.00     0.202 C 
HETATM    4  N4  UNL     1      23.453  12.647  56.908  1.00  0.00    -0.063 NA
HETATM    5  N5  UNL     1      21.699  14.320  56.934  1.00  0.00    -0.161 N 
ATOM      6  H5  UNL     1      21.668  14.752  56.010  1.00  0.00     0.187 HD
ENDROOT
BRANCH   1   7
HETATM    7  C7  UNL     1      21.456  10.695  57.584  1.00  0.00     0.130 C 
BRANCH   7   8
HETATM    8  C6  UNL     1      20.237   9.944  57.139  1.00  0.00     0.096 C 
BRANCH   8   9
HETATM    9  C5  UNL     1      18.980  10.393  57.729  1.00  0.00     0.084 A 
HETATM   10  N1  UNL     1      18.229  11.321  57.121  1.00  0.00    -0.351 N 
HETATM   11  C1  UNL     1      18.666  11.877  55.866  1.00  0.00     0.156 C 
HETATM   12  C2  UNL     1      17.054  11.753  57.661  1.00  0.00     0.093 A 
HETATM   13  C3  UNL     1      16.602  11.244  58.858  1.00  0.00     0.034 A 
HETATM   14  C4  UNL     1      17.389  10.289  59.468  1.00  0.00     0.090 A 
HETATM   15  N2  UNL     1      18.546   9.883  58.909  1.00  0.00    -0.355 N 
ATOM     16  H2  UNL     1      19.108   9.176  59.384  1.00  0.00     0.166 HD
ENDBRANCH   8   9
ENDBRANCH   7   8
ENDBRANCH   1   7
BRANCH   5  17
HETATM   17  C9  UNL     1      21.389  14.992  57.994  1.00  0.00     0.716 A 
HETATM   18  N6  UNL     1      21.981  16.103  58.471  1.00  0.00    -0.115 N 
HETATM   19  N7  UNL     1      21.339  16.448  59.569  1.00  0.00    -0.213 N 
ATOM     20  H6  UNL     1      22.777  16.588  58.059  1.00  0.00     0.207 HD
HETATM   21  N8  UNL     1      20.366  15.612  59.822  1.00  0.00    -0.213 N 
ATOM     22  H7  UNL     1      21.571  17.257  60.145  1.00  0.00     0.210 HD
HETATM   23  N9  UNL     1      20.387  14.716  58.863  1.00  0.00    -0.115 N 
ATOM     24  H8  UNL     1      19.717  15.648  60.609  1.00  0.00     0.210 HD
ATOM     25  H9  UNL     1      19.744  13.928  58.784  1.00  0.00     0.207 HD
ENDBRANCH   5  17
TORSDOF 4
ENDMDL
MODEL 2
REMARK VINA RESULT: -6.343300982      0.697      1.575
REMARK  4 active torsions:
REMARK  status: ('A' for Active; 'I' for Inactive)
REMARK    1  A    between atoms: C5_8  and  C6_9 
REMARK    2  A    between atoms: C6_9  and  C7_10 
REMARK    3  A    between atoms: C7_10  and  N3_11 
REMARK       I    between atoms: C8_13  and  N5_15 
REMARK    4  A    between atoms: N5_15  and  C9_17 
ROOT
HETATM    1  N3  UNL     1      21.430  12.273  57.173  1.00  0.00    -0.364 N 
ATOM      2  H3  UNL     1      20.441  12.522  57.188  1.00  0.00     0.162 HD
HETATM    3  C8  UNL     1      22.298  13.206  57.056  1.00  0.00     0.202 C 
HETATM    4  N4  UNL     1      23.700  13.005  57.020  1.00  0.00    -0.063 NA
HETATM    5  N5  UNL     1      21.825  14.540  56.954  1.00  0.00    -0.161 N 
ATOM      6  H5  UNL     1      21.869  15.047  56.070  1.00  0.00     0.187 HD
ENDROOT
BRANCH   1   7
HETATM    7  C7  UNL     1      21.801  10.864  57.287  1.00  0.00     0.130 C 
BRANCH   7   8
HETATM    8  C6  UNL     1      20.590  10.061  56.921  1.00  0.00     0.096 C 
BRANCH   8   9
HETATM    9  C5  UNL     1      19.316  10.618  57.366  1.00  0.00     0.084 A 
HETATM   10  N1  UNL     1      18.580   9.992  58.294  1.00  0.00    -0.351 N 
HETATM   11  C1  UNL     1      19.056   8.756  58.863  1.00  0.00     0.156 C 
HETATM   12  C2  UNL     1      17.386  10.497  58.718  1.00  0.00     0.093 A 
HETATM   13  C3  UNL     1      16.900  11.676  58.199  1.00  0.00     0.034 A 
HETATM   14  C4  UNL     1      17.672  12.306  57.245  1.00  0.00     0.090 A 
HETATM   15  N2  UNL     1      18.848  11.781  56.847  1.00  0.00    -0.355 N 
ATOM     16  H2  UNL     1      19.397  12.267  56.139  1.00  0.00     0.166 HD
ENDBRANCH   8   9
ENDBRANCH   7   8
ENDBRANCH   1   7
BRANCH   5  17
HETATM   17  C9  UNL     1      21.337  15.094  58.016  1.00  0.00     0.716 A 
HETATM   18  N6  UNL     1      21.509  16.360  58.441  1.00  0.00    -0.115 N 
HETATM   19  N7  UNL     1      20.831  16.491  59.564  1.00  0.00    -0.213 N 
ATOM     20  H6  UNL     1      22.062  17.082  57.981  1.00  0.00     0.207 HD
HETATM   21  N8  UNL     1      20.232  15.372  59.880  1.00  0.00    -0.213 N 
ATOM     22  H7  UNL     1      20.780  17.349  60.111  1.00  0.00     0.210 HD
HETATM   23  N9  UNL     1      20.536  14.510  58.938  1.00  0.00    -0.115 N 
ATOM     24  H8  UNL     1      19.646  15.203  60.697  1.00  0.00     0.210 HD
ATOM     25  H9  UNL     1      20.215  13.542  58.906  1.00  0.00     0.207 HD
ENDBRANCH   5  17
TORSDOF 4
ENDMDL
MODEL 3
REMARK VINA RESULT: -6.107996802      1.906      5.228
REMARK  4 active torsions:
REMARK  status: ('A' for Active; 'I' for Inactive)
REMARK    1  A    between atoms: C5_8  and  C6_9 
REMARK    2  A    between atoms: C6_9  and  C7_10 
REMARK    3  A    between atoms: C7_10  and  N3_11 
REMARK       I    between atoms: C8_13  and  N5_15 
REMARK    4  A    between atoms: N5_15  and  C9_17 
ROOT
HETATM    1  N3  UNL     1      22.205  11.727  57.526  1.00  0.00    -0.364 N 
ATOM      2  H3  UNL     1      21.574  12.035  58.266  1.00  0.00     0.162 HD
HETATM    3  C8  UNL     1      22.196  10.494  57.183  1.00  0.00     0.202 C 
HETATM    4  N4  UNL     1      23.016   9.931  56.175  1.00  0.00    -0.063 NA
HETATM    5  N5  UNL     1      21.301   9.626  57.860  1.00  0.00    -0.161 N 
ATOM      6  H5  UNL     1      21.643   8.938  58.531  1.00  0.00     0.187 HD
ENDROOT
BRANCH   1   7
HETATM    7  C7  UNL     1      23.084  12.712  56.897  1.00  0.00     0.130 C 
BRANCH   7   8
HETATM    8  C6  UNL     1      22.209  13.819  56.391  1.00  0.00     0.096 C 
BRANCH   8   9
HETATM    9  C5  UNL     1      21.622  14.669  57.423  1.00  0.00     0.084 A 
HETATM   10  N1  UNL     1      20.394  14.421  57.898  1.00  0.00    -0.351 N 
HETATM   11  C1  UNL     1      19.648  13.298  57.390  1.00  0.00     0.156 C 
HETATM   12  C2  UNL     1      19.830  15.208  58.860  1.00  0.00     0.093 A 
HETATM   13  C3  UNL     1      20.512  16.288  59.372  1.00  0.00     0.034 A 
HETATM   14  C4  UNL     1      21.775  16.526  58.869  1.00  0.00     0.090 A 
HETATM   15  N2  UNL     1      22.305  15.731  57.919  1.00  0.00    -0.355 N 
ATOM     16  H2  UNL     1      23.240  15.932  57.565  1.00  0.00     0.166 HD
ENDBRANCH   8   9
ENDBRANCH   7   8
ENDBRANCH   1   7
BRANCH   5  17
HETATM   17  C9  UNL     1      20.038   9.733  57.600  1.00  0.00     0.716 A 
HETATM   18  N6  UNL     1      19.417   9.539  56.421  1.00  0.00    -0.115 N 
HETATM   19  N7  UNL     1      18.132   9.754  56.616  1.00  0.00    -0.213 N 
ATOM     20  H6  UNL     1      19.860   9.274  55.542  1.00  0.00     0.207 HD
HETATM   21  N8  UNL     1      17.897  10.079  57.861  1.00  0.00    -0.213 N 
ATOM     22  H7  UNL     1      17.417   9.679  55.893  1.00  0.00     0.210 HD
HETATM   23  N9  UNL     1      19.058  10.069  58.472  1.00  0.00    -0.115 N 
ATOM     24  H8  UNL     1      16.991  10.297  58.275  1.00  0.00     0.210 HD
ATOM     25  H9  UNL     1      19.202  10.283  59.460  1.00  0.00     0.207 HD
ENDBRANCH   5  17
TORSDOF 4
ENDMDL
MODEL 4
REMARK VINA RESULT: -5.905609162      1.748      3.678
REMARK  4 active torsions:
REMARK  status: ('A' for Active; 'I' for Inactive)
REMARK    1  A    between atoms: C5_8  and  C6_9 
REMARK    2  A    between atoms: C6_9  and  C7_10 
REMARK    3  A    between atoms: C7_10  and  N3_11 
REMARK       I    between atoms: C8_13  and  N5_15 
REMARK    4  A    between atoms: N5_15  and  C9_17 
ROOT
HETATM    1  N3  UNL     1      18.294  11.646  58.438  1.00  0.00    -0.364 N 
ATOM      2  H3  UNL     1      18.393  11.936  59.411  1.00  0.00     0.162 HD
HETATM    3  C8  UNL     1      18.464  12.516  57.516  1.00  0.00     0.202 C 
HETATM    4  N4  UNL     1      18.357  12.253  56.128  1.00  0.00    -0.063 NA
HETATM    5  N5  UNL     1      18.782  13.842  57.908  1.00  0.00    -0.161 N 
ATOM      6  H5  UNL     1      18.097  14.593  57.824  1.00  0.00     0.187 HD
ENDROOT
BRANCH   1   7
HETATM    7  C7  UNL     1      17.965  10.250  58.152  1.00  0.00     0.130 C 
BRANCH   7   8
HETATM    8  C6  UNL     1      19.136   9.425  58.594  1.00  0.00     0.096 C 
BRANCH   8   9
HETATM    9  C5  UNL     1      20.293   9.461  57.705  1.00  0.00     0.084 A 
HETATM   10  N1  UNL     1      20.308   8.752  56.568  1.00  0.00    -0.351 N 
HETATM   11  C1  UNL     1      19.163   7.950  56.216  1.00  0.00     0.156 C 
HETATM   12  C2  UNL     1      21.383   8.772  55.729  1.00  0.00     0.093 A 
HETATM   13  C3  UNL     1      22.493   9.528  56.030  1.00  0.00     0.034 A 
HETATM   14  C4  UNL     1      22.459  10.250  57.205  1.00  0.00     0.090 A 
HETATM   15  N2  UNL     1      21.382  10.209  58.013  1.00  0.00    -0.355 N 
ATOM     16  H2  UNL     1      21.385  10.753  58.876  1.00  0.00     0.166 HD
ENDBRANCH   8   9
ENDBRANCH   7   8
ENDBRANCH   1   7
BRANCH   5  17
HETATM   17  C9  UNL     1      19.967  14.069  58.374  1.00  0.00     0.716 A 
HETATM   18  N6  UNL     1      20.304  14.814  59.444  1.00  0.00    -0.115 N 
HETATM   19  N7  UNL     1      21.617  14.769  59.554  1.00  0.00    -0.213 N 
ATOM     20  H6  UNL     1      19.663  15.319  60.056  1.00  0.00     0.207 HD
HETATM   21  N8  UNL     1      22.139  14.033  58.607  1.00  0.00    -0.213 N 
ATOM     22  H7  UNL     1      22.153  15.244  60.279  1.00  0.00     0.210 HD
HETATM   23  N9  UNL     1      21.136  13.600  57.879  1.00  0.00    -0.115 N 
ATOM     24  H8  UNL     1      23.129  13.835  58.462  1.00  0.00     0.210 HD
ATOM     25  H9  UNL     1      21.225  12.998  57.060  1.00  0.00     0.207 HD
ENDBRANCH   5  17
TORSDOF 4
ENDMDL
MODEL 5
REMARK VINA RESULT: -5.839666621      1.785      3.660
REMARK  4 active torsions:
REMARK  status: ('A' for Active; 'I' for Inactive)
REMARK    1  A    between atoms: C5_8  and  C6_9 
REMARK    2  A    between atoms: C6_9  and  C7_10 
REMARK    3  A    between atoms: C7_10  and  N3_11 
REMARK       I    between atoms: C8_13  and  N5_15 
REMARK    4  A    between atoms: N5_15  and  C9_17 
ROOT
HETATM    1  N3  UNL     1      18.240  11.730  58.610  1.00  0.00    -0.364 N 
ATOM      2  H3  UNL     1      18.348  12.084  59.560  1.00  0.00     0.162 HD
HETATM    3  C8  UNL     1      18.394  12.540  57.631  1.00  0.00     0.202 C 
HETATM    4  N4  UNL     1      18.272  12.187  56.264  1.00  0.00    -0.063 NA
HETATM    5  N5  UNL     1      18.708  13.890  57.933  1.00  0.00    -0.161 N 
ATOM      6  H5  UNL     1      18.018  14.631  57.809  1.00  0.00     0.187 HD
ENDROOT
BRANCH   1   7
HETATM    7  C7  UNL     1      17.916  10.317  58.418  1.00  0.00     0.130 C 
BRANCH   7   8
HETATM    8  C6  UNL     1      19.187   9.547  58.611  1.00  0.00     0.096 C 
BRANCH   8   9
HETATM    9  C5  UNL     1      19.896   9.198  57.383  1.00  0.00     0.084 A 
HETATM   10  N1  UNL     1      21.130   9.663  57.147  1.00  0.00    -0.351 N 
HETATM   11  C1  UNL     1      21.767  10.513  58.121  1.00  0.00     0.156 C 
HETATM   12  C2  UNL     1      21.803   9.350  56.003  1.00  0.00     0.093 A 
HETATM   13  C3  UNL     1      21.228   8.540  55.050  1.00  0.00     0.034 A 
HETATM   14  C4  UNL     1      19.957   8.071  55.312  1.00  0.00     0.090 A 
HETATM   15  N2  UNL     1      19.318   8.399  56.451  1.00  0.00    -0.355 N 
ATOM     16  H2  UNL     1      18.378   8.039  56.617  1.00  0.00     0.166 HD
ENDBRANCH   8   9
ENDBRANCH   7   8
ENDBRANCH   1   7
BRANCH   5  17
HETATM   17  C9  UNL     1      19.897  14.153  58.370  1.00  0.00     0.716 A 
HETATM   18  N6  UNL     1      20.237  14.831  59.483  1.00  0.00    -0.115 N 
HETATM   19  N7  UNL     1      21.553  14.860  59.537  1.00  0.00    -0.213 N 
ATOM     20  H6  UNL     1      19.594  15.245  60.158  1.00  0.00     0.207 HD
HETATM   21  N8  UNL     1      22.075  14.235  58.514  1.00  0.00    -0.213 N 
ATOM     22  H7  UNL     1      22.092  15.309  60.277  1.00  0.00     0.210 HD
HETATM   23  N9  UNL     1      21.069  13.799  57.793  1.00  0.00    -0.115 N 
ATOM     24  H8  UNL     1      23.068  14.111  58.315  1.00  0.00     0.210 HD
ATOM     25  H9  UNL     1      21.157  13.270  56.924  1.00  0.00     0.207 HD
ENDBRANCH   5  17
TORSDOF 4
ENDMDL
