MODEL 1
REMARK VINA RESULT: -6.971548115      0.000      0.000
REMARK  14 active torsions:
REMARK  status: ('A' for Active; 'I' for Inactive)
REMARK    1  A    between atoms: C2_2  and  C3_3 
REMARK    2  A    between atoms: C3_3  and  C5_5 
REMARK    3  A    between atoms: C3_3  and  C6_8 
REMARK    4  A    between atoms: C5_5  and  O1_6 
REMARK    5  A    between atoms: C6_8  and  C7_9 
REMARK    6  A    between atoms: C7_9  and  C8_10 
REMARK    7  A    between atoms: C8_10  and  C9_11 
REMARK    8  A    between atoms: C10_12  and  C11_13 
REMARK    9  A    between atoms: C12_14  and  O2_16 
REMARK   10  A    between atoms: C20_24  and  O3_25 
REMARK   11  A    between atoms: C21_27  and  O4_28 
REMARK   12  A    between atoms: C24_31  and  O5_32 
REMARK   13  A    between atoms: O5_32  and  C25_33 
REMARK   14  A    between atoms: C27_36  and  C29_38 
ROOT
HETATM    1  C11 UNL     1      14.302  10.640  36.618  1.00  0.00     0.057 C 
HETATM    2  C12 UNL     1      14.777   9.360  37.112  1.00  0.00     0.067 C 
HETATM    3  C13 UNL     1      15.370   8.621  35.885  1.00  0.00     0.047 C 
HETATM    4  C14 UNL     1      13.761   8.493  37.831  1.00  0.00     0.034 C 
HETATM    5  C15 UNL     1      14.330   8.053  39.148  1.00  0.00    -0.002 A 
HETATM    6  C16 UNL     1      15.164   6.758  39.147  1.00  0.00     0.011 A 
HETATM    7  C17 UNL     1      13.850   6.933  39.870  1.00  0.00    -0.003 A 
HETATM    8  C18 UNL     1      12.683   6.146  39.463  1.00  0.00     0.017 C 
HETATM    9  C19 UNL     1      12.933   5.006  38.504  1.00  0.00     0.013 C 
HETATM   10  C20 UNL     1      11.462   6.959  39.073  1.00  0.00     0.151 C 
HETATM   11  C21 UNL     1      11.725   8.457  39.125  1.00  0.00     0.157 C 
HETATM   12  C23 UNL     1      12.355   8.940  37.837  1.00  0.00     0.055 C 
HETATM   13  C24 UNL     1      12.013  10.341  37.558  1.00  0.00     0.151 C 
HETATM   14  C27 UNL     1      13.186  11.287  37.384  1.00  0.00     0.010 C 
HETATM   15  C28 UNL     1      13.656  11.908  38.674  1.00  0.00     0.023 C 
ENDROOT
BRANCH   1  16
HETATM   16  C10 UNL     1      15.381  11.627  36.482  1.00  0.00    -0.010 C 
HETATM   17  C9  UNL     1      15.896  11.996  35.272  1.00  0.00     0.047 C 
BRANCH  17  18
HETATM   18  C8  UNL     1      16.882  12.904  35.139  1.00  0.00    -0.156 C 
BRANCH  18  19
HETATM   19  C7  UNL     1      17.833  13.781  35.009  1.00  0.00     0.086 C 
BRANCH  19  20
HETATM   20  C6  UNL     1      18.780  13.638  33.825  1.00  0.00     0.027 C 
BRANCH  20  21
HETATM   21  C3  UNL     1      18.364  14.480  32.669  1.00  0.00    -0.005 C 
HETATM   22  C4  UNL     1      17.563  13.698  31.645  1.00  0.00     0.021 C 
BRANCH  21  23
HETATM   23  C2  UNL     1      17.599  15.684  33.074  1.00  0.00    -0.026 C 
HETATM   24  C1  UNL     1      18.148  16.875  32.922  1.00  0.00     0.008 C 
ENDBRANCH  21  23
BRANCH  21  25
HETATM   25  C5  UNL     1      19.613  14.994  31.946  1.00  0.00     0.177 C 
BRANCH  25  26
HETATM   26  O1  UNL     1      20.737  14.414  32.503  1.00  0.00    -0.400 OA
ATOM     27  H1  UNL     1      21.499  14.639  31.984  1.00  0.00     0.209 HD
ENDBRANCH  25  26
ENDBRANCH  21  25
ENDBRANCH  20  21
ENDBRANCH  19  20
ENDBRANCH  18  19
ENDBRANCH  17  18
ENDBRANCH   1  16
BRANCH   2  28
HETATM   28  O2  UNL     1      15.903   9.444  37.955  1.00  0.00    -0.389 OA
ATOM     29  H2  UNL     1      15.937   8.777  38.631  1.00  0.00     0.210 HD
ENDBRANCH   2  28
BRANCH  14  30
HETATM   30  C29 UNL     1      12.698  12.437  36.571  1.00  0.00    -0.024 C 
HETATM   31  C30 UNL     1      12.382  13.605  37.082  1.00  0.00     0.008 C 
ENDBRANCH  14  30
BRANCH  13  32
HETATM   32  O5  UNL     1      11.160  10.449  36.402  1.00  0.00    -0.315 OA
BRANCH  32  33
HETATM   33  C25 UNL     1       9.938   9.886  36.256  1.00  0.00     0.255 C 
HETATM   34  C26 UNL     1       8.680  10.617  36.607  1.00  0.00     0.126 C 
HETATM   35  O6  UNL     1       9.847   8.732  35.818  1.00  0.00    -0.266 OA
ENDBRANCH  32  33
ENDBRANCH  13  32
BRANCH  11  36
HETATM   36  O4  UNL     1      10.633   9.194  39.406  1.00  0.00    -0.388 OA
HETATM   37  C22 UNL     1       9.799   8.717  40.396  1.00  0.00     0.202 C 
ENDBRANCH  11  36
BRANCH  10  38
HETATM   38  O3  UNL     1      10.995   6.555  37.826  1.00  0.00    -0.393 OA
ATOM     39  H3  UNL     1      10.200   7.025  37.606  1.00  0.00     0.210 HD
ENDBRANCH  10  38
TORSDOF 14
ENDMDL
MODEL 2
REMARK VINA RESULT: -6.925979579      0.619      1.035
REMARK  14 active torsions:
REMARK  status: ('A' for Active; 'I' for Inactive)
REMARK    1  A    between atoms: C2_2  and  C3_3 
REMARK    2  A    between atoms: C3_3  and  C5_5 
REMARK    3  A    between atoms: C3_3  and  C6_8 
REMARK    4  A    between atoms: C5_5  and  O1_6 
REMARK    5  A    between atoms: C6_8  and  C7_9 
REMARK    6  A    between atoms: C7_9  and  C8_10 
REMARK    7  A    between atoms: C8_10  and  C9_11 
REMARK    8  A    between atoms: C10_12  and  C11_13 
REMARK    9  A    between atoms: C12_14  and  O2_16 
REMARK   10  A    between atoms: C20_24  and  O3_25 
REMARK   11  A    between atoms: C21_27  and  O4_28 
REMARK   12  A    between atoms: C24_31  and  O5_32 
REMARK   13  A    between atoms: O5_32  and  C25_33 
REMARK   14  A    between atoms: C27_36  and  C29_38 
ROOT
HETATM    1  C11 UNL     1      14.428  10.745  36.510  1.00  0.00     0.057 C 
HETATM    2  C12 UNL     1      14.895   9.463  37.007  1.00  0.00     0.067 C 
HETATM    3  C13 UNL     1      15.527   8.738  35.791  1.00  0.00     0.047 C 
HETATM    4  C14 UNL     1      13.863   8.584  37.689  1.00  0.00     0.034 C 
HETATM    5  C15 UNL     1      14.395   8.135  39.017  1.00  0.00    -0.002 A 
HETATM    6  C16 UNL     1      15.235   6.845  39.030  1.00  0.00     0.011 A 
HETATM    7  C17 UNL     1      13.900   7.006  39.715  1.00  0.00    -0.003 A 
HETATM    8  C18 UNL     1      12.749   6.217  39.267  1.00  0.00     0.017 C 
HETATM    9  C19 UNL     1      13.033   5.088  38.306  1.00  0.00     0.013 C 
HETATM   10  C20 UNL     1      11.536   7.028  38.849  1.00  0.00     0.151 C 
HETATM   11  C21 UNL     1      11.790   8.527  38.922  1.00  0.00     0.157 C 
HETATM   12  C23 UNL     1      12.455   9.024  37.657  1.00  0.00     0.055 C 
HETATM   13  C24 UNL     1      12.114  10.426  37.381  1.00  0.00     0.151 C 
HETATM   14  C27 UNL     1      13.286  11.380  37.249  1.00  0.00     0.010 C 
HETATM   15  C28 UNL     1      13.715  11.991  38.558  1.00  0.00     0.023 C 
ENDROOT
BRANCH   1  16
HETATM   16  C10 UNL     1      15.504  11.739  36.414  1.00  0.00    -0.010 C 
HETATM   17  C9  UNL     1      16.049  12.123  35.223  1.00  0.00     0.047 C 
BRANCH  17  18
HETATM   18  C8  UNL     1      17.034  13.038  35.127  1.00  0.00    -0.156 C 
BRANCH  18  19
HETATM   19  C7  UNL     1      17.984  13.921  35.035  1.00  0.00     0.086 C 
BRANCH  19  20
HETATM   20  C6  UNL     1      18.975  13.788  33.888  1.00  0.00     0.027 C 
BRANCH  20  21
HETATM   21  C3  UNL     1      18.576  14.599  32.703  1.00  0.00    -0.005 C 
HETATM   22  C4  UNL     1      19.765  14.996  31.849  1.00  0.00     0.021 C 
BRANCH  21  23
HETATM   23  C2  UNL     1      17.566  13.924  31.853  1.00  0.00    -0.026 C 
HETATM   24  C1  UNL     1      16.937  14.622  30.926  1.00  0.00     0.008 C 
ENDBRANCH  21  23
BRANCH  21  25
HETATM   25  C5  UNL     1      17.927  15.902  33.181  1.00  0.00     0.177 C 
BRANCH  25  26
HETATM   26  O1  UNL     1      18.895  16.883  33.291  1.00  0.00    -0.400 OA
ATOM     27  H1  UNL     1      19.684  16.598  32.847  1.00  0.00     0.209 HD
ENDBRANCH  25  26
ENDBRANCH  21  25
ENDBRANCH  20  21
ENDBRANCH  19  20
ENDBRANCH  18  19
ENDBRANCH  17  18
ENDBRANCH   1  16
BRANCH   2  28
HETATM   28  O2  UNL     1      15.994   9.545  37.883  1.00  0.00    -0.389 OA
ATOM     29  H2  UNL     1      16.099   8.792  38.453  1.00  0.00     0.210 HD
ENDBRANCH   2  28
BRANCH  14  30
HETATM   30  C29 UNL     1      12.816  12.534  36.433  1.00  0.00    -0.024 C 
HETATM   31  C30 UNL     1      12.424  13.677  36.949  1.00  0.00     0.008 C 
ENDBRANCH  14  30
BRANCH  13  32
HETATM   32  O5  UNL     1      11.294  10.540  36.201  1.00  0.00    -0.315 OA
BRANCH  32  33
HETATM   33  C25 UNL     1      10.024  10.091  36.064  1.00  0.00     0.255 C 
HETATM   34  C26 UNL     1       8.839  10.967  36.328  1.00  0.00     0.126 C 
HETATM   35  O6  UNL     1       9.826   8.922  35.710  1.00  0.00    -0.266 OA
ENDBRANCH  32  33
ENDBRANCH  13  32
BRANCH  11  36
HETATM   36  O4  UNL     1      10.686   9.256  39.177  1.00  0.00    -0.388 OA
HETATM   37  C22 UNL     1       9.899   8.843  40.233  1.00  0.00     0.202 C 
ENDBRANCH  11  36
BRANCH  10  38
HETATM   38  O3  UNL     1      11.108   6.633  37.585  1.00  0.00    -0.393 OA
ATOM     39  H3  UNL     1      11.435   7.233  36.926  1.00  0.00     0.210 HD
ENDBRANCH  10  38
TORSDOF 14
ENDMDL
MODEL 3
REMARK VINA RESULT: -6.898079674      1.910      4.266
REMARK  14 active torsions:
REMARK  status: ('A' for Active; 'I' for Inactive)
REMARK    1  A    between atoms: C2_2  and  C3_3 
REMARK    2  A    between atoms: C3_3  and  C5_5 
REMARK    3  A    between atoms: C3_3  and  C6_8 
REMARK    4  A    between atoms: C5_5  and  O1_6 
REMARK    5  A    between atoms: C6_8  and  C7_9 
REMARK    6  A    between atoms: C7_9  and  C8_10 
REMARK    7  A    between atoms: C8_10  and  C9_11 
REMARK    8  A    between atoms: C10_12  and  C11_13 
REMARK    9  A    between atoms: C12_14  and  O2_16 
REMARK   10  A    between atoms: C20_24  and  O3_25 
REMARK   11  A    between atoms: C21_27  and  O4_28 
REMARK   12  A    between atoms: C24_31  and  O5_32 
REMARK   13  A    between atoms: O5_32  and  C25_33 
REMARK   14  A    between atoms: C27_36  and  C29_38 
ROOT
HETATM    1  C11 UNL     1      13.186  11.954  37.308  1.00  0.00     0.057 C 
HETATM    2  C12 UNL     1      11.777  12.298  37.234  1.00  0.00     0.067 C 
HETATM    3  C13 UNL     1      11.614  13.611  38.041  1.00  0.00     0.047 C 
HETATM    4  C14 UNL     1      10.797  11.241  37.709  1.00  0.00     0.034 C 
HETATM    5  C15 UNL     1       9.748  11.031  36.658  1.00  0.00    -0.002 A 
HETATM    6  C16 UNL     1       8.510  11.945  36.718  1.00  0.00     0.011 A 
HETATM    7  C17 UNL     1       8.484  10.449  36.923  1.00  0.00    -0.003 A 
HETATM    8  C18 UNL     1       8.102   9.898  38.226  1.00  0.00     0.017 C 
HETATM    9  C19 UNL     1       7.501  10.862  39.222  1.00  0.00     0.013 C 
HETATM   10  C20 UNL     1       9.134   8.989  38.867  1.00  0.00     0.151 C 
HETATM   11  C21 UNL     1      10.406   8.883  38.039  1.00  0.00     0.157 C 
HETATM   12  C23 UNL     1      11.346  10.028  38.344  1.00  0.00     0.055 C 
HETATM   13  C24 UNL     1      12.750   9.646  38.141  1.00  0.00     0.151 C 
HETATM   14  C27 UNL     1      13.535  10.502  37.166  1.00  0.00     0.010 C 
HETATM   15  C28 UNL     1      13.448  10.025  35.739  1.00  0.00     0.023 C 
ENDROOT
BRANCH   1  16
HETATM   16  C10 UNL     1      14.001  12.705  36.345  1.00  0.00    -0.010 C 
HETATM   17  C9  UNL     1      14.793  13.756  36.710  1.00  0.00     0.047 C 
BRANCH  17  18
HETATM   18  C8  UNL     1      15.547  14.447  35.833  1.00  0.00    -0.156 C 
BRANCH  18  19
HETATM   19  C7  UNL     1      16.273  15.116  34.986  1.00  0.00     0.086 C 
BRANCH  19  20
HETATM   20  C6  UNL     1      17.767  14.827  34.943  1.00  0.00     0.027 C 
BRANCH  20  21
HETATM   21  C3  UNL     1      18.127  13.894  33.838  1.00  0.00    -0.005 C 
HETATM   22  C4  UNL     1      18.308  12.469  34.325  1.00  0.00     0.021 C 
BRANCH  21  23
HETATM   23  C2  UNL     1      17.150  13.911  32.724  1.00  0.00    -0.026 C 
HETATM   24  C1  UNL     1      17.594  13.892  31.480  1.00  0.00     0.008 C 
ENDBRANCH  21  23
BRANCH  21  25
HETATM   25  C5  UNL     1      19.468  14.322  33.235  1.00  0.00     0.177 C 
BRANCH  25  26
HETATM   26  O1  UNL     1      20.491  13.973  34.097  1.00  0.00    -0.400 OA
ATOM     27  H1  UNL     1      21.160  13.499  33.617  1.00  0.00     0.209 HD
ENDBRANCH  25  26
ENDBRANCH  21  25
ENDBRANCH  20  21
ENDBRANCH  19  20
ENDBRANCH  18  19
ENDBRANCH  17  18
ENDBRANCH   1  16
BRANCH   2  28
HETATM   28  O2  UNL     1      11.344  12.701  35.956  1.00  0.00    -0.389 OA
ATOM     29  H2  UNL     1      10.413  12.590  35.804  1.00  0.00     0.210 HD
ENDBRANCH   2  28
BRANCH  14  30
HETATM   30  C29 UNL     1      14.975  10.355  37.521  1.00  0.00    -0.024 C 
HETATM   31  C30 UNL     1      15.864   9.792  36.735  1.00  0.00     0.008 C 
ENDBRANCH  14  30
BRANCH  13  32
HETATM   32  O5  UNL     1      13.465   9.601  39.392  1.00  0.00    -0.315 OA
BRANCH  32  33
HETATM   33  C25 UNL     1      13.026  10.076  40.580  1.00  0.00     0.255 C 
HETATM   34  C26 UNL     1      13.337  11.466  41.043  1.00  0.00     0.126 C 
HETATM   35  O6  UNL     1      12.345   9.349  41.314  1.00  0.00    -0.266 OA
ENDBRANCH  32  33
ENDBRANCH  13  32
BRANCH  11  36
HETATM   36  O4  UNL     1      11.052   7.709  38.177  1.00  0.00    -0.388 OA
HETATM   37  C22 UNL     1      10.509   6.621  37.526  1.00  0.00     0.202 C 
ENDBRANCH  11  36
BRANCH  10  38
HETATM   38  O3  UNL     1       9.394   9.402  40.170  1.00  0.00    -0.393 OA
ATOM     39  H3  UNL     1       9.149   8.721  40.785  1.00  0.00     0.210 HD
ENDBRANCH  10  38
TORSDOF 14
ENDMDL
MODEL 4
REMARK VINA RESULT: -6.807952856      1.949      4.469
REMARK  14 active torsions:
REMARK  status: ('A' for Active; 'I' for Inactive)
REMARK    1  A    between atoms: C2_2  and  C3_3 
REMARK    2  A    between atoms: C3_3  and  C5_5 
REMARK    3  A    between atoms: C3_3  and  C6_8 
REMARK    4  A    between atoms: C5_5  and  O1_6 
REMARK    5  A    between atoms: C6_8  and  C7_9 
REMARK    6  A    between atoms: C7_9  and  C8_10 
REMARK    7  A    between atoms: C8_10  and  C9_11 
REMARK    8  A    between atoms: C10_12  and  C11_13 
REMARK    9  A    between atoms: C12_14  and  O2_16 
REMARK   10  A    between atoms: C20_24  and  O3_25 
REMARK   11  A    between atoms: C21_27  and  O4_28 
REMARK   12  A    between atoms: C24_31  and  O5_32 
REMARK   13  A    between atoms: O5_32  and  C25_33 
REMARK   14  A    between atoms: C27_36  and  C29_38 
ROOT
HETATM    1  C11 UNL     1      14.800  12.068  36.779  1.00  0.00     0.057 C 
HETATM    2  C12 UNL     1      13.730  13.030  36.971  1.00  0.00     0.067 C 
HETATM    3  C13 UNL     1      14.396  14.300  37.561  1.00  0.00     0.047 C 
HETATM    4  C14 UNL     1      12.561  12.580  37.828  1.00  0.00     0.034 C 
HETATM    5  C15 UNL     1      11.279  12.843  37.095  1.00  0.00    -0.002 A 
HETATM    6  C16 UNL     1      10.645  14.234  37.280  1.00  0.00     0.011 A 
HETATM    7  C17 UNL     1      10.019  12.937  37.735  1.00  0.00    -0.003 A 
HETATM    8  C18 UNL     1       9.816  12.687  39.164  1.00  0.00     0.017 C 
HETATM    9  C19 UNL     1      10.007  13.861  40.094  1.00  0.00     0.013 C 
HETATM   10  C20 UNL     1      10.474  11.427  39.697  1.00  0.00     0.151 C 
HETATM   11  C21 UNL     1      11.280  10.700  38.630  1.00  0.00     0.157 C 
HETATM   12  C23 UNL     1      12.672  11.280  38.516  1.00  0.00     0.055 C 
HETATM   13  C24 UNL     1      13.643  10.274  38.066  1.00  0.00     0.151 C 
HETATM   14  C27 UNL     1      14.417  10.618  36.807  1.00  0.00     0.010 C 
HETATM   15  C28 UNL     1      13.732  10.177  35.539  1.00  0.00     0.023 C 
ENDROOT
BRANCH   1  16
HETATM   16  C10 UNL     1      15.556  12.306  35.543  1.00  0.00    -0.010 C 
HETATM   17  C9  UNL     1      16.864  12.700  35.542  1.00  0.00     0.047 C 
BRANCH  17  18
HETATM   18  C8  UNL     1      17.566  12.915  34.413  1.00  0.00    -0.156 C 
BRANCH  18  19
HETATM   19  C7  UNL     1      18.242  13.123  33.321  1.00  0.00     0.086 C 
BRANCH  19  20
HETATM   20  C6  UNL     1      19.094  14.381  33.237  1.00  0.00     0.027 C 
BRANCH  20  21
HETATM   21  C3  UNL     1      18.847  15.145  31.982  1.00  0.00    -0.005 C 
HETATM   22  C4  UNL     1      17.704  14.564  31.171  1.00  0.00     0.021 C 
BRANCH  21  23
HETATM   23  C2  UNL     1      18.596  16.585  32.221  1.00  0.00    -0.026 C 
HETATM   24  C1  UNL     1      17.477  16.953  32.819  1.00  0.00     0.008 C 
ENDBRANCH  21  23
BRANCH  21  25
HETATM   25  C5  UNL     1      20.093  15.071  31.095  1.00  0.00     0.177 C 
BRANCH  25  26
HETATM   26  O1  UNL     1      21.161  14.609  31.841  1.00  0.00    -0.400 OA
ATOM     27  H1  UNL     1      21.959  15.030  31.544  1.00  0.00     0.209 HD
ENDBRANCH  25  26
ENDBRANCH  21  25
ENDBRANCH  20  21
ENDBRANCH  19  20
ENDBRANCH  18  19
ENDBRANCH  17  18
ENDBRANCH   1  16
BRANCH   2  28
HETATM   28  O2  UNL     1      13.181  13.535  35.776  1.00  0.00    -0.389 OA
ATOM     29  H2  UNL     1      12.434  13.046  35.451  1.00  0.00     0.210 HD
ENDBRANCH   2  28
BRANCH  14  30
HETATM   30  C29 UNL     1      15.679   9.826  36.845  1.00  0.00    -0.024 C 
HETATM   31  C30 UNL     1      15.983   8.901  35.963  1.00  0.00     0.008 C 
ENDBRANCH  14  30
BRANCH  13  32
HETATM   32  O5  UNL     1      14.583   9.952  39.110  1.00  0.00    -0.315 OA
BRANCH  32  33
HETATM   33  C25 UNL     1      14.280   9.453  40.331  1.00  0.00     0.255 C 
HETATM   34  C26 UNL     1      14.369  10.285  41.572  1.00  0.00     0.126 C 
HETATM   35  O6  UNL     1      13.915   8.275  40.436  1.00  0.00    -0.266 OA
ENDBRANCH  32  33
ENDBRANCH  13  32
BRANCH  11  36
HETATM   36  O4  UNL     1      11.351   9.367  38.812  1.00  0.00    -0.388 OA
HETATM   37  C22 UNL     1      10.158   8.703  39.011  1.00  0.00     0.202 C 
ENDBRANCH  11  36
BRANCH  10  38
HETATM   38  O3  UNL     1      11.243  11.725  40.818  1.00  0.00    -0.393 OA
ATOM     39  H3  UNL     1      11.839  11.010  41.006  1.00  0.00     0.210 HD
ENDBRANCH  10  38
TORSDOF 14
ENDMDL
MODEL 5
REMARK VINA RESULT: -6.744936406      6.637     12.666
REMARK  14 active torsions:
REMARK  status: ('A' for Active; 'I' for Inactive)
REMARK    1  A    between atoms: C2_2  and  C3_3 
REMARK    2  A    between atoms: C3_3  and  C5_5 
REMARK    3  A    between atoms: C3_3  and  C6_8 
REMARK    4  A    between atoms: C5_5  and  O1_6 
REMARK    5  A    between atoms: C6_8  and  C7_9 
REMARK    6  A    between atoms: C7_9  and  C8_10 
REMARK    7  A    between atoms: C8_10  and  C9_11 
REMARK    8  A    between atoms: C10_12  and  C11_13 
REMARK    9  A    between atoms: C12_14  and  O2_16 
REMARK   10  A    between atoms: C20_24  and  O3_25 
REMARK   11  A    between atoms: C21_27  and  O4_28 
REMARK   12  A    between atoms: C24_31  and  O5_32 
REMARK   13  A    between atoms: O5_32  and  C25_33 
REMARK   14  A    between atoms: C27_36  and  C29_38 
ROOT
HETATM    1  C11 UNL     1      14.427  16.974  29.609  1.00  0.00     0.057 C 
HETATM    2  C12 UNL     1      13.721  18.241  29.674  1.00  0.00     0.067 C 
HETATM    3  C13 UNL     1      13.316  18.580  28.217  1.00  0.00     0.047 C 
HETATM    4  C14 UNL     1      14.464  19.398  30.316  1.00  0.00     0.034 C 
HETATM    5  C15 UNL     1      13.591  20.029  31.360  1.00  0.00    -0.002 A 
HETATM    6  C16 UNL     1      12.637  21.142  30.888  1.00  0.00     0.011 A 
HETATM    7  C17 UNL     1      13.785  21.345  31.848  1.00  0.00    -0.003 A 
HETATM    8  C18 UNL     1      14.917  22.193  31.463  1.00  0.00     0.017 C 
HETATM    9  C19 UNL     1      14.745  23.032  30.219  1.00  0.00     0.013 C 
HETATM   10  C20 UNL     1      16.274  21.516  31.508  1.00  0.00     0.151 C 
HETATM   11  C21 UNL     1      16.174  20.046  31.890  1.00  0.00     0.157 C 
HETATM   12  C23 UNL     1      15.880  19.191  30.677  1.00  0.00     0.055 C 
HETATM   13  C24 UNL     1      16.425  17.835  30.825  1.00  0.00     0.151 C 
HETATM   14  C27 UNL     1      15.426  16.701  30.695  1.00  0.00     0.010 C 
HETATM   15  C28 UNL     1      14.772  16.322  31.999  1.00  0.00     0.023 C 
ENDROOT
BRANCH   1  16
HETATM   16  C10 UNL     1      13.516  15.824  29.542  1.00  0.00    -0.010 C 
HETATM   17  C9  UNL     1      12.255  15.850  30.065  1.00  0.00     0.047 C 
BRANCH  17  18
HETATM   18  C8  UNL     1      11.412  14.801  30.004  1.00  0.00    -0.156 C 
BRANCH  18  19
HETATM   19  C7  UNL     1      10.600  13.787  29.945  1.00  0.00     0.086 C 
BRANCH  19  20
HETATM   20  C6  UNL     1       9.334  13.835  30.788  1.00  0.00     0.027 C 
BRANCH  20  21
HETATM   21  C3  UNL     1       8.949  12.490  31.301  1.00  0.00    -0.005 C 
HETATM   22  C4  UNL     1       9.487  12.230  32.695  1.00  0.00     0.021 C 
BRANCH  21  23
HETATM   23  C2  UNL     1       7.485  12.263  31.290  1.00  0.00    -0.026 C 
HETATM   24  C1  UNL     1       6.677  13.287  31.080  1.00  0.00     0.008 C 
ENDBRANCH  21  23
BRANCH  21  25
HETATM   25  C5  UNL     1       9.553  11.414  30.392  1.00  0.00     0.177 C 
BRANCH  25  26
HETATM   26  O1  UNL     1       9.577  10.207  31.064  1.00  0.00    -0.400 OA
ATOM     27  H1  UNL     1       9.591  10.366  32.000  1.00  0.00     0.209 HD
ENDBRANCH  25  26
ENDBRANCH  21  25
ENDBRANCH  20  21
ENDBRANCH  19  20
ENDBRANCH  18  19
ENDBRANCH  17  18
ENDBRANCH   1  16
BRANCH   2  28
HETATM   28  O2  UNL     1      12.463  18.173  30.304  1.00  0.00    -0.389 OA
ATOM     29  H2  UNL     1      11.933  18.955  30.205  1.00  0.00     0.210 HD
ENDBRANCH   2  28
BRANCH  14  30
HETATM   30  C29 UNL     1      16.195  15.489  30.296  1.00  0.00    -0.024 C 
HETATM   31  C30 UNL     1      16.628  14.590  31.150  1.00  0.00     0.008 C 
ENDBRANCH  14  30
BRANCH  13  32
HETATM   32  O5  UNL     1      17.506  17.604  29.899  1.00  0.00    -0.315 OA
BRANCH  32  33
HETATM   33  C25 UNL     1      18.819  17.512  30.212  1.00  0.00     0.255 C 
HETATM   34  C26 UNL     1      19.283  17.144  31.586  1.00  0.00     0.126 C 
HETATM   35  O6  UNL     1      19.670  17.737  29.342  1.00  0.00    -0.266 OA
ENDBRANCH  32  33
ENDBRANCH  13  32
BRANCH  11  36
HETATM   36  O4  UNL     1      17.259  19.573  32.533  1.00  0.00    -0.388 OA
HETATM   37  C22 UNL     1      18.065  20.503  33.158  1.00  0.00     0.202 C 
ENDBRANCH  11  36
BRANCH  10  38
HETATM   38  O3  UNL     1      16.940  21.695  30.299  1.00  0.00    -0.393 OA
ATOM     39  H3  UNL     1      17.770  21.233  30.311  1.00  0.00     0.210 HD
ENDBRANCH  10  38
TORSDOF 14
ENDMDL
