MODEL 1
REMARK VINA RESULT: -9.122580961      0.000      0.000
REMARK  11 active torsions:
REMARK  status: ('A' for Active; 'I' for Inactive)
REMARK    1  A    between atoms: C3_3  and  O1_4 
REMARK    2  A    between atoms: C4_6  and  C5_7 
REMARK    3  A    between atoms: C5_7  and  C6_8 
REMARK    4  A    between atoms: C6_8  and  C7_10 
REMARK    5  A    between atoms: C11_16  and  C12_17 
REMARK    6  A    between atoms: C12_17  and  C13_18 
REMARK    7  A    between atoms: C12_17  and  O4_26 
REMARK    8  A    between atoms: C13_18  and  C14_19 
REMARK    9  A    between atoms: C15_20  and  C16_21 
REMARK   10  A    between atoms: C16_21  and  O3_24 
REMARK   11  A    between atoms: C22_30  and  O5_31 
ROOT
HETATM    1  C7  UNL     1      13.864  12.831  37.932  1.00  0.00     0.142 C 
HETATM    2  C8  UNL     1      12.957  13.544  36.920  1.00  0.00     0.134 C 
HETATM    3  N1  UNL     1      13.528  14.805  36.681  1.00  0.00    -0.415 N 
ATOM      4  H1  UNL     1      13.113  15.633  37.109  1.00  0.00     0.153 HD
HETATM    5  C9  UNL     1      14.658  14.944  35.865  1.00  0.00     0.086 C 
HETATM    6  C10 UNL     1      14.217  15.803  34.702  1.00  0.00     0.062 C 
HETATM    7  C11 UNL     1      15.147  15.954  33.601  1.00  0.00    -0.046 C 
HETATM    8  C20 UNL     1      16.238  15.257  33.485  1.00  0.00    -0.064 C 
HETATM    9  C21 UNL     1      17.171  15.418  32.348  1.00  0.00     0.067 C 
HETATM   10  C22 UNL     1      17.934  14.137  32.011  1.00  0.00     0.122 C 
HETATM   11  C23 UNL     1      18.518  13.534  33.228  1.00  0.00     0.033 C 
HETATM   12  C24 UNL     1      17.396  13.137  34.195  1.00  0.00     0.016 C 
HETATM   13  C25 UNL     1      16.568  14.311  34.573  1.00  0.00    -0.014 C 
HETATM   14  C26 UNL     1      17.395  15.120  35.570  1.00  0.00     0.020 C 
HETATM   15  C27 UNL     1      15.315  13.757  35.280  1.00  0.00     0.027 C 
HETATM   16  C28 UNL     1      15.802  12.687  36.156  1.00  0.00     0.086 C 
HETATM   17  C29 UNL     1      14.833  12.102  37.097  1.00  0.00     0.140 C 
HETATM   18  O6  UNL     1      14.791  10.890  37.232  1.00  0.00    -0.297 OA
ENDROOT
BRANCH   7  19
HETATM   19  C12 UNL     1      14.723  17.044  32.569  1.00  0.00     0.153 C 
BRANCH  19  20
HETATM   20  C13 UNL     1      14.866  18.305  33.265  1.00  0.00     0.063 C 
BRANCH  20  21
HETATM   21  C14 UNL     1      15.973  19.204  32.955  1.00  0.00    -0.025 C 
HETATM   22  C15 UNL     1      17.240  19.076  33.217  1.00  0.00     0.006 C 
BRANCH  22  23
HETATM   23  C16 UNL     1      18.183  20.184  32.771  1.00  0.00     0.068 C 
HETATM   24  C17 UNL     1      19.247  19.514  31.939  1.00  0.00     0.050 C 
HETATM   25  C18 UNL     1      17.449  21.205  31.953  1.00  0.00     0.050 C 
BRANCH  23  26
HETATM   26  O3  UNL     1      18.793  20.784  33.865  1.00  0.00    -0.387 OA
ATOM     27  H3  UNL     1      18.925  21.712  33.711  1.00  0.00     0.211 HD
ENDBRANCH  23  26
ENDBRANCH  22  23
ENDBRANCH  20  21
ENDBRANCH  19  20
BRANCH  19  28
HETATM   28  O4  UNL     1      13.635  16.650  31.901  1.00  0.00    -0.386 OA
HETATM   29  C19 UNL     1      13.972  16.264  30.581  1.00  0.00     0.202 C 
ENDBRANCH  19  28
ENDBRANCH   7  19
BRANCH  10  30
HETATM   30  O5  UNL     1      18.962  14.471  31.135  1.00  0.00    -0.395 OA
ATOM     31  H5  UNL     1      19.778  14.452  31.623  1.00  0.00     0.210 HD
ENDBRANCH  10  30
BRANCH   1  32
HETATM   32  C6  UNL     1      13.098  12.011  38.872  1.00  0.00     0.140 C 
HETATM   33  O2  UNL     1      12.177  11.333  38.477  1.00  0.00    -0.297 OA
BRANCH  32  34
HETATM   34  C5  UNL     1      13.485  12.039  40.306  1.00  0.00     0.091 C 
BRANCH  34  35
HETATM   35  C4  UNL     1      13.510  13.450  40.870  1.00  0.00     0.056 A 
HETATM   36  C2  UNL     1      12.177  13.921  41.336  1.00  0.00    -0.053 A 
HETATM   37  C1  UNL     1      10.936  14.315  41.222  1.00  0.00     0.017 C 
HETATM   38  C3  UNL     1      13.337  13.624  42.294  1.00  0.00     0.155 A 
BRANCH  38  39
HETATM   39  O1  UNL     1      13.206  12.524  43.113  1.00  0.00    -0.391 OA
ATOM     40  H1  UNL     1      13.995  12.204  43.535  1.00  0.00     0.210 HD
ENDBRANCH  38  39
ENDBRANCH  34  35
ENDBRANCH  32  34
ENDBRANCH   1  32
TORSDOF 11
ENDMDL
MODEL 2
REMARK VINA RESULT: -8.961037747      2.474      8.821
REMARK  11 active torsions:
REMARK  status: ('A' for Active; 'I' for Inactive)
REMARK    1  A    between atoms: C3_3  and  O1_4 
REMARK    2  A    between atoms: C4_6  and  C5_7 
REMARK    3  A    between atoms: C5_7  and  C6_8 
REMARK    4  A    between atoms: C6_8  and  C7_10 
REMARK    5  A    between atoms: C11_16  and  C12_17 
REMARK    6  A    between atoms: C12_17  and  C13_18 
REMARK    7  A    between atoms: C12_17  and  O4_26 
REMARK    8  A    between atoms: C13_18  and  C14_19 
REMARK    9  A    between atoms: C15_20  and  C16_21 
REMARK   10  A    between atoms: C16_21  and  O3_24 
REMARK   11  A    between atoms: C22_30  and  O5_31 
ROOT
HETATM    1  C7  UNL     1      17.153  14.010  34.180  1.00  0.00     0.142 C 
HETATM    2  C8  UNL     1      16.674  14.824  35.390  1.00  0.00     0.134 C 
HETATM    3  N1  UNL     1      15.298  14.577  35.526  1.00  0.00    -0.415 N 
ATOM      4  H1  UNL     1      14.629  15.287  35.225  1.00  0.00     0.153 HD
HETATM    5  C9  UNL     1      14.828  13.374  36.066  1.00  0.00     0.086 C 
HETATM    6  C10 UNL     1      14.077  13.756  37.321  1.00  0.00     0.062 C 
HETATM    7  C11 UNL     1      13.639  12.678  38.185  1.00  0.00    -0.046 C 
HETATM    8  C20 UNL     1      14.011  11.442  38.031  1.00  0.00    -0.064 C 
HETATM    9  C21 UNL     1      13.561  10.355  38.929  1.00  0.00     0.067 C 
HETATM   10  C22 UNL     1      14.575   9.218  39.050  1.00  0.00     0.122 C 
HETATM   11  C23 UNL     1      15.043   8.783  37.716  1.00  0.00     0.033 C 
HETATM   12  C24 UNL     1      15.764   9.944  37.021  1.00  0.00     0.016 C 
HETATM   13  C25 UNL     1      14.873  11.123  36.872  1.00  0.00    -0.014 C 
HETATM   14  C26 UNL     1      13.908  10.795  35.734  1.00  0.00     0.020 C 
HETATM   15  C27 UNL     1      15.771  12.304  36.455  1.00  0.00     0.027 C 
HETATM   16  C28 UNL     1      16.701  11.757  35.463  1.00  0.00     0.086 C 
HETATM   17  C29 UNL     1      17.562  12.717  34.754  1.00  0.00     0.140 C 
HETATM   18  O6  UNL     1      18.744  12.457  34.600  1.00  0.00    -0.297 OA
ENDROOT
BRANCH   7  19
HETATM   19  C12 UNL     1      12.667  13.137  39.314  1.00  0.00     0.153 C 
BRANCH  19  20
HETATM   20  C13 UNL     1      11.435  13.487  38.638  1.00  0.00     0.063 C 
BRANCH  20  21
HETATM   21  C14 UNL     1      10.747  12.516  37.794  1.00  0.00    -0.025 C 
HETATM   22  C15 UNL     1      10.520  12.548  36.514  1.00  0.00     0.006 C 
BRANCH  22  23
HETATM   23  C16 UNL     1       9.769  11.382  35.887  1.00  0.00     0.068 C 
HETATM   24  C17 UNL     1      10.065  11.444  34.410  1.00  0.00     0.050 C 
HETATM   25  C18 UNL     1      10.245  10.079  36.458  1.00  0.00     0.050 C 
BRANCH  23  26
HETATM   26  O3  UNL     1       8.399  11.522  36.067  1.00  0.00    -0.387 OA
ATOM     27  H3  UNL     1       8.177  11.502  36.991  1.00  0.00     0.211 HD
ENDBRANCH  23  26
ENDBRANCH  22  23
ENDBRANCH  20  21
ENDBRANCH  19  20
BRANCH  19  28
HETATM   28  O4  UNL     1      13.311  13.909  40.194  1.00  0.00    -0.386 OA
HETATM   29  C19 UNL     1      13.529  13.210  41.405  1.00  0.00     0.202 C 
ENDBRANCH  19  28
ENDBRANCH   7  19
BRANCH  10  30
HETATM   30  O5  UNL     1      13.943   8.149  39.677  1.00  0.00    -0.395 OA
ATOM     31  H5  UNL     1      14.103   7.370  39.156  1.00  0.00     0.210 HD
ENDBRANCH  10  30
BRANCH   1  32
HETATM   32  C6  UNL     1      18.185  14.716  33.419  1.00  0.00     0.140 C 
HETATM   33  O2  UNL     1      18.938  15.481  33.978  1.00  0.00    -0.297 OA
BRANCH  32  34
HETATM   34  C5  UNL     1      18.275  14.466  31.957  1.00  0.00     0.091 C 
BRANCH  34  35
HETATM   35  C4  UNL     1      16.948  14.691  31.249  1.00  0.00     0.056 A 
HETATM   36  C2  UNL     1      16.332  16.010  31.561  1.00  0.00    -0.053 A 
HETATM   37  C1  UNL     1      15.746  16.917  32.298  1.00  0.00     0.017 C 
HETATM   38  C3  UNL     1      16.896  15.660  30.179  1.00  0.00     0.155 A 
BRANCH  38  39
HETATM   39  O1  UNL     1      18.042  16.317  29.786  1.00  0.00    -0.391 OA
ATOM     40  H1  UNL     1      18.778  15.778  29.523  1.00  0.00     0.210 HD
ENDBRANCH  38  39
ENDBRANCH  34  35
ENDBRANCH  32  34
ENDBRANCH   1  32
TORSDOF 11
ENDMDL
MODEL 3
REMARK VINA RESULT: -8.892560400      1.226      1.473
REMARK  11 active torsions:
REMARK  status: ('A' for Active; 'I' for Inactive)
REMARK    1  A    between atoms: C3_3  and  O1_4 
REMARK    2  A    between atoms: C4_6  and  C5_7 
REMARK    3  A    between atoms: C5_7  and  C6_8 
REMARK    4  A    between atoms: C6_8  and  C7_10 
REMARK    5  A    between atoms: C11_16  and  C12_17 
REMARK    6  A    between atoms: C12_17  and  C13_18 
REMARK    7  A    between atoms: C12_17  and  O4_26 
REMARK    8  A    between atoms: C13_18  and  C14_19 
REMARK    9  A    between atoms: C15_20  and  C16_21 
REMARK   10  A    between atoms: C16_21  and  O3_24 
REMARK   11  A    between atoms: C22_30  and  O5_31 
ROOT
HETATM    1  C7  UNL     1      13.865  12.907  37.873  1.00  0.00     0.142 C 
HETATM    2  C8  UNL     1      12.996  13.694  36.882  1.00  0.00     0.134 C 
HETATM    3  N1  UNL     1      13.633  14.928  36.675  1.00  0.00    -0.415 N 
ATOM      4  H1  UNL     1      13.263  15.766  37.126  1.00  0.00     0.153 HD
HETATM    5  C9  UNL     1      14.768  15.029  35.861  1.00  0.00     0.086 C 
HETATM    6  C10 UNL     1      14.372  15.941  34.722  1.00  0.00     0.062 C 
HETATM    7  C11 UNL     1      15.308  16.073  33.623  1.00  0.00    -0.046 C 
HETATM    8  C20 UNL     1      16.361  15.322  33.486  1.00  0.00    -0.064 C 
HETATM    9  C21 UNL     1      17.300  15.463  32.352  1.00  0.00     0.067 C 
HETATM   10  C22 UNL     1      17.993  14.153  31.979  1.00  0.00     0.122 C 
HETATM   11  C23 UNL     1      18.546  13.488  33.179  1.00  0.00     0.033 C 
HETATM   12  C24 UNL     1      17.405  13.126  34.137  1.00  0.00     0.016 C 
HETATM   13  C25 UNL     1      16.641  14.331  34.548  1.00  0.00    -0.014 C 
HETATM   14  C26 UNL     1      17.510  15.069  35.564  1.00  0.00     0.020 C 
HETATM   15  C27 UNL     1      15.361  13.825  35.243  1.00  0.00     0.027 C 
HETATM   16  C28 UNL     1      15.791  12.709  36.089  1.00  0.00     0.086 C 
HETATM   17  C29 UNL     1      14.793  12.150  37.016  1.00  0.00     0.140 C 
HETATM   18  O6  UNL     1      14.688  10.939  37.119  1.00  0.00    -0.297 OA
ENDROOT
BRANCH   7  19
HETATM   19  C12 UNL     1      14.942  17.210  32.622  1.00  0.00     0.153 C 
BRANCH  19  20
HETATM   20  C13 UNL     1      15.343  18.438  33.275  1.00  0.00     0.063 C 
BRANCH  20  21
HETATM   21  C14 UNL     1      15.525  19.665  32.505  1.00  0.00    -0.025 C 
HETATM   22  C15 UNL     1      14.658  20.341  31.813  1.00  0.00     0.006 C 
BRANCH  22  23
HETATM   23  C16 UNL     1      15.130  21.601  31.101  1.00  0.00     0.068 C 
HETATM   24  C17 UNL     1      16.578  21.775  31.480  1.00  0.00     0.050 C 
HETATM   25  C18 UNL     1      14.996  21.449  29.615  1.00  0.00     0.050 C 
BRANCH  23  26
HETATM   26  O3  UNL     1      14.423  22.712  31.542  1.00  0.00    -0.387 OA
ATOM     27  H3  UNL     1      14.282  22.672  32.481  1.00  0.00     0.211 HD
ENDBRANCH  23  26
ENDBRANCH  22  23
ENDBRANCH  20  21
ENDBRANCH  19  20
BRANCH  19  28
HETATM   28  O4  UNL     1      13.742  16.981  32.080  1.00  0.00    -0.386 OA
HETATM   29  C19 UNL     1      13.876  16.485  30.761  1.00  0.00     0.202 C 
ENDBRANCH  19  28
ENDBRANCH   7  19
BRANCH  10  30
HETATM   30  O5  UNL     1      19.037  14.455  31.110  1.00  0.00    -0.395 OA
ATOM     31  H5  UNL     1      19.854  14.300  31.571  1.00  0.00     0.210 HD
ENDBRANCH  10  30
BRANCH   1  32
HETATM   32  C6  UNL     1      13.058  12.104  38.792  1.00  0.00     0.140 C 
HETATM   33  O2  UNL     1      12.101  11.487  38.382  1.00  0.00    -0.297 OA
BRANCH  32  34
HETATM   34  C5  UNL     1      13.447  12.072  40.226  1.00  0.00     0.091 C 
BRANCH  34  35
HETATM   35  C4  UNL     1      13.473  13.458  40.848  1.00  0.00     0.056 A 
HETATM   36  C2  UNL     1      12.140  13.910  41.332  1.00  0.00    -0.053 A 
HETATM   37  C1  UNL     1      10.898  14.310  41.233  1.00  0.00     0.017 C 
HETATM   38  C3  UNL     1      13.299  13.573  42.278  1.00  0.00     0.155 A 
BRANCH  38  39
HETATM   39  O1  UNL     1      13.166  12.439  43.050  1.00  0.00    -0.391 OA
ATOM     40  H1  UNL     1      12.826  12.555  43.930  1.00  0.00     0.210 HD
ENDBRANCH  38  39
ENDBRANCH  34  35
ENDBRANCH  32  34
ENDBRANCH   1  32
TORSDOF 11
ENDMDL
MODEL 4
REMARK VINA RESULT: -8.879605171      2.628      9.099
REMARK  11 active torsions:
REMARK  status: ('A' for Active; 'I' for Inactive)
REMARK    1  A    between atoms: C3_3  and  O1_4 
REMARK    2  A    between atoms: C4_6  and  C5_7 
REMARK    3  A    between atoms: C5_7  and  C6_8 
REMARK    4  A    between atoms: C6_8  and  C7_10 
REMARK    5  A    between atoms: C11_16  and  C12_17 
REMARK    6  A    between atoms: C12_17  and  C13_18 
REMARK    7  A    between atoms: C12_17  and  O4_26 
REMARK    8  A    between atoms: C13_18  and  C14_19 
REMARK    9  A    between atoms: C15_20  and  C16_21 
REMARK   10  A    between atoms: C16_21  and  O3_24 
REMARK   11  A    between atoms: C22_30  and  O5_31 
ROOT
HETATM    1  C7  UNL     1      17.343  13.906  34.154  1.00  0.00     0.142 C 
HETATM    2  C8  UNL     1      16.804  14.751  35.317  1.00  0.00     0.134 C 
HETATM    3  N1  UNL     1      15.424  14.501  35.395  1.00  0.00    -0.415 N 
ATOM      4  H1  UNL     1      14.768  15.198  35.044  1.00  0.00     0.153 HD
HETATM    5  C9  UNL     1      14.935  13.310  35.947  1.00  0.00     0.086 C 
HETATM    6  C10 UNL     1      14.124  13.724  37.155  1.00  0.00     0.062 C 
HETATM    7  C11 UNL     1      13.651  12.669  38.027  1.00  0.00    -0.046 C 
HETATM    8  C20 UNL     1      14.034  11.430  37.926  1.00  0.00    -0.064 C 
HETATM    9  C21 UNL     1      13.548  10.367  38.833  1.00  0.00     0.067 C 
HETATM   10  C22 UNL     1      14.559   9.239  39.033  1.00  0.00     0.122 C 
HETATM   11  C23 UNL     1      15.091   8.769  37.735  1.00  0.00     0.033 C 
HETATM   12  C24 UNL     1      15.838   9.914  37.041  1.00  0.00     0.016 C 
HETATM   13  C25 UNL     1      14.951  11.083  36.818  1.00  0.00    -0.014 C 
HETATM   14  C26 UNL     1      14.041  10.718  35.647  1.00  0.00     0.020 C 
HETATM   15  C27 UNL     1      15.862  12.257  36.410  1.00  0.00     0.027 C 
HETATM   16  C28 UNL     1      16.840  11.687  35.478  1.00  0.00     0.086 C 
HETATM   17  C29 UNL     1      17.729  12.631  34.782  1.00  0.00     0.140 C 
HETATM   18  O6  UNL     1      18.918  12.374  34.691  1.00  0.00    -0.297 OA
ENDROOT
BRANCH   7  19
HETATM   19  C12 UNL     1      12.625  13.153  39.096  1.00  0.00     0.153 C 
BRANCH  19  20
HETATM   20  C13 UNL     1      11.521  13.710  38.342  1.00  0.00     0.063 C 
BRANCH  20  21
HETATM   21  C14 UNL     1      10.142  13.403  38.707  1.00  0.00    -0.025 C 
HETATM   22  C15 UNL     1       9.083  13.342  37.956  1.00  0.00     0.006 C 
BRANCH  22  23
HETATM   23  C16 UNL     1       7.754  12.995  38.612  1.00  0.00     0.068 C 
HETATM   24  C17 UNL     1       6.694  13.269  37.575  1.00  0.00     0.050 C 
HETATM   25  C18 UNL     1       7.725  11.550  39.014  1.00  0.00     0.050 C 
BRANCH  23  26
HETATM   26  O3  UNL     1       7.517  13.811  39.710  1.00  0.00    -0.387 OA
ATOM     27  H3  UNL     1       6.857  14.465  39.509  1.00  0.00     0.211 HD
ENDBRANCH  23  26
ENDBRANCH  22  23
ENDBRANCH  20  21
ENDBRANCH  19  20
BRANCH  19  28
HETATM   28  O4  UNL     1      13.258  13.765  40.101  1.00  0.00    -0.386 OA
HETATM   29  C19 UNL     1      13.001  13.107  41.328  1.00  0.00     0.202 C 
ENDBRANCH  19  28
ENDBRANCH   7  19
BRANCH  10  30
HETATM   30  O5  UNL     1      13.903   8.184  39.660  1.00  0.00    -0.395 OA
ATOM     31  H5  UNL     1      13.116   8.531  40.065  1.00  0.00     0.210 HD
ENDBRANCH  10  30
BRANCH   1  32
HETATM   32  C6  UNL     1      18.405  14.596  33.422  1.00  0.00     0.140 C 
HETATM   33  O2  UNL     1      19.248  15.225  34.021  1.00  0.00    -0.297 OA
BRANCH  32  34
HETATM   34  C5  UNL     1      18.415  14.499  31.939  1.00  0.00     0.091 C 
BRANCH  34  35
HETATM   35  C4  UNL     1      17.023  14.632  31.343  1.00  0.00     0.056 A 
HETATM   36  C2  UNL     1      16.376  15.938  31.646  1.00  0.00    -0.053 A 
HETATM   37  C1  UNL     1      15.814  16.855  32.390  1.00  0.00     0.017 C 
HETATM   38  C3  UNL     1      16.833  15.542  30.237  1.00  0.00     0.155 A 
BRANCH  38  39
HETATM   39  O1  UNL     1      17.909  16.227  29.714  1.00  0.00    -0.391 OA
ATOM     40  H1  UNL     1      17.718  17.001  29.197  1.00  0.00     0.210 HD
ENDBRANCH  38  39
ENDBRANCH  34  35
ENDBRANCH  32  34
ENDBRANCH   1  32
TORSDOF 11
ENDMDL
MODEL 5
REMARK VINA RESULT: -8.794293151      2.695      9.054
REMARK  11 active torsions:
REMARK  status: ('A' for Active; 'I' for Inactive)
REMARK    1  A    between atoms: C3_3  and  O1_4 
REMARK    2  A    between atoms: C4_6  and  C5_7 
REMARK    3  A    between atoms: C5_7  and  C6_8 
REMARK    4  A    between atoms: C6_8  and  C7_10 
REMARK    5  A    between atoms: C11_16  and  C12_17 
REMARK    6  A    between atoms: C12_17  and  C13_18 
REMARK    7  A    between atoms: C12_17  and  O4_26 
REMARK    8  A    between atoms: C13_18  and  C14_19 
REMARK    9  A    between atoms: C15_20  and  C16_21 
REMARK   10  A    between atoms: C16_21  and  O3_24 
REMARK   11  A    between atoms: C22_30  and  O5_31 
ROOT
HETATM    1  C7  UNL     1      16.943  14.363  34.368  1.00  0.00     0.142 C 
HETATM    2  C8  UNL     1      16.529  15.065  35.669  1.00  0.00     0.134 C 
HETATM    3  N1  UNL     1      15.158  14.821  35.843  1.00  0.00    -0.415 N 
ATOM      4  H1  UNL     1      14.487  15.563  35.641  1.00  0.00     0.153 HD
HETATM    5  C9  UNL     1      14.695  13.577  36.290  1.00  0.00     0.086 C 
HETATM    6  C10 UNL     1      14.005  13.849  37.608  1.00  0.00     0.062 C 
HETATM    7  C11 UNL     1      13.590  12.699  38.387  1.00  0.00    -0.046 C 
HETATM    8  C20 UNL     1      13.936  11.479  38.101  1.00  0.00    -0.064 C 
HETATM    9  C21 UNL     1      13.511  10.317  38.914  1.00  0.00     0.067 C 
HETATM   10  C22 UNL     1      14.512   9.163  38.882  1.00  0.00     0.122 C 
HETATM   11  C23 UNL     1      14.915   8.850  37.494  1.00  0.00     0.033 C 
HETATM   12  C24 UNL     1      15.621  10.063  36.878  1.00  0.00     0.016 C 
HETATM   13  C25 UNL     1      14.742  11.260  36.880  1.00  0.00    -0.014 C 
HETATM   14  C26 UNL     1      13.723  11.051  35.762  1.00  0.00     0.020 C 
HETATM   15  C27 UNL     1      15.637  12.466  36.534  1.00  0.00     0.027 C 
HETATM   16  C28 UNL     1      16.515  12.004  35.455  1.00  0.00     0.086 C 
HETATM   17  C29 UNL     1      17.357  13.018  34.800  1.00  0.00     0.140 C 
HETATM   18  O6  UNL     1      18.528  12.762  34.569  1.00  0.00    -0.297 OA
ENDROOT
BRANCH   7  19
HETATM   19  C12 UNL     1      12.675  13.060  39.596  1.00  0.00     0.153 C 
BRANCH  19  20
HETATM   20  C13 UNL     1      11.418  13.478  39.013  1.00  0.00     0.063 C 
BRANCH  20  21
HETATM   21  C14 UNL     1      10.688  12.596  38.107  1.00  0.00    -0.025 C 
HETATM   22  C15 UNL     1      10.453  12.730  36.836  1.00  0.00     0.006 C 
BRANCH  22  23
HETATM   23  C16 UNL     1       9.654  11.641  36.133  1.00  0.00     0.068 C 
HETATM   24  C17 UNL     1      10.032  11.723  34.677  1.00  0.00     0.050 C 
HETATM   25  C18 UNL     1      10.004  10.290  36.685  1.00  0.00     0.050 C 
BRANCH  23  26
HETATM   26  O3  UNL     1       8.291  11.876  36.249  1.00  0.00    -0.387 OA
ATOM     27  H3  UNL     1       7.822  11.519  35.503  1.00  0.00     0.211 HD
ENDBRANCH  23  26
ENDBRANCH  22  23
ENDBRANCH  20  21
ENDBRANCH  19  20
BRANCH  19  28
HETATM   28  O4  UNL     1      13.367  13.745  40.511  1.00  0.00    -0.386 OA
HETATM   29  C19 UNL     1      13.563  12.965  41.676  1.00  0.00     0.202 C 
ENDBRANCH  19  28
ENDBRANCH   7  19
BRANCH  10  30
HETATM   30  O5  UNL     1      13.893   8.046  39.435  1.00  0.00    -0.395 OA
ATOM     31  H5  UNL     1      13.009   8.294  39.677  1.00  0.00     0.210 HD
ENDBRANCH  10  30
BRANCH   1  32
HETATM   32  C6  UNL     1      17.950  15.127  33.630  1.00  0.00     0.140 C 
HETATM   33  O2  UNL     1      18.966  15.487  34.181  1.00  0.00    -0.297 OA
BRANCH  32  34
HETATM   34  C5  UNL     1      17.686  15.441  32.201  1.00  0.00     0.091 C 
BRANCH  34  35
HETATM   35  C4  UNL     1      18.966  15.545  31.388  1.00  0.00     0.056 A 
HETATM   36  C2  UNL     1      18.858  16.490  30.242  1.00  0.00    -0.053 A 
HETATM   37  C1  UNL     1      18.444  16.927  29.081  1.00  0.00     0.017 C 
HETATM   38  C3  UNL     1      19.735  16.766  31.469  1.00  0.00     0.155 A 
BRANCH  38  39
HETATM   39  O1  UNL     1      19.331  17.781  32.310  1.00  0.00    -0.391 OA
ATOM     40  H1  UNL     1      19.342  17.598  33.242  1.00  0.00     0.210 HD
ENDBRANCH  38  39
ENDBRANCH  34  35
ENDBRANCH  32  34
ENDBRANCH   1  32
TORSDOF 11
ENDMDL
