MODEL 1
REMARK VINA RESULT: -7.326566328      0.000      0.000
REMARK  15 active torsions:
REMARK  status: ('A' for Active; 'I' for Inactive)
REMARK    1  A    between atoms: C3_3  and  O1_4 
REMARK    2  A    between atoms: C5_8  and  C6_9 
REMARK    3  A    between atoms: C6_9  and  O3_10 
REMARK    4  A    between atoms: C6_9  and  O4_12 
REMARK    5  A    between atoms: C7_14  and  N1_15 
REMARK    6  A    between atoms: C8_19  and  N5_20 
REMARK    7  A    between atoms: N6_24  and  C9_25 
REMARK    8  A    between atoms: N9_30  and  C10_31 
REMARK    9  A    between atoms: C11_34  and  N11_35 
REMARK   10  A    between atoms: C12_38  and  N12_39 
REMARK   11  A    between atoms: C14_46  and  S1_47 
REMARK   12  A    between atoms: S1_47  and  C15_48 
REMARK   13  A    between atoms: C15_48  and  C16_49 
REMARK   14  A    between atoms: C16_49  and  C17_50 
REMARK   15  A    between atoms: C17_50  and  O7_51 
ROOT
HETATM    1  C9  UNL     1      -9.238  39.567 -46.060  1.00  0.00     0.166 A 
HETATM    2  N7  UNL     1      -9.491  40.409 -47.120  1.00  0.00    -0.267 N 
ATOM      3  H7  UNL     1     -10.364  40.904 -47.302  1.00  0.00     0.190 HD
HETATM    4  N8  UNL     1      -8.401  40.456 -47.854  1.00  0.00    -0.219 N 
ATOM      5  H8  UNL     1      -8.303  41.005 -48.709  1.00  0.00     0.209 HD
HETATM    6  N9  UNL     1      -7.456  39.701 -47.340  1.00  0.00    -0.061 N 
HETATM    7  C14 UNL     1      -7.976  39.127 -46.195  1.00  0.00     0.158 A 
ENDROOT
BRANCH   1   8
HETATM    8  N6  UNL     1     -10.248  39.327 -45.108  1.00  0.00    -0.279 N 
HETATM    9  C2  UNL     1     -11.044  38.260 -45.264  1.00  0.00     0.053 A 
HETATM   10  C1  UNL     1     -10.838  37.299 -46.407  1.00  0.00     0.072 C 
HETATM   11  C3  UNL     1     -12.030  37.984 -44.361  1.00  0.00     0.140 A 
HETATM   12  C4  UNL     1     -12.213  38.797 -43.280  1.00  0.00     0.221 A 
HETATM   13  O2  UNL     1     -13.138  38.522 -42.454  1.00  0.00    -0.284 OA
HETATM   14  C5  UNL     1     -11.386  39.914 -43.103  1.00  0.00     0.095 A 
HETATM   15  C7  UNL     1     -10.401  40.147 -44.054  1.00  0.00     0.147 A 
BRANCH  11  16
HETATM   16  O1  UNL     1     -12.872  36.866 -44.520  1.00  0.00    -0.355 OA
ATOM     17  H1  UNL     1     -13.219  36.401 -43.767  1.00  0.00     0.218 HD
ENDBRANCH  11  16
BRANCH  14  18
HETATM   18  C6  UNL     1     -11.650  40.710 -41.908  1.00  0.00     0.296 C 
BRANCH  18  19
HETATM   19  O3  UNL     1     -10.758  41.750 -41.674  1.00  0.00    -0.367 OA
ATOM     20  H3  UNL     1     -11.111  42.625 -41.788  1.00  0.00     0.213 HD
ENDBRANCH  18  19
BRANCH  18  21
HETATM   21  O4  UNL     1     -11.481  39.855 -40.772  1.00  0.00    -0.367 OA
ATOM     22  H4  UNL     1     -12.000  40.214 -40.062  1.00  0.00     0.213 HD
ENDBRANCH  18  21
ENDBRANCH  14  18
BRANCH  15  23
HETATM   23  N1  UNL     1      -9.504  41.244 -43.848  1.00  0.00    -0.215 N 
HETATM   24  N2  UNL     1      -8.375  41.256 -43.053  1.00  0.00    -0.005 NA
HETATM   25  N3  UNL     1      -7.951  42.531 -42.887  1.00  0.00    -0.013 NA
HETATM   26  N4  UNL     1      -8.888  43.381 -43.458  1.00  0.00    -0.072 NA
HETATM   27  C8  UNL     1      -9.594  42.542 -44.441  1.00  0.00     0.415 C 
BRANCH  27  28
HETATM   28  N5  UNL     1     -10.888  43.080 -44.637  1.00  0.00    -0.041 N 
ATOM     29  H53 UNL     1     -11.561  42.318 -44.719  1.00  0.00     0.278 HD
ATOM     30  H52 UNL     1     -11.204  43.523 -43.774  1.00  0.00     0.278 HD
ATOM     31  H51 UNL     1     -11.014  43.728 -45.414  1.00  0.00     0.278 HD
ENDBRANCH  27  28
ENDBRANCH  15  23
ENDBRANCH   1   8
BRANCH   7  32
HETATM   32  S1  UNL     1      -7.017  38.048 -45.208  1.00  0.00    -0.106 SA
BRANCH  32  33
HETATM   33  C15 UNL     1      -7.443  36.356 -45.083  1.00  0.00     0.083 C 
BRANCH  33  34
HETATM   34  C16 UNL     1      -7.657  35.565 -46.335  1.00  0.00     0.036 C 
BRANCH  34  35
HETATM   35  C17 UNL     1      -6.408  34.814 -46.759  1.00  0.00     0.165 C 
BRANCH  35  36
HETATM   36  O7  UNL     1      -5.272  35.348 -46.180  1.00  0.00    -0.401 OA
ATOM     37  H7  UNL     1      -4.507  35.222 -46.728  1.00  0.00     0.209 HD
ENDBRANCH  35  36
ENDBRANCH  34  35
ENDBRANCH  33  34
ENDBRANCH  32  33
ENDBRANCH   7  32
BRANCH   6  38
HETATM   38  C10 UNL     1      -6.140  39.468 -47.806  1.00  0.00     0.708 A 
HETATM   39  N10 UNL     1      -5.384  40.510 -48.259  1.00  0.00    -0.172 N 
HETATM   40  C11 UNL     1      -4.132  40.317 -48.708  1.00  0.00     0.151 A 
ATOM     41  H10 UNL     1      -5.776  41.452 -48.257  1.00  0.00     0.186 HD
HETATM   42  C12 UNL     1      -3.549  39.068 -48.735  1.00  0.00     0.188 A 
HETATM   43  C13 UNL     1      -4.327  38.009 -48.270  1.00  0.00     0.168 A 
HETATM   44  N13 UNL     1      -3.722  36.734 -48.302  1.00  0.00    -0.079 NA
HETATM   45  N14 UNL     1      -5.556  38.257 -47.838  1.00  0.00    -0.174 N 
ATOM     46  H14 UNL     1      -6.103  37.464 -47.503  1.00  0.00     0.185 HD
BRANCH  40  47
HETATM   47  N11 UNL     1      -3.393  41.302 -49.146  1.00  0.00    -0.383 N 
ATOM     48 2H11 UNL     1      -3.883  42.029 -49.667  1.00  0.00     0.157 HD
ATOM     49 1H11 UNL     1      -2.388  41.340 -48.977  1.00  0.00     0.157 HD
ENDBRANCH  40  47
BRANCH  42  50
HETATM   50  N12 UNL     1      -2.231  38.845 -49.204  1.00  0.00    -0.108 N 
HETATM   51  O5  UNL     1      -1.287  38.793 -48.395  1.00  0.00    -0.532 OA
HETATM   52  O6  UNL     1      -1.937  38.678 -50.536  1.00  0.00    -0.532 OA
ENDBRANCH  42  50
ENDBRANCH   6  38
TORSDOF 15
ENDMDL
MODEL 2
REMARK VINA RESULT: -7.135348263      9.185     13.202
REMARK  15 active torsions:
REMARK  status: ('A' for Active; 'I' for Inactive)
REMARK    1  A    between atoms: C3_3  and  O1_4 
REMARK    2  A    between atoms: C5_8  and  C6_9 
REMARK    3  A    between atoms: C6_9  and  O3_10 
REMARK    4  A    between atoms: C6_9  and  O4_12 
REMARK    5  A    between atoms: C7_14  and  N1_15 
REMARK    6  A    between atoms: C8_19  and  N5_20 
REMARK    7  A    between atoms: N6_24  and  C9_25 
REMARK    8  A    between atoms: N9_30  and  C10_31 
REMARK    9  A    between atoms: C11_34  and  N11_35 
REMARK   10  A    between atoms: C12_38  and  N12_39 
REMARK   11  A    between atoms: C14_46  and  S1_47 
REMARK   12  A    between atoms: S1_47  and  C15_48 
REMARK   13  A    between atoms: C15_48  and  C16_49 
REMARK   14  A    between atoms: C16_49  and  C17_50 
REMARK   15  A    between atoms: C17_50  and  O7_51 
ROOT
HETATM    1  C9  UNL     1     -10.913  29.974 -41.619  1.00  0.00     0.166 A 
HETATM    2  N7  UNL     1      -9.845  30.785 -41.309  1.00  0.00    -0.267 N 
ATOM      3  H7  UNL     1      -8.987  30.887 -41.851  1.00  0.00     0.190 HD
HETATM    4  N8  UNL     1     -10.134  31.405 -40.185  1.00  0.00    -0.219 N 
ATOM      5  H8  UNL     1      -9.519  32.071 -39.717  1.00  0.00     0.209 HD
HETATM    6  N9  UNL     1     -11.321  31.050 -39.746  1.00  0.00    -0.061 N 
HETATM    7  C14 UNL     1     -11.830  30.137 -40.651  1.00  0.00     0.158 A 
ENDROOT
BRANCH   1   8
HETATM    8  N6  UNL     1     -10.868  29.182 -42.783  1.00  0.00    -0.279 N 
HETATM    9  C2  UNL     1     -10.725  27.855 -42.658  1.00  0.00     0.053 A 
HETATM   10  C1  UNL     1     -10.664  27.207 -41.299  1.00  0.00     0.072 C 
HETATM   11  C3  UNL     1     -10.686  27.048 -43.759  1.00  0.00     0.140 A 
HETATM   12  C4  UNL     1     -10.796  27.590 -45.007  1.00  0.00     0.221 A 
HETATM   13  O2  UNL     1     -10.755  26.820 -46.016  1.00  0.00    -0.284 OA
HETATM   14  C5  UNL     1     -10.949  28.975 -45.152  1.00  0.00     0.095 A 
HETATM   15  C7  UNL     1     -10.981  29.747 -43.997  1.00  0.00     0.147 A 
BRANCH  11  16
HETATM   16  O1  UNL     1     -10.533  25.654 -43.635  1.00  0.00    -0.355 OA
ATOM     17  H1  UNL     1     -10.251  25.123 -44.371  1.00  0.00     0.218 HD
ENDBRANCH  11  16
BRANCH  14  18
HETATM   18  C6  UNL     1     -11.076  29.454 -46.525  1.00  0.00     0.296 C 
BRANCH  18  19
HETATM   19  O3  UNL     1     -12.059  28.832 -47.286  1.00  0.00    -0.367 OA
ATOM     20  H3  UNL     1     -12.061  27.882 -47.254  1.00  0.00     0.213 HD
ENDBRANCH  18  19
BRANCH  18  21
HETATM   21  O4  UNL     1      -9.861  29.132 -47.210  1.00  0.00    -0.367 OA
ATOM     22  H4  UNL     1     -10.089  28.613 -47.972  1.00  0.00     0.213 HD
ENDBRANCH  18  21
ENDBRANCH  14  18
BRANCH  15  23
HETATM   23  N1  UNL     1     -11.208  31.155 -44.128  1.00  0.00    -0.215 N 
HETATM   24  N2  UNL     1     -10.289  32.166 -43.933  1.00  0.00    -0.005 NA
HETATM   25  N3  UNL     1     -10.932  33.357 -43.871  1.00  0.00    -0.013 NA
HETATM   26  N4  UNL     1     -12.299  33.116 -43.882  1.00  0.00    -0.072 NA
HETATM   27  C8  UNL     1     -12.433  31.790 -44.506  1.00  0.00     0.415 C 
BRANCH  27  28
HETATM   28  N5  UNL     1     -13.637  31.204 -44.048  1.00  0.00    -0.041 N 
ATOM     29  H53 UNL     1     -13.474  30.220 -43.834  1.00  0.00     0.278 HD
ATOM     30  H52 UNL     1     -13.859  31.567 -43.121  1.00  0.00     0.278 HD
ATOM     31  H51 UNL     1     -14.457  31.287 -44.649  1.00  0.00     0.278 HD
ENDBRANCH  27  28
ENDBRANCH  15  23
ENDBRANCH   1   8
BRANCH   7  32
HETATM   32  S1  UNL     1     -13.410  29.423 -40.425  1.00  0.00    -0.106 SA
BRANCH  32  33
HETATM   33  C15 UNL     1     -14.794  30.050 -41.293  1.00  0.00     0.083 C 
BRANCH  33  34
HETATM   34  C16 UNL     1     -15.674  31.060 -40.627  1.00  0.00     0.036 C 
BRANCH  34  35
HETATM   35  C17 UNL     1     -15.557  32.431 -41.267  1.00  0.00     0.165 C 
BRANCH  35  36
HETATM   36  O7  UNL     1     -14.237  32.790 -41.466  1.00  0.00    -0.401 OA
ATOM     37  H7  UNL     1     -14.159  33.516 -42.073  1.00  0.00     0.209 HD
ENDBRANCH  35  36
ENDBRANCH  34  35
ENDBRANCH  33  34
ENDBRANCH  32  33
ENDBRANCH   7  32
BRANCH   6  38
HETATM   38  C10 UNL     1     -12.012  31.472 -38.585  1.00  0.00     0.708 A 
HETATM   39  N10 UNL     1     -13.134  32.241 -38.704  1.00  0.00    -0.172 N 
HETATM   40  C11 UNL     1     -13.808  32.656 -37.618  1.00  0.00     0.151 A 
ATOM     41  H10 UNL     1     -13.465  32.505 -39.632  1.00  0.00     0.186 HD
HETATM   42  C12 UNL     1     -13.409  32.331 -36.339  1.00  0.00     0.188 A 
HETATM   43  C13 UNL     1     -12.264  31.545 -36.227  1.00  0.00     0.168 A 
HETATM   44  N13 UNL     1     -11.863  31.217 -34.914  1.00  0.00    -0.079 NA
HETATM   45  N14 UNL     1     -11.637  31.163 -37.331  1.00  0.00    -0.174 N 
ATOM     46  H14 UNL     1     -10.802  30.588 -37.220  1.00  0.00     0.185 HD
BRANCH  40  47
HETATM   47  N11 UNL     1     -14.884  33.393 -37.710  1.00  0.00    -0.383 N 
ATOM     48 2H11 UNL     1     -14.758  34.315 -38.127  1.00  0.00     0.157 HD
ATOM     49 1H11 UNL     1     -15.794  33.066 -37.385  1.00  0.00     0.157 HD
ENDBRANCH  40  47
BRANCH  42  50
HETATM   50  N12 UNL     1     -14.108  32.759 -35.183  1.00  0.00    -0.108 N 
HETATM   51  O5  UNL     1     -15.081  32.101 -34.770  1.00  0.00    -0.532 OA
HETATM   52  O6  UNL     1     -13.757  33.886 -34.480  1.00  0.00    -0.532 OA
ENDBRANCH  42  50
ENDBRANCH   6  38
TORSDOF 15
ENDMDL
MODEL 3
REMARK VINA RESULT: -7.114501613      9.549     13.383
REMARK  15 active torsions:
REMARK  status: ('A' for Active; 'I' for Inactive)
REMARK    1  A    between atoms: C3_3  and  O1_4 
REMARK    2  A    between atoms: C5_8  and  C6_9 
REMARK    3  A    between atoms: C6_9  and  O3_10 
REMARK    4  A    between atoms: C6_9  and  O4_12 
REMARK    5  A    between atoms: C7_14  and  N1_15 
REMARK    6  A    between atoms: C8_19  and  N5_20 
REMARK    7  A    between atoms: N6_24  and  C9_25 
REMARK    8  A    between atoms: N9_30  and  C10_31 
REMARK    9  A    between atoms: C11_34  and  N11_35 
REMARK   10  A    between atoms: C12_38  and  N12_39 
REMARK   11  A    between atoms: C14_46  and  S1_47 
REMARK   12  A    between atoms: S1_47  and  C15_48 
REMARK   13  A    between atoms: C15_48  and  C16_49 
REMARK   14  A    between atoms: C16_49  and  C17_50 
REMARK   15  A    between atoms: C17_50  and  O7_51 
ROOT
HETATM    1  C9  UNL     1     -10.937  29.821 -41.608  1.00  0.00     0.166 A 
HETATM    2  N7  UNL     1      -9.783  30.428 -41.167  1.00  0.00    -0.267 N 
ATOM      3  H7  UNL     1      -8.875  30.406 -41.630  1.00  0.00     0.190 HD
HETATM    4  N8  UNL     1     -10.067  31.042 -40.039  1.00  0.00    -0.219 N 
ATOM      5  H8  UNL     1      -9.396  31.576 -39.487  1.00  0.00     0.209 HD
HETATM    6  N9  UNL     1     -11.331  30.874 -39.719  1.00  0.00    -0.061 N 
HETATM    7  C14 UNL     1     -11.899  30.096 -40.711  1.00  0.00     0.158 A 
ENDROOT
BRANCH   1   8
HETATM    8  N6  UNL     1     -10.918  29.080 -42.805  1.00  0.00    -0.279 N 
HETATM    9  C2  UNL     1     -10.808  27.745 -42.740  1.00  0.00     0.053 A 
HETATM   10  C1  UNL     1     -10.756  27.037 -41.411  1.00  0.00     0.072 C 
HETATM   11  C3  UNL     1     -10.794  26.987 -43.875  1.00  0.00     0.140 A 
HETATM   12  C4  UNL     1     -10.897  27.586 -45.098  1.00  0.00     0.221 A 
HETATM   13  O2  UNL     1     -10.880  26.860 -46.140  1.00  0.00    -0.284 OA
HETATM   14  C5  UNL     1     -11.017  28.979 -45.181  1.00  0.00     0.095 A 
HETATM   15  C7  UNL     1     -11.023  29.700 -43.993  1.00  0.00     0.147 A 
BRANCH  11  16
HETATM   16  O1  UNL     1     -10.676  25.585 -43.813  1.00  0.00    -0.355 OA
ATOM     17  H1  UNL     1     -10.265  25.095 -44.517  1.00  0.00     0.218 HD
ENDBRANCH  11  16
BRANCH  14  18
HETATM   18  C6  UNL     1     -11.138  29.521 -46.531  1.00  0.00     0.296 C 
BRANCH  18  19
HETATM   19  O3  UNL     1     -12.138  28.954 -47.314  1.00  0.00    -0.367 OA
ATOM     20  H3  UNL     1     -12.919  29.483 -47.424  1.00  0.00     0.213 HD
ENDBRANCH  18  19
BRANCH  18  21
HETATM   21  O4  UNL     1      -9.933  29.203 -47.235  1.00  0.00    -0.367 OA
ATOM     22  H4  UNL     1      -9.318  29.912 -47.088  1.00  0.00     0.213 HD
ENDBRANCH  18  21
ENDBRANCH  14  18
BRANCH  15  23
HETATM   23  N1  UNL     1     -11.216  31.118 -44.061  1.00  0.00    -0.215 N 
HETATM   24  N2  UNL     1     -10.256  32.096 -43.895  1.00  0.00    -0.005 NA
HETATM   25  N3  UNL     1     -10.857  33.300 -43.749  1.00  0.00    -0.013 NA
HETATM   26  N4  UNL     1     -12.228  33.099 -43.675  1.00  0.00    -0.072 NA
HETATM   27  C8  UNL     1     -12.444  31.799 -44.333  1.00  0.00     0.415 C 
BRANCH  27  28
HETATM   28  N5  UNL     1     -13.632  31.231 -43.815  1.00  0.00    -0.041 N 
ATOM     29  H53 UNL     1     -14.033  30.598 -44.506  1.00  0.00     0.278 HD
ATOM     30  H52 UNL     1     -13.396  30.576 -43.069  1.00  0.00     0.278 HD
ATOM     31  H51 UNL     1     -14.353  31.872 -43.485  1.00  0.00     0.278 HD
ENDBRANCH  27  28
ENDBRANCH  15  23
ENDBRANCH   1   8
BRANCH   7  32
HETATM   32  S1  UNL     1     -13.589  29.650 -40.654  1.00  0.00    -0.106 SA
BRANCH  32  33
HETATM   33  C15 UNL     1     -14.052  27.975 -40.453  1.00  0.00     0.083 C 
BRANCH  33  34
HETATM   34  C16 UNL     1     -14.971  27.349 -41.454  1.00  0.00     0.036 C 
BRANCH  34  35
HETATM   35  C17 UNL     1     -14.441  27.469 -42.871  1.00  0.00     0.165 C 
BRANCH  35  36
HETATM   36  O7  UNL     1     -13.997  26.252 -43.353  1.00  0.00    -0.401 OA
ATOM     37  H7  UNL     1     -13.959  26.243 -44.302  1.00  0.00     0.209 HD
ENDBRANCH  35  36
ENDBRANCH  34  35
ENDBRANCH  33  34
ENDBRANCH  32  33
ENDBRANCH   7  32
BRANCH   6  38
HETATM   38  C10 UNL     1     -12.045  31.359 -38.597  1.00  0.00     0.708 A 
HETATM   39  N10 UNL     1     -11.634  31.032 -37.337  1.00  0.00    -0.172 N 
HETATM   40  C11 UNL     1     -12.294  31.478 -36.255  1.00  0.00     0.151 A 
ATOM     41  H10 UNL     1     -10.812  30.440 -37.215  1.00  0.00     0.186 HD
HETATM   42  C12 UNL     1     -13.410  32.281 -36.356  1.00  0.00     0.188 A 
HETATM   43  C13 UNL     1     -13.822  32.610 -37.646  1.00  0.00     0.168 A 
HETATM   44  N13 UNL     1     -14.966  33.432 -37.741  1.00  0.00    -0.079 NA
HETATM   45  N14 UNL     1     -13.134  32.143 -38.679  1.00  0.00    -0.174 N 
ATOM     46  H14 UNL     1     -13.458  32.399 -39.612  1.00  0.00     0.185 HD
BRANCH  40  47
HETATM   47  N11 UNL     1     -11.917  31.177 -35.040  1.00  0.00    -0.383 N 
ATOM     48 2H11 UNL     1     -11.265  31.828 -34.601  1.00  0.00     0.157 HD
ATOM     49 1H11 UNL     1     -12.254  30.343 -34.560  1.00  0.00     0.157 HD
ENDBRANCH  40  47
BRANCH  42  50
HETATM   50  N12 UNL     1     -14.118  32.761 -35.227  1.00  0.00    -0.108 N 
HETATM   51  O5  UNL     1     -15.114  32.140 -34.811  1.00  0.00    -0.532 OA
HETATM   52  O6  UNL     1     -13.752  33.901 -34.552  1.00  0.00    -0.532 OA
ENDBRANCH  42  50
ENDBRANCH   6  38
TORSDOF 15
ENDMDL
MODEL 4
REMARK VINA RESULT: -7.106015276      1.065      1.941
REMARK  15 active torsions:
REMARK  status: ('A' for Active; 'I' for Inactive)
REMARK    1  A    between atoms: C3_3  and  O1_4 
REMARK    2  A    between atoms: C5_8  and  C6_9 
REMARK    3  A    between atoms: C6_9  and  O3_10 
REMARK    4  A    between atoms: C6_9  and  O4_12 
REMARK    5  A    between atoms: C7_14  and  N1_15 
REMARK    6  A    between atoms: C8_19  and  N5_20 
REMARK    7  A    between atoms: N6_24  and  C9_25 
REMARK    8  A    between atoms: N9_30  and  C10_31 
REMARK    9  A    between atoms: C11_34  and  N11_35 
REMARK   10  A    between atoms: C12_38  and  N12_39 
REMARK   11  A    between atoms: C14_46  and  S1_47 
REMARK   12  A    between atoms: S1_47  and  C15_48 
REMARK   13  A    between atoms: C15_48  and  C16_49 
REMARK   14  A    between atoms: C16_49  and  C17_50 
REMARK   15  A    between atoms: C17_50  and  O7_51 
ROOT
HETATM    1  C9  UNL     1      -9.812  39.755 -45.752  1.00  0.00     0.166 A 
HETATM    2  N7  UNL     1     -10.066  40.784 -46.631  1.00  0.00    -0.267 N 
ATOM      3  H7  UNL     1     -10.919  41.342 -46.677  1.00  0.00     0.190 HD
HETATM    4  N8  UNL     1      -9.007  40.916 -47.399  1.00  0.00    -0.219 N 
ATOM      5  H8  UNL     1      -8.916  41.605 -48.146  1.00  0.00     0.209 HD
HETATM    6  N9  UNL     1      -8.081  40.041 -47.076  1.00  0.00    -0.061 N 
HETATM    7  C14 UNL     1      -8.581  39.293 -46.026  1.00  0.00     0.158 A 
ENDROOT
BRANCH   1   8
HETATM    8  N6  UNL     1     -10.792  39.392 -44.807  1.00  0.00    -0.279 N 
HETATM    9  C2  UNL     1     -11.545  38.307 -45.040  1.00  0.00     0.053 A 
HETATM   10  C1  UNL     1     -11.320  37.457 -46.265  1.00  0.00     0.072 C 
HETATM   11  C3  UNL     1     -12.500  37.913 -44.149  1.00  0.00     0.140 A 
HETATM   12  C4  UNL     1     -12.697  38.623 -43.000  1.00  0.00     0.221 A 
HETATM   13  O2  UNL     1     -13.592  38.239 -42.185  1.00  0.00    -0.284 OA
HETATM   14  C5  UNL     1     -11.914  39.756 -42.741  1.00  0.00     0.095 A 
HETATM   15  C7  UNL     1     -10.959  40.112 -43.685  1.00  0.00     0.147 A 
BRANCH  11  16
HETATM   16  O1  UNL     1     -13.297  36.777 -44.389  1.00  0.00    -0.355 OA
ATOM     17  H1  UNL     1     -14.029  36.562 -43.823  1.00  0.00     0.218 HD
ENDBRANCH  11  16
BRANCH  14  18
HETATM   18  C6  UNL     1     -12.188  40.436 -41.479  1.00  0.00     0.296 C 
BRANCH  18  19
HETATM   19  O3  UNL     1     -11.425  40.015 -40.395  1.00  0.00    -0.367 OA
ATOM     20  H3  UNL     1     -10.956  39.198 -40.519  1.00  0.00     0.213 HD
ENDBRANCH  18  19
BRANCH  18  21
HETATM   21  O4  UNL     1     -13.529  40.114 -41.096  1.00  0.00    -0.367 OA
ATOM     22  H4  UNL     1     -13.516  39.870 -40.178  1.00  0.00     0.213 HD
ENDBRANCH  18  21
ENDBRANCH  14  18
BRANCH  15  23
HETATM   23  N1  UNL     1     -10.105  41.226 -43.400  1.00  0.00    -0.215 N 
HETATM   24  N2  UNL     1     -10.295  42.538 -43.784  1.00  0.00    -0.005 NA
HETATM   25  N3  UNL     1      -9.155  43.240 -43.578  1.00  0.00    -0.013 NA
HETATM   26  N4  UNL     1      -8.160  42.354 -43.189  1.00  0.00    -0.072 NA
HETATM   27  C8  UNL     1      -8.891  41.199 -42.643  1.00  0.00     0.415 C 
BRANCH  27  28
HETATM   28  N5  UNL     1      -8.070  40.053 -42.771  1.00  0.00    -0.041 N 
ATOM     29  H53 UNL     1      -8.490  39.277 -42.259  1.00  0.00     0.278 HD
ATOM     30  H52 UNL     1      -8.126  39.703 -43.728  1.00  0.00     0.278 HD
ATOM     31  H51 UNL     1      -7.091  40.145 -42.501  1.00  0.00     0.278 HD
ENDBRANCH  27  28
ENDBRANCH  15  23
ENDBRANCH   1   8
BRANCH   7  32
HETATM   32  S1  UNL     1      -7.639  38.013 -45.297  1.00  0.00    -0.106 SA
BRANCH  32  33
HETATM   33  C15 UNL     1      -7.959  36.341 -45.702  1.00  0.00     0.083 C 
BRANCH  33  34
HETATM   34  C16 UNL     1      -6.832  35.477 -46.172  1.00  0.00     0.036 C 
BRANCH  34  35
HETATM   35  C17 UNL     1      -7.082  34.914 -47.559  1.00  0.00     0.165 C 
BRANCH  35  36
HETATM   36  O7  UNL     1      -7.797  35.798 -48.345  1.00  0.00    -0.401 OA
ATOM     37  H7  UNL     1      -7.960  35.443 -49.211  1.00  0.00     0.209 HD
ENDBRANCH  35  36
ENDBRANCH  34  35
ENDBRANCH  33  34
ENDBRANCH  32  33
ENDBRANCH   7  32
BRANCH   6  38
HETATM   38  C10 UNL     1      -6.800  39.838 -47.642  1.00  0.00     0.708 A 
HETATM   39  N10 UNL     1      -6.437  38.595 -48.074  1.00  0.00    -0.172 N 
HETATM   40  C11 UNL     1      -5.226  38.375 -48.615  1.00  0.00     0.151 A 
ATOM     41  H10 UNL     1      -7.095  37.821 -47.984  1.00  0.00     0.186 HD
HETATM   42  C12 UNL     1      -4.295  39.381 -48.762  1.00  0.00     0.188 A 
HETATM   43  C13 UNL     1      -4.675  40.646 -48.319  1.00  0.00     0.168 A 
HETATM   44  N13 UNL     1      -3.715  41.670 -48.474  1.00  0.00    -0.079 NA
HETATM   45  N14 UNL     1      -5.881  40.808 -47.794  1.00  0.00    -0.174 N 
ATOM     46  H14 UNL     1      -6.133  41.745 -47.479  1.00  0.00     0.185 HD
BRANCH  40  47
HETATM   47  N11 UNL     1      -4.859  37.192 -49.034  1.00  0.00    -0.383 N 
ATOM     48 2H11 UNL     1      -5.514  36.715 -49.654  1.00  0.00     0.157 HD
ATOM     49 1H11 UNL     1      -3.972  36.771 -48.758  1.00  0.00     0.157 HD
ENDBRANCH  40  47
BRANCH  42  50
HETATM   50  N12 UNL     1      -3.015  39.167 -49.330  1.00  0.00    -0.108 N 
HETATM   51  O5  UNL     1      -2.843  39.341 -50.551  1.00  0.00    -0.532 OA
HETATM   52  O6  UNL     1      -1.930  38.771 -48.585  1.00  0.00    -0.532 OA
ENDBRANCH  42  50
ENDBRANCH   6  38
TORSDOF 15
ENDMDL
MODEL 5
REMARK VINA RESULT: -7.073763315      2.842      7.823
REMARK  15 active torsions:
REMARK  status: ('A' for Active; 'I' for Inactive)
REMARK    1  A    between atoms: C3_3  and  O1_4 
REMARK    2  A    between atoms: C5_8  and  C6_9 
REMARK    3  A    between atoms: C6_9  and  O3_10 
REMARK    4  A    between atoms: C6_9  and  O4_12 
REMARK    5  A    between atoms: C7_14  and  N1_15 
REMARK    6  A    between atoms: C8_19  and  N5_20 
REMARK    7  A    between atoms: N6_24  and  C9_25 
REMARK    8  A    between atoms: N9_30  and  C10_31 
REMARK    9  A    between atoms: C11_34  and  N11_35 
REMARK   10  A    between atoms: C12_38  and  N12_39 
REMARK   11  A    between atoms: C14_46  and  S1_47 
REMARK   12  A    between atoms: S1_47  and  C15_48 
REMARK   13  A    between atoms: C15_48  and  C16_49 
REMARK   14  A    between atoms: C16_49  and  C17_50 
REMARK   15  A    between atoms: C17_50  and  O7_51 
ROOT
HETATM    1  C9  UNL     1      -6.737  36.948 -44.988  1.00  0.00     0.166 A 
HETATM    2  N7  UNL     1      -5.715  37.565 -44.302  1.00  0.00    -0.267 N 
ATOM      3  H7  UNL     1      -4.834  37.137 -44.018  1.00  0.00     0.190 HD
HETATM    4  N8  UNL     1      -6.085  38.807 -44.079  1.00  0.00    -0.219 N 
ATOM      5  H8  UNL     1      -5.521  39.499 -43.585  1.00  0.00     0.209 HD
HETATM    6  N9  UNL     1      -7.280  39.038 -44.577  1.00  0.00    -0.061 N 
HETATM    7  C14 UNL     1      -7.708  37.860 -45.160  1.00  0.00     0.158 A 
ENDROOT
BRANCH   1   8
HETATM    8  N6  UNL     1      -6.607  35.595 -45.356  1.00  0.00    -0.279 N 
HETATM    9  C2  UNL     1      -6.656  34.656 -44.399  1.00  0.00     0.053 A 
HETATM   10  C1  UNL     1      -6.896  35.031 -42.959  1.00  0.00     0.072 C 
HETATM   11  C3  UNL     1      -6.544  33.332 -44.710  1.00  0.00     0.140 A 
HETATM   12  C4  UNL     1      -6.383  32.947 -46.010  1.00  0.00     0.221 A 
HETATM   13  O2  UNL     1      -6.279  31.709 -46.276  1.00  0.00    -0.284 OA
HETATM   14  C5  UNL     1      -6.334  33.917 -47.020  1.00  0.00     0.095 A 
HETATM   15  C7  UNL     1      -6.451  35.249 -46.645  1.00  0.00     0.147 A 
BRANCH  11  16
HETATM   16  O1  UNL     1      -6.592  32.342 -43.710  1.00  0.00    -0.355 OA
ATOM     17  H1  UNL     1      -6.719  31.426 -43.930  1.00  0.00     0.218 HD
ENDBRANCH  11  16
BRANCH  14  18
HETATM   18  C6  UNL     1      -6.177  33.403 -48.378  1.00  0.00     0.296 C 
BRANCH  18  19
HETATM   19  O3  UNL     1      -5.618  34.290 -49.291  1.00  0.00    -0.367 OA
ATOM     20  H3  UNL     1      -5.198  35.054 -48.914  1.00  0.00     0.213 HD
ENDBRANCH  18  19
BRANCH  18  21
HETATM   21  O4  UNL     1      -7.486  33.156 -48.902  1.00  0.00    -0.367 OA
ATOM     22  H4  UNL     1      -7.405  33.056 -49.843  1.00  0.00     0.213 HD
ENDBRANCH  18  21
ENDBRANCH  14  18
BRANCH  15  23
HETATM   23  N1  UNL     1      -6.473  36.244 -47.675  1.00  0.00    -0.215 N 
HETATM   24  N2  UNL     1      -7.470  36.454 -48.606  1.00  0.00    -0.005 NA
HETATM   25  N3  UNL     1      -7.016  37.283 -49.576  1.00  0.00    -0.013 NA
HETATM   26  N4  UNL     1      -5.664  37.510 -49.360  1.00  0.00    -0.072 NA
HETATM   27  C8  UNL     1      -5.469  37.232 -47.928  1.00  0.00     0.415 C 
BRANCH  27  28
HETATM   28  N5  UNL     1      -4.120  36.854 -47.728  1.00  0.00    -0.041 N 
ATOM     29  H53 UNL     1      -4.088  35.920 -47.318  1.00  0.00     0.278 HD
ATOM     30  H52 UNL     1      -3.681  36.682 -48.632  1.00  0.00     0.278 HD
ATOM     31  H51 UNL     1      -3.533  37.483 -47.181  1.00  0.00     0.278 HD
ENDBRANCH  27  28
ENDBRANCH  15  23
ENDBRANCH   1   8
BRANCH   7  32
HETATM   32  S1  UNL     1      -9.266  37.754 -45.948  1.00  0.00    -0.106 SA
BRANCH  32  33
HETATM   33  C15 UNL     1     -10.717  38.239 -45.100  1.00  0.00     0.083 C 
BRANCH  33  34
HETATM   34  C16 UNL     1     -11.819  38.902 -45.865  1.00  0.00     0.036 C 
BRANCH  34  35
HETATM   35  C17 UNL     1     -12.324  40.154 -45.171  1.00  0.00     0.165 C 
BRANCH  35  36
HETATM   36  O7  UNL     1     -12.400  41.224 -46.043  1.00  0.00    -0.401 OA
ATOM     37  H7  UNL     1     -11.965  41.993 -45.694  1.00  0.00     0.209 HD
ENDBRANCH  35  36
ENDBRANCH  34  35
ENDBRANCH  33  34
ENDBRANCH  32  33
ENDBRANCH   7  32
BRANCH   6  38
HETATM   38  C10 UNL     1      -8.045  40.228 -44.560  1.00  0.00     0.708 A 
HETATM   39  N10 UNL     1      -8.615  40.653 -43.394  1.00  0.00    -0.172 N 
HETATM   40  C11 UNL     1      -9.347  41.779 -43.350  1.00  0.00     0.151 A 
ATOM     41  H10 UNL     1      -8.482  40.107 -42.543  1.00  0.00     0.186 HD
HETATM   42  C12 UNL     1      -9.562  42.558 -44.467  1.00  0.00     0.188 A 
HETATM   43  C13 UNL     1      -8.976  42.117 -45.652  1.00  0.00     0.168 A 
HETATM   44  N13 UNL     1      -9.201  42.921 -46.791  1.00  0.00    -0.079 NA
HETATM   45  N14 UNL     1      -8.263  41.000 -45.639  1.00  0.00    -0.174 N 
ATOM     46  H14 UNL     1      -7.846  40.700 -46.520  1.00  0.00     0.185 HD
BRANCH  40  47
HETATM   47  N11 UNL     1      -9.901  42.202 -42.244  1.00  0.00    -0.383 N 
ATOM     48 2H11 UNL     1     -10.156  41.481 -41.569  1.00  0.00     0.157 HD
ATOM     49 1H11 UNL     1     -10.067  43.193 -42.067  1.00  0.00     0.157 HD
ENDBRANCH  40  47
BRANCH  42  50
HETATM   50  N12 UNL     1     -10.331  43.748 -44.439  1.00  0.00    -0.108 N 
HETATM   51  O5  UNL     1     -11.565  43.690 -44.589  1.00  0.00    -0.532 OA
HETATM   52  O6  UNL     1      -9.770  44.988 -44.249  1.00  0.00    -0.532 OA
ENDBRANCH  42  50
ENDBRANCH   6  38
TORSDOF 15
ENDMDL
