MODEL 1
REMARK VINA RESULT: -8.550075987      0.000      0.000
REMARK  18 active torsions:
REMARK  status: ('A' for Active; 'I' for Inactive)
REMARK    1  A    between atoms: C1_2  and  O2_4 
REMARK    2  A    between atoms: O2_4  and  C2_5 
REMARK    3  A    between atoms: C3_6  and  C4_7 
REMARK    4  A    between atoms: C5_8  and  O3_9 
REMARK    5  A    between atoms: C6_12  and  C7_13 
REMARK    6  A    between atoms: C7_13  and  O5_14 
REMARK    7  A    between atoms: C7_13  and  O6_16 
REMARK    8  A    between atoms: C8_18  and  O7_19 
REMARK    9  A    between atoms: N4_25  and  C9_26 
REMARK   10  A    between atoms: C9_26  and  C10_27 
REMARK   11  A    between atoms: C10_27  and  O8_28 
REMARK   12  A    between atoms: C10_27  and  C11_30 
REMARK   13  A    between atoms: C11_30  and  O9_31 
REMARK   14  A    between atoms: C11_30  and  C12_33 
REMARK   15  A    between atoms: C12_33  and  N5_34 
REMARK   16  A    between atoms: C14_36  and  C15_37 
REMARK       I    between atoms: C15_37  and  N6_39 
REMARK   17  A    between atoms: N6_39  and  N7_41 
REMARK   18  A    between atoms: N7_41  and  C16_43 
ROOT
HETATM    1  C10 UNL     1      -3.953  38.712 -48.545  1.00  0.00     0.168 C 
ENDROOT
BRANCH   1   2
HETATM    2  C9  UNL     1      -3.490  37.452 -47.898  1.00  0.00     0.187 C 
BRANCH   2   3
HETATM    3  N4  UNL     1      -4.390  37.148 -46.785  1.00  0.00    -0.252 N 
HETATM    4  C2  UNL     1      -5.433  36.316 -46.780  1.00  0.00     0.200 A 
HETATM    5  C3  UNL     1      -5.973  36.383 -45.524  1.00  0.00     0.120 A 
HETATM    6  N2  UNL     1      -5.235  37.271 -44.780  1.00  0.00    -0.281 N 
HETATM    7  N3  UNL     1      -4.287  37.715 -45.566  1.00  0.00    -0.238 N 
ATOM      8  H2  UNL     1      -5.395  37.533 -43.807  1.00  0.00     0.188 HD
ATOM      9  H3  UNL     1      -3.574  38.393 -45.295  1.00  0.00     0.208 HD
BRANCH   4  10
HETATM   10  O2  UNL     1      -5.913  35.523 -47.804  1.00  0.00    -0.242 OA
BRANCH  10  11
HETATM   11  C1  UNL     1      -6.962  35.942 -48.603  1.00  0.00     0.379 C 
HETATM   12  N1  UNL     1      -7.952  34.987 -48.958  1.00  0.00    -0.032 NA
HETATM   13  O1  UNL     1      -6.971  37.144 -48.968  1.00  0.00    -0.242 OA
ENDBRANCH  10  11
ENDBRANCH   4  10
BRANCH   5  14
HETATM   14  C4  UNL     1      -7.127  35.662 -45.026  1.00  0.00     0.090 A 
HETATM   15  C5  UNL     1      -8.440  35.807 -45.418  1.00  0.00     0.199 A 
HETATM   16  O4  UNL     1      -9.210  34.999 -44.704  1.00  0.00    -0.284 OA
HETATM   17  C6  UNL     1      -8.501  34.310 -43.847  1.00  0.00     0.144 A 
HETATM   18  C8  UNL     1      -7.180  34.696 -44.017  1.00  0.00     0.118 A 
BRANCH  15  19
HETATM   19  O3  UNL     1      -8.968  36.651 -46.402  1.00  0.00    -0.340 OA
ATOM     20  H3  UNL     1      -9.844  37.014 -46.462  1.00  0.00     0.220 HD
ENDBRANCH  15  19
BRANCH  17  21
HETATM   21  C7  UNL     1      -9.026  33.304 -42.880  1.00  0.00     0.315 C 
BRANCH  21  22
HETATM   22  O5  UNL     1      -8.408  32.092 -43.147  1.00  0.00    -0.365 OA
ATOM     23  H5  UNL     1      -8.963  31.399 -42.807  1.00  0.00     0.213 HD
ENDBRANCH  21  22
BRANCH  21  24
HETATM   24  O6  UNL     1      -8.696  33.699 -41.559  1.00  0.00    -0.365 OA
ATOM     25  H6  UNL     1      -8.557  32.927 -41.023  1.00  0.00     0.213 HD
ENDBRANCH  21  24
ENDBRANCH  17  21
BRANCH  18  26
HETATM   26  O7  UNL     1      -6.073  34.249 -43.346  1.00  0.00    -0.357 OA
ATOM     27  H7  UNL     1      -5.370  33.765 -43.763  1.00  0.00     0.217 HD
ENDBRANCH  18  26
ENDBRANCH   5  14
ENDBRANCH   2   3
ENDBRANCH   1   2
BRANCH   1  28
HETATM   28  O8  UNL     1      -3.361  38.835 -49.799  1.00  0.00    -0.391 OA
ATOM     29  H8  UNL     1      -3.901  39.389 -50.351  1.00  0.00     0.210 HD
ENDBRANCH   1  28
BRANCH   1  30
HETATM   30  C11 UNL     1      -3.761  39.974 -47.786  1.00  0.00     0.168 C 
BRANCH  30  31
HETATM   31  O9  UNL     1      -2.590  40.600 -48.210  1.00  0.00    -0.391 OA
ATOM     32  H9  UNL     1      -2.806  41.327 -48.782  1.00  0.00     0.210 HD
ENDBRANCH  30  31
BRANCH  30  33
HETATM   33  C12 UNL     1      -4.890  40.941 -47.873  1.00  0.00     0.184 C 
BRANCH  33  34
HETATM   34  N5  UNL     1      -6.057  40.364 -47.226  1.00  0.00    -0.284 N 
HETATM   35  C13 UNL     1      -6.343  40.497 -45.900  1.00  0.00     0.148 A 
HETATM   36  C14 UNL     1      -7.544  39.829 -45.688  1.00  0.00     0.136 A 
HETATM   37  N10 UNL     1      -7.931  39.331 -46.862  1.00  0.00    -0.280 N 
HETATM   38  N11 UNL     1      -7.019  39.670 -47.753  1.00  0.00    -0.240 N 
ATOM     39  H10 UNL     1      -8.776  38.789 -47.039  1.00  0.00     0.189 HD
ATOM     40  H11 UNL     1      -7.064  39.416 -48.740  1.00  0.00     0.208 HD
BRANCH  36  41
HETATM   41  C15 UNL     1      -8.208  39.727 -44.420  1.00  0.00     0.289 C 
HETATM   42  O10 UNL     1      -7.778  38.866 -43.578  1.00  0.00    -0.264 OA
HETATM   43  N6  UNL     1      -9.302  40.523 -44.052  1.00  0.00    -0.262 N 
ATOM     44  H6  UNL     1      -9.646  41.214 -44.719  1.00  0.00     0.190 HD
BRANCH  43  45
HETATM   45  N7  UNL     1      -9.942  40.414 -42.819  1.00  0.00    -0.269 N 
ATOM     46  H7  UNL     1      -9.431  40.675 -41.975  1.00  0.00     0.190 HD
BRANCH  45  47
HETATM   47  C16 UNL     1     -11.315  39.942 -42.692  1.00  0.00     0.190 C 
HETATM   48  N8  UNL     1     -11.900  39.769 -41.576  1.00  0.00    -0.360 N 
HETATM   49  C17 UNL     1     -13.244  39.301 -41.717  1.00  0.00     0.142 C 
ATOM     50  H8  UNL     1     -11.456  39.946 -40.675  1.00  0.00     0.162 HD
HETATM   51  C18 UNL     1     -13.483  39.331 -43.202  1.00  0.00     0.142 C 
HETATM   52  N9  UNL     1     -12.184  39.608 -43.743  1.00  0.00    -0.360 N 
ATOM     53  H9  UNL     1     -11.932  39.569 -44.731  1.00  0.00     0.162 HD
ENDBRANCH  45  47
ENDBRANCH  43  45
ENDBRANCH  36  41
ENDBRANCH  33  34
ENDBRANCH  30  33
ENDBRANCH   1  30
TORSDOF 18
ENDMDL
MODEL 2
REMARK VINA RESULT: -8.509182546      2.116      3.548
REMARK  18 active torsions:
REMARK  status: ('A' for Active; 'I' for Inactive)
REMARK    1  A    between atoms: C1_2  and  O2_4 
REMARK    2  A    between atoms: O2_4  and  C2_5 
REMARK    3  A    between atoms: C3_6  and  C4_7 
REMARK    4  A    between atoms: C5_8  and  O3_9 
REMARK    5  A    between atoms: C6_12  and  C7_13 
REMARK    6  A    between atoms: C7_13  and  O5_14 
REMARK    7  A    between atoms: C7_13  and  O6_16 
REMARK    8  A    between atoms: C8_18  and  O7_19 
REMARK    9  A    between atoms: N4_25  and  C9_26 
REMARK   10  A    between atoms: C9_26  and  C10_27 
REMARK   11  A    between atoms: C10_27  and  O8_28 
REMARK   12  A    between atoms: C10_27  and  C11_30 
REMARK   13  A    between atoms: C11_30  and  O9_31 
REMARK   14  A    between atoms: C11_30  and  C12_33 
REMARK   15  A    between atoms: C12_33  and  N5_34 
REMARK   16  A    between atoms: C14_36  and  C15_37 
REMARK       I    between atoms: C15_37  and  N6_39 
REMARK   17  A    between atoms: N6_39  and  N7_41 
REMARK   18  A    between atoms: N7_41  and  C16_43 
ROOT
HETATM    1  C10 UNL     1      -5.726  36.578 -47.043  1.00  0.00     0.168 C 
ENDROOT
BRANCH   1   2
HETATM    2  C9  UNL     1      -5.576  35.190 -46.521  1.00  0.00     0.187 C 
BRANCH   2   3
HETATM    3  N4  UNL     1      -6.770  34.861 -45.741  1.00  0.00    -0.252 N 
HETATM    4  C2  UNL     1      -7.048  33.715 -45.117  1.00  0.00     0.200 A 
HETATM    5  C3  UNL     1      -8.280  33.877 -44.545  1.00  0.00     0.120 A 
HETATM    6  N2  UNL     1      -8.734  35.141 -44.838  1.00  0.00    -0.281 N 
HETATM    7  N3  UNL     1      -7.801  35.711 -45.559  1.00  0.00    -0.238 N 
ATOM      8  H2  UNL     1      -9.621  35.554 -44.552  1.00  0.00     0.188 HD
ATOM      9  H3  UNL     1      -7.848  36.660 -45.930  1.00  0.00     0.208 HD
BRANCH   4  10
HETATM   10  O2  UNL     1      -6.285  32.566 -45.035  1.00  0.00    -0.242 OA
BRANCH  10  11
HETATM   11  C1  UNL     1      -5.383  32.378 -44.003  1.00  0.00     0.379 C 
HETATM   12  N1  UNL     1      -4.101  31.857 -44.325  1.00  0.00    -0.032 NA
HETATM   13  O1  UNL     1      -5.756  32.679 -42.841  1.00  0.00    -0.242 OA
ENDBRANCH  10  11
ENDBRANCH   4  10
BRANCH   5  14
HETATM   14  C4  UNL     1      -9.019  32.908 -43.761  1.00  0.00     0.090 A 
HETATM   15  C5  UNL     1      -9.809  31.880 -44.226  1.00  0.00     0.199 A 
HETATM   16  O4  UNL     1     -10.348  31.233 -43.203  1.00  0.00    -0.284 OA
HETATM   17  C6  UNL     1      -9.972  31.759 -42.065  1.00  0.00     0.144 A 
HETATM   18  C8  UNL     1      -9.132  32.819 -42.370  1.00  0.00     0.118 A 
BRANCH  15  19
HETATM   19  O3  UNL     1     -10.061  31.505 -45.551  1.00  0.00    -0.340 OA
ATOM     20  H3  UNL     1      -9.949  30.653 -45.956  1.00  0.00     0.220 HD
ENDBRANCH  15  19
BRANCH  17  21
HETATM   21  C7  UNL     1     -10.379  31.296 -40.707  1.00  0.00     0.315 C 
BRANCH  21  22
HETATM   22  O5  UNL     1      -9.373  30.478 -40.216  1.00  0.00    -0.365 OA
ATOM     23  H5  UNL     1      -9.762  29.641 -39.991  1.00  0.00     0.213 HD
ENDBRANCH  21  22
BRANCH  21  24
HETATM   24  O6  UNL     1     -10.512  32.415 -39.845  1.00  0.00    -0.365 OA
ATOM     25  H6  UNL     1      -9.843  32.377 -39.171  1.00  0.00     0.213 HD
ENDBRANCH  21  24
ENDBRANCH  17  21
BRANCH  18  26
HETATM   26  O7  UNL     1      -8.493  33.669 -41.508  1.00  0.00    -0.357 OA
ATOM     27  H7  UNL     1      -8.917  34.416 -41.101  1.00  0.00     0.217 HD
ENDBRANCH  18  26
ENDBRANCH   5  14
ENDBRANCH   2   3
ENDBRANCH   1   2
BRANCH   1  28
HETATM   28  O8  UNL     1      -6.267  36.536 -48.326  1.00  0.00    -0.391 OA
ATOM     29  H8  UNL     1      -7.201  36.698 -48.281  1.00  0.00     0.210 HD
ENDBRANCH   1  28
BRANCH   1  30
HETATM   30  C11 UNL     1      -4.514  37.436 -47.050  1.00  0.00     0.168 C 
BRANCH  30  31
HETATM   31  O9  UNL     1      -3.882  37.342 -48.290  1.00  0.00    -0.391 OA
ATOM     32  H9  UNL     1      -3.147  37.944 -48.318  1.00  0.00     0.210 HD
ENDBRANCH  30  31
BRANCH  30  33
HETATM   33  C12 UNL     1      -4.753  38.870 -46.732  1.00  0.00     0.184 C 
BRANCH  33  34
HETATM   34  N5  UNL     1      -5.640  38.957 -45.582  1.00  0.00    -0.284 N 
HETATM   35  C13 UNL     1      -6.752  39.743 -45.529  1.00  0.00     0.148 A 
HETATM   36  C14 UNL     1      -7.330  39.522 -44.284  1.00  0.00     0.136 A 
HETATM   37  N10 UNL     1      -6.568  38.634 -43.647  1.00  0.00    -0.280 N 
HETATM   38  N11 UNL     1      -5.570  38.322 -44.452  1.00  0.00    -0.240 N 
ATOM     39  H10 UNL     1      -6.726  38.264 -42.710  1.00  0.00     0.189 HD
ATOM     40  H11 UNL     1      -4.831  37.661 -44.214  1.00  0.00     0.208 HD
BRANCH  36  41
HETATM   41  C15 UNL     1      -8.531  40.156 -43.818  1.00  0.00     0.289 C 
HETATM   42  O10 UNL     1      -9.262  40.770 -44.668  1.00  0.00    -0.264 OA
HETATM   43  N6  UNL     1      -8.947  40.134 -42.480  1.00  0.00    -0.262 N 
ATOM     44  H6  UNL     1      -8.369  39.642 -41.799  1.00  0.00     0.190 HD
BRANCH  43  45
HETATM   45  N7  UNL     1     -10.114  40.754 -42.036  1.00  0.00    -0.269 N 
ATOM     46  H7  UNL     1     -10.042  41.643 -41.541  1.00  0.00     0.190 HD
BRANCH  45  47
HETATM   47  C16 UNL     1     -11.435  40.176 -42.253  1.00  0.00     0.190 C 
HETATM   48  N8  UNL     1     -11.948  40.006 -43.404  1.00  0.00    -0.360 N 
HETATM   49  C17 UNL     1     -13.253  39.421 -43.353  1.00  0.00     0.142 C 
ATOM     50  H8  UNL     1     -11.479  40.261 -44.273  1.00  0.00     0.162 HD
HETATM   51  C18 UNL     1     -13.447  39.100 -41.896  1.00  0.00     0.142 C 
HETATM   52  N9  UNL     1     -12.326  39.733 -41.263  1.00  0.00    -0.360 N 
ATOM     53  H9  UNL     1     -12.196  39.842 -40.257  1.00  0.00     0.162 HD
ENDBRANCH  45  47
ENDBRANCH  43  45
ENDBRANCH  36  41
ENDBRANCH  33  34
ENDBRANCH  30  33
ENDBRANCH   1  30
TORSDOF 18
ENDMDL
MODEL 3
REMARK VINA RESULT: -8.445121171      3.429      6.099
REMARK  18 active torsions:
REMARK  status: ('A' for Active; 'I' for Inactive)
REMARK    1  A    between atoms: C1_2  and  O2_4 
REMARK    2  A    between atoms: O2_4  and  C2_5 
REMARK    3  A    between atoms: C3_6  and  C4_7 
REMARK    4  A    between atoms: C5_8  and  O3_9 
REMARK    5  A    between atoms: C6_12  and  C7_13 
REMARK    6  A    between atoms: C7_13  and  O5_14 
REMARK    7  A    between atoms: C7_13  and  O6_16 
REMARK    8  A    between atoms: C8_18  and  O7_19 
REMARK    9  A    between atoms: N4_25  and  C9_26 
REMARK   10  A    between atoms: C9_26  and  C10_27 
REMARK   11  A    between atoms: C10_27  and  O8_28 
REMARK   12  A    between atoms: C10_27  and  C11_30 
REMARK   13  A    between atoms: C11_30  and  O9_31 
REMARK   14  A    between atoms: C11_30  and  C12_33 
REMARK   15  A    between atoms: C12_33  and  N5_34 
REMARK   16  A    between atoms: C14_36  and  C15_37 
REMARK       I    between atoms: C15_37  and  N6_39 
REMARK   17  A    between atoms: N6_39  and  N7_41 
REMARK   18  A    between atoms: N7_41  and  C16_43 
ROOT
HETATM    1  C10 UNL     1      -6.184  40.186 -46.535  1.00  0.00     0.168 C 
ENDROOT
BRANCH   1   2
HETATM    2  C9  UNL     1      -7.523  40.168 -47.189  1.00  0.00     0.187 C 
BRANCH   2   3
HETATM    3  N4  UNL     1      -8.521  40.583 -46.202  1.00  0.00    -0.252 N 
HETATM    4  C2  UNL     1      -9.174  39.815 -45.328  1.00  0.00     0.200 A 
HETATM    5  C3  UNL     1     -10.014  40.646 -44.637  1.00  0.00     0.120 A 
HETATM    6  N2  UNL     1      -9.852  41.924 -45.116  1.00  0.00    -0.281 N 
HETATM    7  N3  UNL     1      -8.945  41.854 -46.058  1.00  0.00    -0.238 N 
ATOM      8  H2  UNL     1     -10.342  42.761 -44.801  1.00  0.00     0.188 HD
ATOM      9  H3  UNL     1      -8.608  42.648 -46.603  1.00  0.00     0.208 HD
BRANCH   4  10
HETATM   10  O2  UNL     1      -9.064  38.454 -45.119  1.00  0.00    -0.242 OA
BRANCH  10  11
HETATM   11  C1  UNL     1      -9.603  37.545 -46.013  1.00  0.00     0.379 C 
HETATM   12  N1  UNL     1      -8.721  36.623 -46.638  1.00  0.00    -0.032 NA
HETATM   13  O1  UNL     1     -10.841  37.596 -46.218  1.00  0.00    -0.242 OA
ENDBRANCH  10  11
ENDBRANCH   4  10
BRANCH   5  14
HETATM   14  C4  UNL     1     -10.936  40.282 -43.580  1.00  0.00     0.090 A 
HETATM   15  C5  UNL     1     -10.738  40.387 -42.221  1.00  0.00     0.199 A 
HETATM   16  O4  UNL     1     -11.797  39.917 -41.579  1.00  0.00    -0.284 OA
HETATM   17  C6  UNL     1     -12.707  39.496 -42.419  1.00  0.00     0.144 A 
HETATM   18  C8  UNL     1     -12.206  39.708 -43.695  1.00  0.00     0.118 A 
BRANCH  15  19
HETATM   19  O3  UNL     1      -9.627  40.895 -41.539  1.00  0.00    -0.340 OA
ATOM     20  H3  UNL     1      -9.587  41.629 -40.938  1.00  0.00     0.220 HD
ENDBRANCH  15  19
BRANCH  17  21
HETATM   21  C7  UNL     1     -14.028  38.903 -42.059  1.00  0.00     0.315 C 
BRANCH  21  22
HETATM   22  O5  UNL     1     -14.671  39.784 -41.203  1.00  0.00    -0.365 OA
ATOM     23  H5  UNL     1     -15.556  39.911 -41.526  1.00  0.00     0.213 HD
ENDBRANCH  21  22
BRANCH  21  24
HETATM   24  O6  UNL     1     -14.815  38.755 -43.229  1.00  0.00    -0.365 OA
ATOM     25  H6  UNL     1     -15.731  38.883 -43.013  1.00  0.00     0.213 HD
ENDBRANCH  21  24
ENDBRANCH  17  21
BRANCH  18  26
HETATM   26  O7  UNL     1     -12.799  39.427 -44.896  1.00  0.00    -0.357 OA
ATOM     27  H7  UNL     1     -13.741  39.380 -45.015  1.00  0.00     0.217 HD
ENDBRANCH  18  26
ENDBRANCH   5  14
ENDBRANCH   2   3
ENDBRANCH   1   2
BRANCH   1  28
HETATM   28  O8  UNL     1      -5.277  40.858 -47.351  1.00  0.00    -0.391 OA
ATOM     29  H8  UNL     1      -5.022  41.673 -46.936  1.00  0.00     0.210 HD
ENDBRANCH   1  28
BRANCH   1  30
HETATM   30  C11 UNL     1      -5.606  38.878 -46.134  1.00  0.00     0.168 C 
BRANCH  30  31
HETATM   31  O9  UNL     1      -4.226  38.897 -46.328  1.00  0.00    -0.391 OA
ATOM     32  H9  UNL     1      -3.872  38.027 -46.186  1.00  0.00     0.210 HD
ENDBRANCH  30  31
BRANCH  30  33
HETATM   33  C12 UNL     1      -5.896  38.461 -44.735  1.00  0.00     0.184 C 
BRANCH  33  34
HETATM   34  N5  UNL     1      -6.053  37.015 -44.695  1.00  0.00    -0.284 N 
HETATM   35  C13 UNL     1      -6.528  36.325 -43.622  1.00  0.00     0.148 A 
HETATM   36  C14 UNL     1      -6.547  34.985 -43.993  1.00  0.00     0.136 A 
HETATM   37  N10 UNL     1      -6.095  34.917 -45.245  1.00  0.00    -0.280 N 
HETATM   38  N11 UNL     1      -5.810  36.146 -45.629  1.00  0.00    -0.240 N 
ATOM     39  H10 UNL     1      -5.990  34.069 -45.804  1.00  0.00     0.189 HD
ATOM     40  H11 UNL     1      -5.442  36.386 -46.549  1.00  0.00     0.208 HD
BRANCH  36  41
HETATM   41  C15 UNL     1      -6.985  33.910 -43.149  1.00  0.00     0.289 C 
HETATM   42  O10 UNL     1      -6.164  32.962 -42.899  1.00  0.00    -0.264 OA
HETATM   43  N6  UNL     1      -8.265  33.844 -42.581  1.00  0.00    -0.262 N 
ATOM     44  H6  UNL     1      -8.922  34.600 -42.775  1.00  0.00     0.190 HD
BRANCH  43  45
HETATM   45  N7  UNL     1      -8.682  32.795 -41.764  1.00  0.00    -0.269 N 
ATOM     46  H7  UNL     1      -7.996  32.104 -41.461  1.00  0.00     0.190 HD
BRANCH  45  47
HETATM   47  C16 UNL     1     -10.066  32.650 -41.327  1.00  0.00     0.190 C 
HETATM   48  N8  UNL     1     -10.421  31.929 -40.342  1.00  0.00    -0.360 N 
HETATM   49  C17 UNL     1     -11.832  31.952 -40.113  1.00  0.00     0.142 C 
ATOM     50  H8  UNL     1      -9.766  31.390 -39.774  1.00  0.00     0.162 HD
HETATM   51  C18 UNL     1     -12.340  32.976 -41.092  1.00  0.00     0.142 C 
HETATM   52  N9  UNL     1     -11.192  33.257 -41.905  1.00  0.00    -0.360 N 
ATOM     53  H9  UNL     1     -11.194  33.808 -42.764  1.00  0.00     0.162 HD
ENDBRANCH  45  47
ENDBRANCH  43  45
ENDBRANCH  36  41
ENDBRANCH  33  34
ENDBRANCH  30  33
ENDBRANCH   1  30
TORSDOF 18
ENDMDL
MODEL 4
REMARK VINA RESULT: -8.420418830      1.718      2.195
REMARK  18 active torsions:
REMARK  status: ('A' for Active; 'I' for Inactive)
REMARK    1  A    between atoms: C1_2  and  O2_4 
REMARK    2  A    between atoms: O2_4  and  C2_5 
REMARK    3  A    between atoms: C3_6  and  C4_7 
REMARK    4  A    between atoms: C5_8  and  O3_9 
REMARK    5  A    between atoms: C6_12  and  C7_13 
REMARK    6  A    between atoms: C7_13  and  O5_14 
REMARK    7  A    between atoms: C7_13  and  O6_16 
REMARK    8  A    between atoms: C8_18  and  O7_19 
REMARK    9  A    between atoms: N4_25  and  C9_26 
REMARK   10  A    between atoms: C9_26  and  C10_27 
REMARK   11  A    between atoms: C10_27  and  O8_28 
REMARK   12  A    between atoms: C10_27  and  C11_30 
REMARK   13  A    between atoms: C11_30  and  O9_31 
REMARK   14  A    between atoms: C11_30  and  C12_33 
REMARK   15  A    between atoms: C12_33  and  N5_34 
REMARK   16  A    between atoms: C14_36  and  C15_37 
REMARK       I    between atoms: C15_37  and  N6_39 
REMARK   17  A    between atoms: N6_39  and  N7_41 
REMARK   18  A    between atoms: N7_41  and  C16_43 
ROOT
HETATM    1  C10 UNL     1      -4.086  39.221 -49.246  1.00  0.00     0.168 C 
ENDROOT
BRANCH   1   2
HETATM    2  C9  UNL     1      -5.201  38.232 -49.267  1.00  0.00     0.187 C 
BRANCH   2   3
HETATM    3  N4  UNL     1      -5.095  37.396 -48.070  1.00  0.00    -0.252 N 
HETATM    4  C2  UNL     1      -6.026  37.179 -47.139  1.00  0.00     0.200 A 
HETATM    5  C3  UNL     1      -5.457  36.350 -46.211  1.00  0.00     0.120 A 
HETATM    6  N2  UNL     1      -4.169  36.076 -46.603  1.00  0.00    -0.281 N 
HETATM    7  N3  UNL     1      -3.980  36.719 -47.728  1.00  0.00    -0.238 N 
ATOM      8  H2  UNL     1      -3.494  35.488 -46.115  1.00  0.00     0.188 HD
ATOM      9  H3  UNL     1      -3.114  36.710 -48.267  1.00  0.00     0.208 HD
BRANCH   4  10
HETATM   10  O2  UNL     1      -7.317  37.667 -47.075  1.00  0.00    -0.242 OA
BRANCH  10  11
HETATM   11  C1  UNL     1      -8.408  36.816 -47.117  1.00  0.00     0.379 C 
HETATM   12  N1  UNL     1      -9.443  37.013 -46.164  1.00  0.00    -0.032 NA
HETATM   13  O1  UNL     1      -8.412  35.919 -47.996  1.00  0.00    -0.242 OA
ENDBRANCH  10  11
ENDBRANCH   4  10
BRANCH   5  14
HETATM   14  C4  UNL     1      -6.070  35.831 -45.005  1.00  0.00     0.090 A 
HETATM   15  C5  UNL     1      -6.291  36.500 -43.821  1.00  0.00     0.199 A 
HETATM   16  O4  UNL     1      -6.839  35.677 -42.939  1.00  0.00    -0.284 OA
HETATM   17  C6  UNL     1      -7.006  34.484 -43.451  1.00  0.00     0.144 A 
HETATM   18  C8  UNL     1      -6.535  34.536 -44.754  1.00  0.00     0.118 A 
BRANCH  15  19
HETATM   19  O3  UNL     1      -6.012  37.835 -43.510  1.00  0.00    -0.340 OA
ATOM     20  H3  UNL     1      -5.385  38.178 -42.884  1.00  0.00     0.220 HD
ENDBRANCH  15  19
BRANCH  17  21
HETATM   21  C7  UNL     1      -7.591  33.304 -42.753  1.00  0.00     0.315 C 
BRANCH  21  22
HETATM   22  O5  UNL     1      -8.351  33.770 -41.690  1.00  0.00    -0.365 OA
ATOM     23  H5  UNL     1      -8.996  33.105 -41.478  1.00  0.00     0.213 HD
ENDBRANCH  21  22
BRANCH  21  24
HETATM   24  O6  UNL     1      -8.444  32.602 -43.643  1.00  0.00    -0.365 OA
ATOM     25  H6  UNL     1      -7.935  32.269 -44.373  1.00  0.00     0.213 HD
ENDBRANCH  21  24
ENDBRANCH  17  21
BRANCH  18  26
HETATM   26  O7  UNL     1      -6.501  33.531 -45.683  1.00  0.00    -0.357 OA
ATOM     27  H7  UNL     1      -6.754  32.635 -45.493  1.00  0.00     0.217 HD
ENDBRANCH  18  26
ENDBRANCH   5  14
ENDBRANCH   2   3
ENDBRANCH   1   2
BRANCH   1  28
HETATM   28  O8  UNL     1      -2.891  38.579 -49.561  1.00  0.00    -0.391 OA
ATOM     29  H8  UNL     1      -2.300  38.628 -48.818  1.00  0.00     0.210 HD
ENDBRANCH   1  28
BRANCH   1  30
HETATM   30  C11 UNL     1      -3.904  40.014 -48.004  1.00  0.00     0.168 C 
BRANCH  30  31
HETATM   31  O9  UNL     1      -2.596  40.491 -47.941  1.00  0.00    -0.391 OA
ATOM     32  H9  UNL     1      -2.050  39.863 -47.483  1.00  0.00     0.210 HD
ENDBRANCH  30  31
BRANCH  30  33
HETATM   33  C12 UNL     1      -4.848  41.153 -47.838  1.00  0.00     0.184 C 
BRANCH  33  34
HETATM   34  N5  UNL     1      -5.832  40.808 -46.823  1.00  0.00    -0.284 N 
HETATM   35  C13 UNL     1      -7.175  40.991 -46.964  1.00  0.00     0.148 A 
HETATM   36  C14 UNL     1      -7.761  40.514 -45.796  1.00  0.00     0.136 A 
HETATM   37  N10 UNL     1      -6.777  40.070 -45.014  1.00  0.00    -0.280 N 
HETATM   38  N11 UNL     1      -5.643  40.263 -45.660  1.00  0.00    -0.240 N 
ATOM     39  H10 UNL     1      -6.881  39.657 -44.087  1.00  0.00     0.189 HD
ATOM     40  H11 UNL     1      -4.726  40.015 -45.289  1.00  0.00     0.208 HD
BRANCH  36  41
HETATM   41  C15 UNL     1      -9.171  40.516 -45.531  1.00  0.00     0.289 C 
HETATM   42  O10 UNL     1      -9.595  41.158 -44.510  1.00  0.00    -0.264 OA
HETATM   43  N6  UNL     1     -10.111  39.854 -46.334  1.00  0.00    -0.262 N 
ATOM     44  H6  UNL     1      -9.778  39.344 -47.152  1.00  0.00     0.190 HD
BRANCH  43  45
HETATM   45  N7  UNL     1     -11.479  39.860 -46.067  1.00  0.00    -0.269 N 
ATOM     46  H7  UNL     1     -12.101  40.366 -46.697  1.00  0.00     0.190 HD
BRANCH  45  47
HETATM   47  C16 UNL     1     -12.052  39.169 -44.918  1.00  0.00     0.190 C 
HETATM   48  N8  UNL     1     -12.332  37.928 -44.911  1.00  0.00    -0.360 N 
HETATM   49  C17 UNL     1     -12.883  37.487 -43.667  1.00  0.00     0.142 C 
ATOM     50  H8  UNL     1     -12.179  37.312 -45.710  1.00  0.00     0.162 HD
HETATM   51  C18 UNL     1     -12.779  38.697 -42.777  1.00  0.00     0.142 C 
HETATM   52  N9  UNL     1     -12.381  39.740 -43.679  1.00  0.00    -0.360 N 
ATOM     53  H9  UNL     1     -12.343  40.735 -43.455  1.00  0.00     0.162 HD
ENDBRANCH  45  47
ENDBRANCH  43  45
ENDBRANCH  36  41
ENDBRANCH  33  34
ENDBRANCH  30  33
ENDBRANCH   1  30
TORSDOF 18
ENDMDL
MODEL 5
REMARK VINA RESULT: -8.350260874      1.622      2.765
REMARK  18 active torsions:
REMARK  status: ('A' for Active; 'I' for Inactive)
REMARK    1  A    between atoms: C1_2  and  O2_4 
REMARK    2  A    between atoms: O2_4  and  C2_5 
REMARK    3  A    between atoms: C3_6  and  C4_7 
REMARK    4  A    between atoms: C5_8  and  O3_9 
REMARK    5  A    between atoms: C6_12  and  C7_13 
REMARK    6  A    between atoms: C7_13  and  O5_14 
REMARK    7  A    between atoms: C7_13  and  O6_16 
REMARK    8  A    between atoms: C8_18  and  O7_19 
REMARK    9  A    between atoms: N4_25  and  C9_26 
REMARK   10  A    between atoms: C9_26  and  C10_27 
REMARK   11  A    between atoms: C10_27  and  O8_28 
REMARK   12  A    between atoms: C10_27  and  C11_30 
REMARK   13  A    between atoms: C11_30  and  O9_31 
REMARK   14  A    between atoms: C11_30  and  C12_33 
REMARK   15  A    between atoms: C12_33  and  N5_34 
REMARK   16  A    between atoms: C14_36  and  C15_37 
REMARK       I    between atoms: C15_37  and  N6_39 
REMARK   17  A    between atoms: N6_39  and  N7_41 
REMARK   18  A    between atoms: N7_41  and  C16_43 
ROOT
HETATM    1  C10 UNL     1      -4.778  37.505 -48.626  1.00  0.00     0.168 C 
ENDROOT
BRANCH   1   2
HETATM    2  C9  UNL     1      -6.221  37.139 -48.710  1.00  0.00     0.187 C 
BRANCH   2   3
HETATM    3  N4  UNL     1      -6.426  35.902 -47.955  1.00  0.00    -0.252 N 
HETATM    4  C2  UNL     1      -6.728  35.774 -46.662  1.00  0.00     0.200 A 
HETATM    5  C3  UNL     1      -6.797  34.430 -46.413  1.00  0.00     0.120 A 
HETATM    6  N2  UNL     1      -6.529  33.757 -47.582  1.00  0.00    -0.281 N 
HETATM    7  N3  UNL     1      -6.311  34.671 -48.493  1.00  0.00    -0.238 N 
ATOM      8  H2  UNL     1      -6.505  32.746 -47.712  1.00  0.00     0.188 HD
ATOM      9  H3  UNL     1      -6.086  34.479 -49.470  1.00  0.00     0.208 HD
BRANCH   4  10
HETATM   10  O2  UNL     1      -6.939  36.762 -45.720  1.00  0.00    -0.242 OA
BRANCH  10  11
HETATM   11  C1  UNL     1      -6.022  37.000 -44.712  1.00  0.00     0.379 C 
HETATM   12  N1  UNL     1      -6.418  36.735 -43.373  1.00  0.00    -0.032 NA
HETATM   13  O1  UNL     1      -4.893  37.440 -45.045  1.00  0.00    -0.242 OA
ENDBRANCH  10  11
ENDBRANCH   4  10
BRANCH   5  14
HETATM   14  C4  UNL     1      -7.092  33.785 -45.150  1.00  0.00     0.090 A 
HETATM   15  C5  UNL     1      -6.259  32.981 -44.404  1.00  0.00     0.199 A 
HETATM   16  O4  UNL     1      -6.901  32.548 -43.329  1.00  0.00    -0.284 OA
HETATM   17  C6  UNL     1      -8.126  33.009 -43.297  1.00  0.00     0.144 A 
HETATM   18  C8  UNL     1      -8.289  33.796 -44.427  1.00  0.00     0.118 A 
BRANCH  15  19
HETATM   19  O3  UNL     1      -4.932  32.622 -44.664  1.00  0.00    -0.340 OA
ATOM     20  H3  UNL     1      -4.311  32.192 -44.087  1.00  0.00     0.220 HD
ENDBRANCH  15  19
BRANCH  17  21
HETATM   21  C7  UNL     1      -9.140  32.734 -42.239  1.00  0.00     0.315 C 
BRANCH  21  22
HETATM   22  O5  UNL     1      -8.973  33.672 -41.232  1.00  0.00    -0.365 OA
ATOM     23  H5  UNL     1      -9.792  34.144 -41.134  1.00  0.00     0.213 HD
ENDBRANCH  21  22
BRANCH  21  24
HETATM   24  O6  UNL     1     -10.442  32.881 -42.782  1.00  0.00    -0.365 OA
ATOM     25  H6  UNL     1     -10.585  33.790 -43.020  1.00  0.00     0.213 HD
ENDBRANCH  21  24
ENDBRANCH  17  21
BRANCH  18  26
HETATM   26  O7  UNL     1      -9.401  34.489 -44.824  1.00  0.00    -0.357 OA
ATOM     27  H7  UNL     1     -10.197  34.068 -45.127  1.00  0.00     0.217 HD
ENDBRANCH  18  26
ENDBRANCH   5  14
ENDBRANCH   2   3
ENDBRANCH   1   2
BRANCH   1  28
HETATM   28  O8  UNL     1      -4.115  36.592 -47.810  1.00  0.00    -0.391 OA
ATOM     29  H8  UNL     1      -3.229  36.895 -47.651  1.00  0.00     0.210 HD
ENDBRANCH   1  28
BRANCH   1  30
HETATM   30  C11 UNL     1      -4.452  38.884 -48.183  1.00  0.00     0.168 C 
BRANCH  30  31
HETATM   31  O9  UNL     1      -3.428  39.400 -48.976  1.00  0.00    -0.391 OA
ATOM     32  H9  UNL     1      -2.593  39.055 -48.680  1.00  0.00     0.210 HD
ENDBRANCH  30  31
BRANCH  30  33
HETATM   33  C12 UNL     1      -5.597  39.836 -48.187  1.00  0.00     0.184 C 
BRANCH  33  34
HETATM   34  N5  UNL     1      -5.970  40.131 -46.812  1.00  0.00    -0.284 N 
HETATM   35  C13 UNL     1      -7.238  40.424 -46.407  1.00  0.00     0.148 A 
HETATM   36  C14 UNL     1      -7.177  40.615 -45.031  1.00  0.00     0.136 A 
HETATM   37  N10 UNL     1      -5.908  40.434 -44.664  1.00  0.00    -0.280 N 
HETATM   38  N11 UNL     1      -5.220  40.149 -45.753  1.00  0.00    -0.240 N 
ATOM     39  H10 UNL     1      -5.538  40.504 -43.716  1.00  0.00     0.189 HD
ATOM     40  H11 UNL     1      -4.217  39.965 -45.761  1.00  0.00     0.208 HD
BRANCH  36  41
HETATM   41  C15 UNL     1      -8.302  40.941 -44.202  1.00  0.00     0.289 C 
HETATM   42  O10 UNL     1      -9.161  41.776 -44.646  1.00  0.00    -0.264 OA
HETATM   43  N6  UNL     1      -8.511  40.389 -42.930  1.00  0.00    -0.262 N 
ATOM     44  H6  UNL     1      -7.830  39.719 -42.573  1.00  0.00     0.190 HD
BRANCH  43  45
HETATM   45  N7  UNL     1      -9.606  40.713 -42.131  1.00  0.00    -0.269 N 
ATOM     46  H7  UNL     1      -9.472  41.357 -41.351  1.00  0.00     0.190 HD
BRANCH  45  47
HETATM   47  C16 UNL     1     -10.935  40.163 -42.369  1.00  0.00     0.190 C 
HETATM   48  N8  UNL     1     -11.721  39.794 -41.439  1.00  0.00    -0.360 N 
HETATM   49  C17 UNL     1     -12.967  39.291 -41.929  1.00  0.00     0.142 C 
ATOM     50  H8  UNL     1     -11.486  39.851 -40.448  1.00  0.00     0.162 HD
HETATM   51  C18 UNL     1     -12.899  39.539 -43.412  1.00  0.00     0.142 C 
HETATM   52  N9  UNL     1     -11.541  39.956 -43.617  1.00  0.00    -0.360 N 
ATOM     53  H9  UNL     1     -11.090  40.081 -44.524  1.00  0.00     0.162 HD
ENDBRANCH  45  47
ENDBRANCH  43  45
ENDBRANCH  36  41
ENDBRANCH  33  34
ENDBRANCH  30  33
ENDBRANCH   1  30
TORSDOF 18
ENDMDL
