MODEL 1
REMARK VINA RESULT: -4.250053877      0.000      0.000
REMARK  1 active torsions:
REMARK  status: ('A' for Active; 'I' for Inactive)
REMARK    1  A    between atoms: N2_3  and  C2_5 
ROOT
HETATM    1  N1  UNL     1      25.958  21.911   6.295  1.00  0.00    -0.172 NA
HETATM    2  C1  UNL     1      26.458  21.236   7.104  1.00  0.00     0.179 C 
HETATM    3  N2  UNL     1      27.074  20.444   8.079  1.00  0.00    -0.291 N 
ATOM      4  H2  UNL     1      26.847  20.574   9.065  1.00  0.00     0.174 HD
ENDROOT
BRANCH   3   5
HETATM    5  C2  UNL     1      28.012  19.463   7.687  1.00  0.00     0.368 C 
HETATM    6  N3  UNL     1      27.351  18.394   6.919  1.00  0.00    -0.035 N 
HETATM    7  C3  UNL     1      28.444  17.560   6.394  1.00  0.00     0.321 C 
ATOM      8  H32 UNL     1      26.656  17.872   7.454  1.00  0.00     0.281 HD
ATOM      9  H31 UNL     1      26.714  18.737   6.200  1.00  0.00     0.281 HD
HETATM   10  S1  UNL     1      29.104  16.766   7.926  1.00  0.00    -0.066 SA
HETATM   11  S2  UNL     1      28.679  18.522   9.129  1.00  0.00    -0.041 SA
ENDBRANCH   3   5
TORSDOF 1
ENDMDL
MODEL 2
REMARK VINA RESULT: -4.246635840      2.411      2.745
REMARK  1 active torsions:
REMARK  status: ('A' for Active; 'I' for Inactive)
REMARK    1  A    between atoms: N2_3  and  C2_5 
ROOT
HETATM    1  N1  UNL     1      24.712  19.611   4.830  1.00  0.00    -0.172 NA
HETATM    2  C1  UNL     1      25.656  18.929   4.767  1.00  0.00     0.179 C 
HETATM    3  N2  UNL     1      26.774  18.093   4.694  1.00  0.00    -0.291 N 
ATOM      4  H2  UNL     1      27.017  17.634   3.815  1.00  0.00     0.174 HD
ENDROOT
BRANCH   3   5
HETATM    5  C2  UNL     1      27.566  17.888   5.846  1.00  0.00     0.368 C 
HETATM    6  N3  UNL     1      26.799  17.170   6.879  1.00  0.00    -0.035 N 
HETATM    7  C3  UNL     1      27.777  16.833   7.925  1.00  0.00     0.321 C 
ATOM      8  H32 UNL     1      25.989  17.687   7.223  1.00  0.00     0.281 HD
ATOM      9  H31 UNL     1      26.283  16.365   6.523  1.00  0.00     0.281 HD
HETATM   10  S1  UNL     1      28.180  18.489   8.636  1.00  0.00    -0.066 SA
HETATM   11  S2  UNL     1      27.958  19.470   6.712  1.00  0.00    -0.041 SA
ENDBRANCH   3   5
TORSDOF 1
ENDMDL
MODEL 3
REMARK VINA RESULT: -4.244643896      2.278      2.314
REMARK  1 active torsions:
REMARK  status: ('A' for Active; 'I' for Inactive)
REMARK    1  A    between atoms: N2_3  and  C2_5 
ROOT
HETATM    1  N1  UNL     1      24.540  19.999   4.758  1.00  0.00    -0.172 NA
HETATM    2  C1  UNL     1      25.689  19.846   4.879  1.00  0.00     0.179 C 
HETATM    3  N2  UNL     1      27.070  19.657   5.002  1.00  0.00    -0.291 N 
ATOM      4  H2  UNL     1      27.718  20.387   4.702  1.00  0.00     0.174 HD
ENDROOT
BRANCH   3   5
HETATM    5  C2  UNL     1      27.561  18.449   5.544  1.00  0.00     0.368 C 
HETATM    6  N3  UNL     1      26.447  17.549   5.892  1.00  0.00    -0.035 N 
HETATM    7  C3  UNL     1      27.079  16.266   6.239  1.00  0.00     0.321 C 
ATOM      8  H32 UNL     1      25.834  17.916   6.620  1.00  0.00     0.281 HD
ATOM      9  H31 UNL     1      25.737  17.473   5.164  1.00  0.00     0.281 HD
HETATM   10  S1  UNL     1      27.938  16.665   7.824  1.00  0.00    -0.066 SA
HETATM   11  S2  UNL     1      28.361  18.697   7.189  1.00  0.00    -0.041 SA
ENDBRANCH   3   5
TORSDOF 1
ENDMDL
MODEL 4
REMARK VINA RESULT: -4.139568391      3.179      3.430
REMARK  1 active torsions:
REMARK  status: ('A' for Active; 'I' for Inactive)
REMARK    1  A    between atoms: N2_3  and  C2_5 
ROOT
HETATM    1  N1  UNL     1      25.213  21.227   2.804  1.00  0.00    -0.172 NA
HETATM    2  C1  UNL     1      26.255  20.837   3.152  1.00  0.00     0.179 C 
HETATM    3  N2  UNL     1      27.503  20.350   3.556  1.00  0.00    -0.291 N 
ATOM      4  H2  UNL     1      28.325  20.490   2.966  1.00  0.00     0.174 HD
ENDROOT
BRANCH   3   5
HETATM    5  C2  UNL     1      27.618  19.665   4.786  1.00  0.00     0.368 C 
HETATM    6  N3  UNL     1      28.872  18.893   4.832  1.00  0.00    -0.035 N 
HETATM    7  C3  UNL     1      28.977  18.406   6.217  1.00  0.00     0.321 C 
ATOM      8  H32 UNL     1      28.926  18.153   4.131  1.00  0.00     0.281 HD
ATOM      9  H31 UNL     1      29.689  19.415   4.517  1.00  0.00     0.281 HD
HETATM   10  S1  UNL     1      27.604  17.173   6.307  1.00  0.00    -0.066 SA
HETATM   11  S2  UNL     1      26.356  18.328   4.958  1.00  0.00    -0.041 SA
ENDBRANCH   3   5
TORSDOF 1
ENDMDL
MODEL 5
REMARK VINA RESULT: -4.121743524      2.563      3.917
REMARK  1 active torsions:
REMARK  status: ('A' for Active; 'I' for Inactive)
REMARK    1  A    between atoms: N2_3  and  C2_5 
ROOT
HETATM    1  N1  UNL     1      28.912  16.903   9.487  1.00  0.00    -0.172 NA
HETATM    2  C1  UNL     1      28.327  17.868   9.192  1.00  0.00     0.179 C 
HETATM    3  N2  UNL     1      27.610  19.012   8.828  1.00  0.00    -0.291 N 
ATOM      4  H2  UNL     1      26.806  19.312   9.380  1.00  0.00     0.174 HD
ENDROOT
BRANCH   3   5
HETATM    5  C2  UNL     1      28.007  19.749   7.690  1.00  0.00     0.368 C 
HETATM    6  N3  UNL     1      26.980  20.745   7.335  1.00  0.00    -0.035 N 
HETATM    7  C3  UNL     1      27.592  21.577   6.287  1.00  0.00     0.321 C 
ATOM      8  H32 UNL     1      26.085  20.335   7.065  1.00  0.00     0.281 HD
ATOM      9  H31 UNL     1      26.631  21.278   8.132  1.00  0.00     0.281 HD
HETATM   10  S1  UNL     1      27.693  20.406   4.862  1.00  0.00    -0.066 SA
HETATM   11  S2  UNL     1      28.050  18.707   6.166  1.00  0.00    -0.041 SA
ENDBRANCH   3   5
TORSDOF 1
ENDMDL
