MODEL 1
REMARK VINA RESULT: -5.848768808      0.000      0.000
REMARK  1 active torsions:
REMARK  status: ('A' for Active; 'I' for Inactive)
REMARK    1  A    between atoms: C3_6  and  C4_7 
ROOT
HETATM    1  C4  UNL     1      27.814  20.864   6.721  1.00  0.00     0.267 C 
HETATM    2  C5  UNL     1      26.631  21.597   7.199  1.00  0.00     0.086 C 
HETATM    3  N3  UNL     1      25.695  22.159   7.588  1.00  0.00    -0.195 NA
HETATM    4  C6  UNL     1      27.707  20.477   5.330  1.00  0.00     0.086 C 
HETATM    5  N4  UNL     1      27.613  20.184   4.213  1.00  0.00    -0.195 NA
ENDROOT
BRANCH   1   6
HETATM    6  C3  UNL     1      27.924  19.632   7.581  1.00  0.00     0.122 C 
HETATM    7  N2  UNL     1      27.588  19.468   8.798  1.00  0.00    -0.289 N 
HETATM    8  N1  UNL     1      27.867  18.161   9.198  1.00  0.00    -0.115 NA
ATOM      9  H2  UNL     1      27.174  20.187   9.393  1.00  0.00     0.183 HD
HETATM   10  C2  UNL     1      28.742  17.605   8.207  1.00  0.00     0.193 C 
HETATM   11  C1  UNL     1      28.344  16.193   7.828  1.00  0.00     0.053 C 
HETATM   12  N5  UNL     1      28.473  18.427   7.038  1.00  0.00    -0.357 N 
ATOM     13  H5  UNL     1      28.638  18.198   6.058  1.00  0.00     0.162 HD
ENDBRANCH   1   6
TORSDOF 1
ENDMDL
MODEL 2
REMARK VINA RESULT: -5.807162495      1.951      2.462
REMARK  1 active torsions:
REMARK  status: ('A' for Active; 'I' for Inactive)
REMARK    1  A    between atoms: C3_6  and  C4_7 
ROOT
HETATM    1  C4  UNL     1      27.178  20.063   4.938  1.00  0.00     0.267 C 
HETATM    2  C5  UNL     1      27.573  21.195   5.791  1.00  0.00     0.086 C 
HETATM    3  N3  UNL     1      27.893  22.074   6.475  1.00  0.00    -0.195 NA
HETATM    4  C6  UNL     1      25.743  19.875   4.888  1.00  0.00     0.086 C 
HETATM    5  N4  UNL     1      24.592  19.743   4.848  1.00  0.00    -0.195 NA
ENDROOT
BRANCH   1   6
HETATM    6  C3  UNL     1      27.827  18.839   5.532  1.00  0.00     0.122 C 
HETATM    7  N2  UNL     1      28.977  18.346   5.299  1.00  0.00    -0.289 N 
HETATM    8  N1  UNL     1      29.171  17.202   6.074  1.00  0.00    -0.115 NA
ATOM      9  H2  UNL     1      29.657  18.730   4.643  1.00  0.00     0.183 HD
HETATM   10  C2  UNL     1      27.882  16.818   6.572  1.00  0.00     0.193 C 
HETATM   11  C1  UNL     1      27.931  16.436   8.037  1.00  0.00     0.053 C 
HETATM   12  N5  UNL     1      27.125  18.058   6.504  1.00  0.00    -0.357 N 
ATOM     13  H5  UNL     1      26.287  18.312   7.028  1.00  0.00     0.162 HD
ENDBRANCH   1   6
TORSDOF 1
ENDMDL
MODEL 3
REMARK VINA RESULT: -5.729470175      1.624      4.475
REMARK  1 active torsions:
REMARK  status: ('A' for Active; 'I' for Inactive)
REMARK    1  A    between atoms: C3_6  and  C4_7 
ROOT
HETATM    1  C4  UNL     1      28.129  18.716   7.068  1.00  0.00     0.267 C 
HETATM    2  C5  UNL     1      27.639  17.732   6.090  1.00  0.00     0.086 C 
HETATM    3  N3  UNL     1      27.238  16.968   5.316  1.00  0.00    -0.195 NA
HETATM    4  C6  UNL     1      28.137  18.201   8.421  1.00  0.00     0.086 C 
HETATM    5  N4  UNL     1      28.150  17.773   9.498  1.00  0.00    -0.195 NA
ENDROOT
BRANCH   1   6
HETATM    6  C3  UNL     1      27.196  19.897   6.983  1.00  0.00     0.122 C 
HETATM    7  N2  UNL     1      26.482  20.288   6.004  1.00  0.00    -0.289 N 
HETATM    8  N1  UNL     1      25.768  21.431   6.362  1.00  0.00    -0.115 NA
ATOM      9  H2  UNL     1      26.438  19.832   5.092  1.00  0.00     0.183 HD
HETATM   10  C2  UNL     1      26.368  21.932   7.565  1.00  0.00     0.193 C 
HETATM   11  C1  UNL     1      25.329  22.346   8.586  1.00  0.00     0.053 C 
HETATM   12  N5  UNL     1      27.027  20.757   8.113  1.00  0.00    -0.357 N 
ATOM     13  H5  UNL     1      27.304  20.586   9.080  1.00  0.00     0.162 HD
ENDBRANCH   1   6
TORSDOF 1
ENDMDL
MODEL 4
REMARK VINA RESULT: -5.683033884      1.556      2.359
REMARK  1 active torsions:
REMARK  status: ('A' for Active; 'I' for Inactive)
REMARK    1  A    between atoms: C3_6  and  C4_7 
ROOT
HETATM    1  C4  UNL     1      26.664  20.993   5.485  1.00  0.00     0.267 C 
HETATM    2  C5  UNL     1      26.357  21.500   6.832  1.00  0.00     0.086 C 
HETATM    3  N3  UNL     1      26.126  21.885   7.900  1.00  0.00    -0.195 NA
HETATM    4  C6  UNL     1      25.493  20.493   4.797  1.00  0.00     0.086 C 
HETATM    5  N4  UNL     1      24.546  20.106   4.252  1.00  0.00    -0.195 NA
ENDROOT
BRANCH   1   6
HETATM    6  C3  UNL     1      27.657  19.874   5.671  1.00  0.00     0.122 C 
HETATM    7  N2  UNL     1      28.581  19.481   4.888  1.00  0.00    -0.289 N 
HETATM    8  N1  UNL     1      29.266  18.409   5.460  1.00  0.00    -0.115 NA
ATOM      9  H2  UNL     1      28.790  19.890   3.977  1.00  0.00     0.183 HD
HETATM   10  C2  UNL     1      28.455  17.933   6.544  1.00  0.00     0.193 C 
HETATM   11  C1  UNL     1      29.278  17.644   7.782  1.00  0.00     0.053 C 
HETATM   12  N5  UNL     1      27.633  19.088   6.866  1.00  0.00    -0.357 N 
ATOM     13  H5  UNL     1      27.151  19.291   7.742  1.00  0.00     0.162 HD
ENDBRANCH   1   6
TORSDOF 1
ENDMDL
MODEL 5
REMARK VINA RESULT: -5.662629394      2.035      4.671
REMARK  1 active torsions:
REMARK  status: ('A' for Active; 'I' for Inactive)
REMARK    1  A    between atoms: C3_6  and  C4_7 
ROOT
HETATM    1  C4  UNL     1      29.303  18.632   7.286  1.00  0.00     0.267 C 
HETATM    2  C5  UNL     1      30.344  17.657   6.924  1.00  0.00     0.086 C 
HETATM    3  N3  UNL     1      31.155  16.886   6.622  1.00  0.00    -0.195 NA
HETATM    4  C6  UNL     1      28.483  18.188   8.393  1.00  0.00     0.086 C 
HETATM    5  N4  UNL     1      27.841  17.826   9.288  1.00  0.00    -0.195 NA
ENDROOT
BRANCH   1   6
HETATM    6  C3  UNL     1      28.444  18.808   6.060  1.00  0.00     0.122 C 
HETATM    7  N2  UNL     1      28.771  18.731   4.832  1.00  0.00    -0.289 N 
HETATM    8  N1  UNL     1      27.656  18.964   4.027  1.00  0.00    -0.115 NA
ATOM      9  H2  UNL     1      29.710  18.528   4.487  1.00  0.00     0.183 HD
HETATM   10  C2  UNL     1      26.652  19.544   4.871  1.00  0.00     0.193 C 
HETATM   11  C1  UNL     1      25.285  18.939   4.623  1.00  0.00     0.053 C 
HETATM   12  N5  UNL     1      27.052  19.107   6.199  1.00  0.00    -0.357 N 
ATOM     13  H5  UNL     1      26.474  19.031   7.036  1.00  0.00     0.162 HD
ENDBRANCH   1   6
TORSDOF 1
ENDMDL
