MODEL 1
REMARK VINA RESULT: -8.168910238      0.000      0.000
REMARK  10 active torsions:
REMARK  status: ('A' for Active; 'I' for Inactive)
REMARK    1  A    between atoms: C2_2  and  C4_4 
REMARK    2  A    between atoms: C2_2  and  C5_7 
REMARK    3  A    between atoms: C4_4  and  O1_5 
REMARK    4  A    between atoms: C6_8  and  O2_9 
REMARK    5  A    between atoms: C24_28  and  O3_29 
REMARK    6  A    between atoms: O3_29  and  S1_30 
REMARK    7  A    between atoms: S1_30  and  N1_33 
REMARK    8  A    between atoms: N1_33  and  C25_35 
REMARK    9  A    between atoms: C25_35  and  C26_36 
REMARK   10  A    between atoms: C26_36  and  N2_37 
ROOT
HETATM    1  C5  UNL     1       2.720  27.506  25.631  1.00  0.00     0.029 C 
HETATM    2  C6  UNL     1       3.561  27.870  24.472  1.00  0.00     0.123 C 
HETATM    3  C7  UNL     1       4.177  29.233  24.516  1.00  0.00     0.033 C 
HETATM    4  C8  UNL     1       3.652  30.182  25.518  1.00  0.00     0.012 C 
HETATM    5  C9  UNL     1       2.290  29.970  26.076  1.00  0.00    -0.035 C 
HETATM    6  C10 UNL     1       2.442  30.495  27.536  1.00  0.00     0.016 C 
HETATM    7  C11 UNL     1       1.863  28.553  26.231  1.00  0.00     0.001 C 
HETATM    8  C12 UNL     1       0.395  28.445  25.811  1.00  0.00     0.007 C 
HETATM    9  C13 UNL     1       0.116  29.042  24.477  1.00  0.00     0.011 C 
HETATM   10  C14 UNL     1       0.465  30.497  24.349  1.00  0.00    -0.032 C 
HETATM   11  C15 UNL     1       1.263  30.690  23.106  1.00  0.00     0.016 C 
HETATM   12  C16 UNL     1       1.211  30.891  25.578  1.00  0.00     0.003 C 
HETATM   13  C17 UNL     1       1.625  32.323  25.588  1.00  0.00     0.006 C 
HETATM   14  C18 UNL     1       0.397  33.218  25.419  1.00  0.00     0.006 C 
HETATM   15  C19 UNL     1      -0.297  32.788  24.161  1.00  0.00     0.003 C 
HETATM   16  C20 UNL     1      -1.290  33.789  23.641  1.00  0.00    -0.035 C 
HETATM   17  C21 UNL     1      -2.292  34.232  24.661  1.00  0.00     0.016 C 
HETATM   18  C22 UNL     1      -0.530  35.035  23.192  1.00  0.00     0.012 C 
HETATM   19  C23 UNL     1      -1.431  36.090  22.636  1.00  0.00     0.035 C 
HETATM   20  C24 UNL     1      -2.747  35.584  22.103  1.00  0.00     0.152 C 
HETATM   21  C31 UNL     1      -2.695  34.188  21.580  1.00  0.00    -0.016 C 
HETATM   22  C32 UNL     1      -2.181  34.280  20.145  1.00  0.00     0.018 C 
HETATM   23  C33 UNL     1      -4.149  33.740  21.449  1.00  0.00     0.018 C 
HETATM   24  C34 UNL     1      -1.884  33.240  22.381  1.00  0.00     0.004 C 
HETATM   25  C35 UNL     1      -2.653  32.005  22.719  1.00  0.00     0.007 C 
HETATM   26  C36 UNL     1      -1.672  30.945  23.131  1.00  0.00     0.011 C 
HETATM   27  C37 UNL     1      -0.781  31.387  24.285  1.00  0.00    -0.032 C 
HETATM   28  C38 UNL     1      -1.696  31.163  25.473  1.00  0.00     0.016 C 
ENDROOT
BRANCH  20  29
HETATM   29  O3  UNL     1      -3.059  36.423  21.036  1.00  0.00    -0.253 OA
BRANCH  29  30
HETATM   30  S1  UNL     1      -3.644  37.956  21.632  1.00  0.00     0.358 S 
HETATM   31  O4  UNL     1      -3.767  37.811  23.133  1.00  0.00    -0.176 OA
HETATM   32  O5  UNL     1      -4.951  38.279  21.063  1.00  0.00    -0.176 OA
BRANCH  30  33
HETATM   33  N1  UNL     1      -2.356  39.065  21.252  1.00  0.00    -0.295 N 
ATOM     34  H1  UNL     1      -2.026  39.317  20.320  1.00  0.00     0.174 HD
BRANCH  33  35
HETATM   35  C25 UNL     1      -1.832  39.570  22.532  1.00  0.00     0.164 C 
BRANCH  35  36
HETATM   36  C26 UNL     1      -0.603  40.418  22.188  1.00  0.00     0.293 C 
BRANCH  36  37
HETATM   37  N2  UNL     1       0.436  39.430  21.813  1.00  0.00     0.094 N 
HETATM   38  C27 UNL     1       0.767  38.607  22.933  1.00  0.00     0.298 C 
HETATM   39  C28 UNL     1       1.568  39.404  23.958  1.00  0.00     0.198 C 
HETATM   40  O6  UNL     1       2.541  40.194  23.353  1.00  0.00    -0.388 OA
HETATM   41  C29 UNL     1       2.786  39.819  22.036  1.00  0.00     0.198 C 
HETATM   42  C30 UNL     1       1.569  40.065  21.185  1.00  0.00     0.298 C 
ENDBRANCH  36  37
ENDBRANCH  35  36
ENDBRANCH  33  35
ENDBRANCH  30  33
ENDBRANCH  29  30
ENDBRANCH  20  29
BRANCH   1  43
HETATM   43  C2  UNL     1       3.367  26.555  26.654  1.00  0.00    -0.020 C 
HETATM   44  C1  UNL     1       2.269  26.054  27.602  1.00  0.00     0.017 C 
HETATM   45  C3  UNL     1       4.391  27.232  27.481  1.00  0.00     0.017 C 
BRANCH  43  46
HETATM   46  C4  UNL     1       3.982  25.333  26.055  1.00  0.00     0.173 C 
BRANCH  46  47
HETATM   47  O1  UNL     1       5.341  25.194  26.385  1.00  0.00    -0.400 OA
ATOM     48  H1  UNL     1       5.676  24.326  26.196  1.00  0.00     0.209 HD
ENDBRANCH  46  47
ENDBRANCH  43  46
ENDBRANCH   1  43
BRANCH   2  49
HETATM   49  O2  UNL     1       4.569  26.915  24.312  1.00  0.00    -0.395 OA
ATOM     50  H2  UNL     1       5.175  27.205  23.640  1.00  0.00     0.210 HD
ENDBRANCH   2  49
TORSDOF 10
ENDMDL
MODEL 2
REMARK VINA RESULT: -7.831515784      1.251      1.597
REMARK  10 active torsions:
REMARK  status: ('A' for Active; 'I' for Inactive)
REMARK    1  A    between atoms: C2_2  and  C4_4 
REMARK    2  A    between atoms: C2_2  and  C5_7 
REMARK    3  A    between atoms: C4_4  and  O1_5 
REMARK    4  A    between atoms: C6_8  and  O2_9 
REMARK    5  A    between atoms: C24_28  and  O3_29 
REMARK    6  A    between atoms: O3_29  and  S1_30 
REMARK    7  A    between atoms: S1_30  and  N1_33 
REMARK    8  A    between atoms: N1_33  and  C25_35 
REMARK    9  A    between atoms: C25_35  and  C26_36 
REMARK   10  A    between atoms: C26_36  and  N2_37 
ROOT
HETATM    1  C5  UNL     1       2.735  27.460  25.608  1.00  0.00     0.029 C 
HETATM    2  C6  UNL     1       3.566  27.809  24.437  1.00  0.00     0.123 C 
HETATM    3  C7  UNL     1       4.187  29.170  24.462  1.00  0.00     0.033 C 
HETATM    4  C8  UNL     1       3.675  30.131  25.458  1.00  0.00     0.012 C 
HETATM    5  C9  UNL     1       2.318  29.930  26.031  1.00  0.00    -0.035 C 
HETATM    6  C10 UNL     1       2.485  30.469  27.484  1.00  0.00     0.016 C 
HETATM    7  C11 UNL     1       1.887  28.516  26.205  1.00  0.00     0.001 C 
HETATM    8  C12 UNL     1       0.415  28.409  25.800  1.00  0.00     0.007 C 
HETATM    9  C13 UNL     1       0.126  28.993  24.462  1.00  0.00     0.011 C 
HETATM   10  C14 UNL     1       0.478  30.446  24.316  1.00  0.00    -0.032 C 
HETATM   11  C15 UNL     1       1.265  30.623  23.064  1.00  0.00     0.016 C 
HETATM   12  C16 UNL     1       1.238  30.849  25.534  1.00  0.00     0.003 C 
HETATM   13  C17 UNL     1       1.656  32.280  25.525  1.00  0.00     0.006 C 
HETATM   14  C18 UNL     1       0.430  33.178  25.359  1.00  0.00     0.006 C 
HETATM   15  C19 UNL     1      -0.277  32.737  24.112  1.00  0.00     0.003 C 
HETATM   16  C20 UNL     1      -1.272  33.736  23.591  1.00  0.00    -0.035 C 
HETATM   17  C21 UNL     1      -2.262  34.193  24.615  1.00  0.00     0.016 C 
HETATM   18  C22 UNL     1      -0.512  34.974  23.122  1.00  0.00     0.012 C 
HETATM   19  C23 UNL     1      -1.414  36.027  22.563  1.00  0.00     0.035 C 
HETATM   20  C24 UNL     1      -2.737  35.520  22.047  1.00  0.00     0.152 C 
HETATM   21  C31 UNL     1      -2.695  34.118  21.538  1.00  0.00    -0.016 C 
HETATM   22  C32 UNL     1      -2.194  34.194  20.098  1.00  0.00     0.018 C 
HETATM   23  C33 UNL     1      -4.152  33.675  21.426  1.00  0.00     0.018 C 
HETATM   24  C34 UNL     1      -1.879  33.176  22.341  1.00  0.00     0.004 C 
HETATM   25  C35 UNL     1      -2.650  31.947  22.700  1.00  0.00     0.007 C 
HETATM   26  C36 UNL     1      -1.669  30.889  23.114  1.00  0.00     0.011 C 
HETATM   27  C37 UNL     1      -0.765  31.339  24.255  1.00  0.00    -0.032 C 
HETATM   28  C38 UNL     1      -1.670  31.130  25.454  1.00  0.00     0.016 C 
ENDROOT
BRANCH  20  29
HETATM   29  O3  UNL     1      -3.056  36.349  20.975  1.00  0.00    -0.253 OA
BRANCH  29  30
HETATM   30  S1  UNL     1      -3.914  37.760  21.544  1.00  0.00     0.358 S 
HETATM   31  O4  UNL     1      -4.326  37.462  22.969  1.00  0.00    -0.176 OA
HETATM   32  O5  UNL     1      -5.104  38.016  20.734  1.00  0.00    -0.176 OA
BRANCH  30  33
HETATM   33  N1  UNL     1      -2.703  39.012  21.531  1.00  0.00    -0.295 N 
ATOM     34  H1  UNL     1      -2.175  39.338  20.722  1.00  0.00     0.174 HD
BRANCH  33  35
HETATM   35  C25 UNL     1      -2.586  39.511  22.911  1.00  0.00     0.164 C 
BRANCH  35  36
HETATM   36  C26 UNL     1      -1.121  39.316  23.315  1.00  0.00     0.293 C 
BRANCH  36  37
HETATM   37  N2  UNL     1      -1.124  39.444  24.792  1.00  0.00     0.094 N 
HETATM   38  C27 UNL     1       0.212  39.444  25.294  1.00  0.00     0.298 C 
HETATM   39  C28 UNL     1       0.819  38.047  25.188  1.00  0.00     0.198 C 
HETATM   40  O6  UNL     1      -0.081  37.062  25.582  1.00  0.00    -0.388 OA
HETATM   41  C29 UNL     1      -1.159  37.580  26.292  1.00  0.00     0.198 C 
HETATM   42  C30 UNL     1      -1.992  38.470  25.407  1.00  0.00     0.298 C 
ENDBRANCH  36  37
ENDBRANCH  35  36
ENDBRANCH  33  35
ENDBRANCH  30  33
ENDBRANCH  29  30
ENDBRANCH  20  29
BRANCH   1  43
HETATM   43  C2  UNL     1       3.388  26.517  26.634  1.00  0.00    -0.020 C 
HETATM   44  C1  UNL     1       2.291  26.002  27.577  1.00  0.00     0.017 C 
HETATM   45  C3  UNL     1       4.400  27.207  27.467  1.00  0.00     0.017 C 
BRANCH  43  46
HETATM   46  C4  UNL     1       4.021  25.303  26.039  1.00  0.00     0.173 C 
BRANCH  46  47
HETATM   47  O1  UNL     1       5.386  25.194  26.354  1.00  0.00    -0.400 OA
ATOM     48  H1  UNL     1       5.846  24.590  25.785  1.00  0.00     0.209 HD
ENDBRANCH  46  47
ENDBRANCH  43  46
ENDBRANCH   1  43
BRANCH   2  49
HETATM   49  O2  UNL     1       4.569  26.849  24.278  1.00  0.00    -0.395 OA
ATOM     50  H2  UNL     1       4.748  26.730  23.352  1.00  0.00     0.210 HD
ENDBRANCH   2  49
TORSDOF 10
ENDMDL
MODEL 3
REMARK VINA RESULT: -7.677381638      1.390      1.585
REMARK  10 active torsions:
REMARK  status: ('A' for Active; 'I' for Inactive)
REMARK    1  A    between atoms: C2_2  and  C4_4 
REMARK    2  A    between atoms: C2_2  and  C5_7 
REMARK    3  A    between atoms: C4_4  and  O1_5 
REMARK    4  A    between atoms: C6_8  and  O2_9 
REMARK    5  A    between atoms: C24_28  and  O3_29 
REMARK    6  A    between atoms: O3_29  and  S1_30 
REMARK    7  A    between atoms: S1_30  and  N1_33 
REMARK    8  A    between atoms: N1_33  and  C25_35 
REMARK    9  A    between atoms: C25_35  and  C26_36 
REMARK   10  A    between atoms: C26_36  and  N2_37 
ROOT
HETATM    1  C5  UNL     1       3.983  29.027  26.695  1.00  0.00     0.029 C 
HETATM    2  C6  UNL     1       4.865  29.929  25.925  1.00  0.00     0.123 C 
HETATM    3  C7  UNL     1       4.856  31.364  26.347  1.00  0.00     0.033 C 
HETATM    4  C8  UNL     1       3.770  31.800  27.247  1.00  0.00     0.012 C 
HETATM    5  C9  UNL     1       2.514  31.007  27.307  1.00  0.00    -0.035 C 
HETATM    6  C10 UNL     1       2.083  31.175  28.796  1.00  0.00     0.016 C 
HETATM    7  C11 UNL     1       2.662  29.537  27.125  1.00  0.00     0.001 C 
HETATM    8  C12 UNL     1       1.509  29.042  26.247  1.00  0.00     0.007 C 
HETATM    9  C13 UNL     1       1.350  29.818  24.988  1.00  0.00     0.011 C 
HETATM   10  C14 UNL     1       1.111  31.289  25.176  1.00  0.00    -0.032 C 
HETATM   11  C15 UNL     1       2.043  32.042  24.291  1.00  0.00     0.016 C 
HETATM   12  C16 UNL     1       1.315  31.597  26.620  1.00  0.00     0.003 C 
HETATM   13  C17 UNL     1       1.108  33.035  26.954  1.00  0.00     0.006 C 
HETATM   14  C18 UNL     1      -0.293  33.471  26.525  1.00  0.00     0.006 C 
HETATM   15  C19 UNL     1      -0.429  33.155  25.065  1.00  0.00     0.003 C 
HETATM   16  C20 UNL     1      -1.579  33.853  24.395  1.00  0.00    -0.035 C 
HETATM   17  C21 UNL     1      -2.890  33.662  25.092  1.00  0.00     0.016 C 
HETATM   18  C22 UNL     1      -1.293  35.352  24.385  1.00  0.00     0.012 C 
HETATM   19  C23 UNL     1      -2.374  36.140  23.718  1.00  0.00     0.035 C 
HETATM   20  C24 UNL     1      -3.206  35.364  22.729  1.00  0.00     0.152 C 
HETATM   21  C31 UNL     1      -2.477  34.244  22.066  1.00  0.00    -0.016 C 
HETATM   22  C32 UNL     1      -1.709  34.856  20.897  1.00  0.00     0.018 C 
HETATM   23  C33 UNL     1      -3.554  33.375  21.419  1.00  0.00     0.018 C 
HETATM   24  C34 UNL     1      -1.578  33.463  22.949  1.00  0.00     0.004 C 
HETATM   25  C35 UNL     1      -1.849  31.997  22.854  1.00  0.00     0.007 C 
HETATM   26  C36 UNL     1      -0.661  31.268  23.411  1.00  0.00     0.011 C 
HETATM   27  C37 UNL     1      -0.330  31.687  24.838  1.00  0.00    -0.032 C 
HETATM   28  C38 UNL     1      -1.339  30.880  25.630  1.00  0.00     0.016 C 
ENDROOT
BRANCH  20  29
HETATM   29  O3  UNL     1      -3.556  36.282  21.741  1.00  0.00    -0.253 OA
BRANCH  29  30
HETATM   30  S1  UNL     1      -4.575  37.528  22.418  1.00  0.00     0.358 S 
HETATM   31  O4  UNL     1      -5.226  36.928  23.644  1.00  0.00    -0.176 OA
HETATM   32  O5  UNL     1      -5.608  37.939  21.467  1.00  0.00    -0.176 OA
BRANCH  30  33
HETATM   33  N1  UNL     1      -3.449  38.768  22.896  1.00  0.00    -0.295 N 
ATOM     34  H1  UNL     1      -3.428  39.257  23.791  1.00  0.00     0.174 HD
BRANCH  33  35
HETATM   35  C25 UNL     1      -2.532  38.976  21.763  1.00  0.00     0.164 C 
BRANCH  35  36
HETATM   36  C26 UNL     1      -1.376  39.828  22.297  1.00  0.00     0.293 C 
BRANCH  36  37
HETATM   37  N2  UNL     1      -0.155  39.123  21.839  1.00  0.00     0.094 N 
HETATM   38  C27 UNL     1       0.266  38.171  22.816  1.00  0.00     0.298 C 
HETATM   39  C28 UNL     1       0.854  38.882  24.032  1.00  0.00     0.198 C 
HETATM   40  O6  UNL     1       1.694  39.929  23.661  1.00  0.00    -0.388 OA
HETATM   41  C29 UNL     1       2.069  39.861  22.323  1.00  0.00     0.198 C 
HETATM   42  C30 UNL     1       0.871  40.052  21.432  1.00  0.00     0.298 C 
ENDBRANCH  36  37
ENDBRANCH  35  36
ENDBRANCH  33  35
ENDBRANCH  30  33
ENDBRANCH  29  30
ENDBRANCH  20  29
BRANCH   1  43
HETATM   43  C2  UNL     1       4.685  28.132  27.732  1.00  0.00    -0.020 C 
HETATM   44  C1  UNL     1       3.629  27.643  28.734  1.00  0.00     0.017 C 
HETATM   45  C3  UNL     1       5.717  28.865  28.500  1.00  0.00     0.017 C 
BRANCH  43  46
HETATM   46  C4  UNL     1       5.311  26.902  27.162  1.00  0.00     0.173 C 
BRANCH  46  47
HETATM   47  O1  UNL     1       6.711  26.993  27.087  1.00  0.00    -0.400 OA
ATOM     48  H1  UNL     1       7.140  26.687  27.876  1.00  0.00     0.209 HD
ENDBRANCH  46  47
ENDBRANCH  43  46
ENDBRANCH   1  43
BRANCH   2  49
HETATM   49  O2  UNL     1       6.175  29.445  25.969  1.00  0.00    -0.395 OA
ATOM     50  H2  UNL     1       6.615  29.794  26.735  1.00  0.00     0.210 HD
ENDBRANCH   2  49
TORSDOF 10
ENDMDL
MODEL 4
REMARK VINA RESULT: -7.618517472      6.053     12.168
REMARK  10 active torsions:
REMARK  status: ('A' for Active; 'I' for Inactive)
REMARK    1  A    between atoms: C2_2  and  C4_4 
REMARK    2  A    between atoms: C2_2  and  C5_7 
REMARK    3  A    between atoms: C4_4  and  O1_5 
REMARK    4  A    between atoms: C6_8  and  O2_9 
REMARK    5  A    between atoms: C24_28  and  O3_29 
REMARK    6  A    between atoms: O3_29  and  S1_30 
REMARK    7  A    between atoms: S1_30  and  N1_33 
REMARK    8  A    between atoms: N1_33  and  C25_35 
REMARK    9  A    between atoms: C25_35  and  C26_36 
REMARK   10  A    between atoms: C26_36  and  N2_37 
ROOT
HETATM    1  C5  UNL     1     -12.545  35.098  17.329  1.00  0.00     0.029 C 
HETATM    2  C6  UNL     1     -11.802  34.524  16.188  1.00  0.00     0.123 C 
HETATM    3  C7  UNL     1     -11.221  33.163  16.407  1.00  0.00     0.033 C 
HETATM    4  C8  UNL     1     -11.162  32.667  17.797  1.00  0.00     0.012 C 
HETATM    5  C9  UNL     1     -11.202  33.642  18.918  1.00  0.00    -0.035 C 
HETATM    6  C10 UNL     1     -11.968  32.850  20.022  1.00  0.00     0.016 C 
HETATM    7  C11 UNL     1     -12.025  34.861  18.694  1.00  0.00     0.001 C 
HETATM    8  C12 UNL     1     -11.272  36.063  19.270  1.00  0.00     0.007 C 
HETATM    9  C13 UNL     1      -9.864  36.160  18.797  1.00  0.00     0.011 C 
HETATM   10  C14 UNL     1      -9.009  34.964  19.105  1.00  0.00    -0.032 C 
HETATM   11  C15 UNL     1      -8.296  34.555  17.863  1.00  0.00     0.016 C 
HETATM   12  C16 UNL     1      -9.904  33.895  19.633  1.00  0.00     0.003 C 
HETATM   13  C17 UNL     1      -9.182  32.638  19.983  1.00  0.00     0.006 C 
HETATM   14  C18 UNL     1      -8.080  32.938  20.998  1.00  0.00     0.006 C 
HETATM   15  C19 UNL     1      -7.206  34.002  20.403  1.00  0.00     0.003 C 
HETATM   16  C20 UNL     1      -5.874  34.146  21.082  1.00  0.00    -0.035 C 
HETATM   17  C21 UNL     1      -5.968  34.322  22.566  1.00  0.00     0.016 C 
HETATM   18  C22 UNL     1      -5.065  32.874  20.835  1.00  0.00     0.012 C 
HETATM   19  C23 UNL     1      -3.707  32.925  21.456  1.00  0.00     0.035 C 
HETATM   20  C24 UNL     1      -3.171  34.313  21.697  1.00  0.00     0.152 C 
HETATM   21  C31 UNL     1      -3.672  35.335  20.732  1.00  0.00    -0.016 C 
HETATM   22  C32 UNL     1      -2.783  35.236  19.494  1.00  0.00     0.018 C 
HETATM   23  C33 UNL     1      -3.335  36.689  21.352  1.00  0.00     0.018 C 
HETATM   24  C34 UNL     1      -5.106  35.219  20.374  1.00  0.00     0.004 C 
HETATM   25  C35 UNL     1      -5.826  36.516  20.558  1.00  0.00     0.007 C 
HETATM   26  C36 UNL     1      -7.113  36.444  19.789  1.00  0.00     0.011 C 
HETATM   27  C37 UNL     1      -7.977  35.258  20.199  1.00  0.00    -0.032 C 
HETATM   28  C38 UNL     1      -8.629  35.783  21.462  1.00  0.00     0.016 C 
ENDROOT
BRANCH  20  29
HETATM   29  O3  UNL     1      -1.792  34.211  21.524  1.00  0.00    -0.253 OA
BRANCH  29  30
HETATM   30  S1  UNL     1      -0.995  34.207  23.078  1.00  0.00     0.358 S 
HETATM   31  O4  UNL     1       0.215  35.104  22.938  1.00  0.00    -0.176 OA
HETATM   32  O5  UNL     1      -0.564  32.859  23.445  1.00  0.00    -0.176 OA
BRANCH  30  33
HETATM   33  N1  UNL     1      -2.158  34.948  24.141  1.00  0.00    -0.295 N 
ATOM     34  H1  UNL     1      -3.138  34.686  24.246  1.00  0.00     0.174 HD
BRANCH  33  35
HETATM   35  C25 UNL     1      -1.458  36.025  24.860  1.00  0.00     0.164 C 
BRANCH  35  36
HETATM   36  C26 UNL     1      -2.081  37.339  24.378  1.00  0.00     0.293 C 
BRANCH  36  37
HETATM   37  N2  UNL     1      -1.132  38.386  24.827  1.00  0.00     0.094 N 
HETATM   38  C27 UNL     1      -1.066  39.441  23.868  1.00  0.00     0.298 C 
HETATM   39  C28 UNL     1      -0.321  38.977  22.619  1.00  0.00     0.198 C 
HETATM   40  O6  UNL     1       0.818  38.244  22.940  1.00  0.00    -0.388 OA
HETATM   41  C29 UNL     1       1.194  38.402  24.270  1.00  0.00     0.198 C 
HETATM   42  C30 UNL     1       0.147  37.823  25.184  1.00  0.00     0.298 C 
ENDBRANCH  36  37
ENDBRANCH  35  36
ENDBRANCH  33  35
ENDBRANCH  30  33
ENDBRANCH  29  30
ENDBRANCH  20  29
BRANCH   1  43
HETATM   43  C2  UNL     1     -14.080  35.050  17.219  1.00  0.00    -0.020 C 
HETATM   44  C1  UNL     1     -14.667  35.294  18.616  1.00  0.00     0.017 C 
HETATM   45  C3  UNL     1     -14.569  33.731  16.757  1.00  0.00     0.017 C 
BRANCH  43  46
HETATM   46  C4  UNL     1     -14.667  36.102  16.337  1.00  0.00     0.173 C 
BRANCH  46  47
HETATM   47  O1  UNL     1     -13.803  37.194  16.147  1.00  0.00    -0.400 OA
ATOM     48  H1  UNL     1     -14.192  37.881  15.621  1.00  0.00     0.209 HD
ENDBRANCH  46  47
ENDBRANCH  43  46
ENDBRANCH   1  43
BRANCH   2  49
HETATM   49  O2  UNL     1     -12.631  34.493  15.063  1.00  0.00    -0.395 OA
ATOM     50  H2  UNL     1     -12.128  34.735  14.294  1.00  0.00     0.210 HD
ENDBRANCH   2  49
TORSDOF 10
ENDMDL
MODEL 5
REMARK VINA RESULT: -7.607823508      2.008      2.610
REMARK  10 active torsions:
REMARK  status: ('A' for Active; 'I' for Inactive)
REMARK    1  A    between atoms: C2_2  and  C4_4 
REMARK    2  A    between atoms: C2_2  and  C5_7 
REMARK    3  A    between atoms: C4_4  and  O1_5 
REMARK    4  A    between atoms: C6_8  and  O2_9 
REMARK    5  A    between atoms: C24_28  and  O3_29 
REMARK    6  A    between atoms: O3_29  and  S1_30 
REMARK    7  A    between atoms: S1_30  and  N1_33 
REMARK    8  A    between atoms: N1_33  and  C25_35 
REMARK    9  A    between atoms: C25_35  and  C26_36 
REMARK   10  A    between atoms: C26_36  and  N2_37 
ROOT
HETATM    1  C5  UNL     1       3.236  28.160  26.000  1.00  0.00     0.029 C 
HETATM    2  C6  UNL     1       3.482  27.821  24.582  1.00  0.00     0.123 C 
HETATM    3  C7  UNL     1       3.819  28.970  23.687  1.00  0.00     0.033 C 
HETATM    4  C8  UNL     1       3.570  30.330  24.206  1.00  0.00     0.012 C 
HETATM    5  C9  UNL     1       2.594  30.518  25.311  1.00  0.00    -0.035 C 
HETATM    6  C10 UNL     1       3.209  31.713  26.101  1.00  0.00     0.016 C 
HETATM    7  C11 UNL     1       2.514  29.414  26.305  1.00  0.00     0.001 C 
HETATM    8  C12 UNL     1       1.041  29.191  26.660  1.00  0.00     0.007 C 
HETATM    9  C13 UNL     1       0.165  29.028  25.468  1.00  0.00     0.011 C 
HETATM   10  C14 UNL     1       0.178  30.184  24.509  1.00  0.00    -0.032 C 
HETATM   11  C15 UNL     1       0.381  29.658  23.130  1.00  0.00     0.016 C 
HETATM   12  C16 UNL     1       1.264  31.111  24.936  1.00  0.00     0.003 C 
HETATM   13  C17 UNL     1       1.393  32.314  24.065  1.00  0.00     0.006 C 
HETATM   14  C18 UNL     1       0.061  33.064  24.017  1.00  0.00     0.006 C 
HETATM   15  C19 UNL     1      -0.982  32.087  23.564  1.00  0.00     0.003 C 
HETATM   16  C20 UNL     1      -2.257  32.731  23.096  1.00  0.00    -0.035 C 
HETATM   17  C21 UNL     1      -2.842  33.697  24.080  1.00  0.00     0.016 C 
HETATM   18  C22 UNL     1      -1.962  33.517  21.822  1.00  0.00     0.012 C 
HETATM   19  C23 UNL     1      -3.176  34.184  21.261  1.00  0.00     0.035 C 
HETATM   20  C24 UNL     1      -4.486  33.554  21.660  1.00  0.00     0.152 C 
HETATM   21  C31 UNL     1      -4.401  32.088  21.925  1.00  0.00    -0.016 C 
HETATM   22  C32 UNL     1      -4.512  31.394  20.569  1.00  0.00     0.018 C 
HETATM   23  C33 UNL     1      -5.689  31.725  22.660  1.00  0.00     0.018 C 
HETATM   24  C34 UNL     1      -3.190  31.645  22.657  1.00  0.00     0.004 C 
HETATM   25  C35 UNL     1      -3.540  30.812  23.846  1.00  0.00     0.007 C 
HETATM   26  C36 UNL     1      -2.308  30.062  24.265  1.00  0.00     0.011 C 
HETATM   27  C37 UNL     1      -1.129  30.983  24.551  1.00  0.00    -0.032 C 
HETATM   28  C38 UNL     1      -1.453  31.461  25.953  1.00  0.00     0.016 C 
ENDROOT
BRANCH  20  29
HETATM   29  O3  UNL     1      -5.331  33.737  20.567  1.00  0.00    -0.253 OA
BRANCH  29  30
HETATM   30  S1  UNL     1      -6.457  35.031  20.893  1.00  0.00     0.358 S 
HETATM   31  O4  UNL     1      -6.729  34.996  22.381  1.00  0.00    -0.176 OA
HETATM   32  O5  UNL     1      -7.709  34.836  20.163  1.00  0.00    -0.176 OA
BRANCH  30  33
HETATM   33  N1  UNL     1      -5.561  36.469  20.491  1.00  0.00    -0.295 N 
ATOM     34  H1  UNL     1      -5.258  36.755  19.560  1.00  0.00     0.174 HD
BRANCH  33  35
HETATM   35  C25 UNL     1      -5.324  37.193  21.751  1.00  0.00     0.164 C 
BRANCH  35  36
HETATM   36  C26 UNL     1      -4.262  38.254  21.442  1.00  0.00     0.293 C 
BRANCH  36  37
HETATM   37  N2  UNL     1      -3.014  37.711  22.031  1.00  0.00     0.094 N 
HETATM   38  C27 UNL     1      -2.683  38.415  23.228  1.00  0.00     0.298 C 
HETATM   39  C28 UNL     1      -2.187  39.820  22.898  1.00  0.00     0.198 C 
HETATM   40  O6  UNL     1      -1.311  39.818  21.817  1.00  0.00    -0.388 OA
HETATM   41  C29 UNL     1      -0.830  38.546  21.525  1.00  0.00     0.198 C 
HETATM   42  C30 UNL     1      -1.951  37.655  21.058  1.00  0.00     0.298 C 
ENDBRANCH  36  37
ENDBRANCH  35  36
ENDBRANCH  33  35
ENDBRANCH  30  33
ENDBRANCH  29  30
ENDBRANCH  20  29
BRANCH   1  43
HETATM   43  C2  UNL     1       4.386  27.838  26.972  1.00  0.00    -0.020 C 
HETATM   44  C1  UNL     1       3.830  27.884  28.402  1.00  0.00     0.017 C 
HETATM   45  C3  UNL     1       5.483  28.829  26.892  1.00  0.00     0.017 C 
BRANCH  43  46
HETATM   46  C4  UNL     1       4.973  26.475  26.802  1.00  0.00     0.173 C 
BRANCH  46  47
HETATM   47  O1  UNL     1       6.373  26.500  26.688  1.00  0.00    -0.400 OA
ATOM     48  H1  UNL     1       6.683  26.068  25.902  1.00  0.00     0.209 HD
ENDBRANCH  46  47
ENDBRANCH  43  46
ENDBRANCH   1  43
BRANCH   2  49
HETATM   49  O2  UNL     1       4.496  26.863  24.503  1.00  0.00    -0.395 OA
ATOM     50  H2  UNL     1       4.264  26.210  23.854  1.00  0.00     0.210 HD
ENDBRANCH   2  49
TORSDOF 10
ENDMDL
