MODEL 1
REMARK VINA RESULT: -8.670946263      0.000      0.000
REMARK  9 active torsions:
REMARK  status: ('A' for Active; 'I' for Inactive)
REMARK    1  A    between atoms: C18_18  and  O1_19 
REMARK    2  A    between atoms: O1_19  and  C19_20 
REMARK    3  A    between atoms: C22_23  and  N1_24 
REMARK    4  A    between atoms: C23_28  and  C24_29 
REMARK    5  A    between atoms: C24_29  and  O2_30 
REMARK    6  A    between atoms: O2_30  and  C25_31 
REMARK    7  A    between atoms: C25_31  and  C26_32 
REMARK    8  A    between atoms: C26_32  and  C27_33 
REMARK    9  A    between atoms: C38_47  and  O6_48 
ROOT
HETATM    1  C1  UNL     1       3.653  32.009  25.839  1.00  0.00     0.011 C 
HETATM    2  C2  UNL     1       2.869  31.322  24.714  1.00  0.00    -0.006 C 
HETATM    3  C3  UNL     1       1.536  31.948  24.469  1.00  0.00     0.015 C 
HETATM    4  C4  UNL     1       0.361  31.001  24.686  1.00  0.00    -0.032 C 
HETATM    5  C5  UNL     1       0.275  30.191  23.432  1.00  0.00     0.016 C 
HETATM    6  C6  UNL     1       0.739  30.275  25.919  1.00  0.00     0.003 C 
HETATM    7  C7  UNL     1      -0.355  29.745  26.770  1.00  0.00     0.006 C 
HETATM    8  C8  UNL     1      -1.394  30.767  26.990  1.00  0.00     0.006 C 
HETATM    9  C9  UNL     1      -1.177  32.085  26.235  1.00  0.00     0.003 C 
HETATM   10  C10 UNL     1      -1.954  33.048  26.969  1.00  0.00    -0.035 C 
HETATM   11  C11 UNL     1      -1.316  33.062  28.420  1.00  0.00     0.016 C 
HETATM   12  C12 UNL     1      -3.429  32.794  27.243  1.00  0.00     0.010 C 
HETATM   13  C13 UNL     1      -3.821  34.134  26.659  1.00  0.00     0.007 C 
HETATM   14  C14 UNL     1      -2.358  34.378  26.584  1.00  0.00     0.004 C 
HETATM   15  C15 UNL     1      -1.787  35.240  25.572  1.00  0.00    -0.016 C 
HETATM   16  C16 UNL     1      -2.427  36.644  25.895  1.00  0.00     0.018 C 
HETATM   17  C17 UNL     1      -0.333  35.558  25.955  1.00  0.00     0.018 C 
HETATM   18  C18 UNL     1      -2.017  35.172  24.123  1.00  0.00     0.140 C 
HETATM   19  C28 UNL     1      -1.836  33.854  23.401  1.00  0.00    -0.020 C 
HETATM   20  C29 UNL     1      -1.336  34.295  22.010  1.00  0.00     0.017 C 
HETATM   21  C30 UNL     1      -3.195  33.280  22.985  1.00  0.00     0.017 C 
HETATM   22  C31 UNL     1      -0.862  32.922  23.878  1.00  0.00     0.021 C 
HETATM   23  C32 UNL     1      -0.985  31.790  24.826  1.00  0.00    -0.031 C 
HETATM   24  C33 UNL     1      -2.020  30.770  24.407  1.00  0.00     0.016 C 
HETATM   25  C34 UNL     1       1.853  29.328  25.883  1.00  0.00    -0.029 C 
HETATM   26  C35 UNL     1       2.361  29.200  27.338  1.00  0.00     0.016 C 
HETATM   27  C36 UNL     1       1.702  27.906  25.479  1.00  0.00     0.013 C 
HETATM   28  C37 UNL     1       2.980  27.177  25.945  1.00  0.00     0.040 C 
HETATM   29  C38 UNL     1       4.236  27.791  25.365  1.00  0.00     0.188 C 
HETATM   30  C39 UNL     1       4.181  29.281  25.370  1.00  0.00     0.160 C 
HETATM   31  O7  UNL     1       5.158  29.892  25.709  1.00  0.00    -0.295 OA
HETATM   32  C40 UNL     1       2.899  29.868  24.947  1.00  0.00     0.070 C 
ENDROOT
BRANCH  18  33
HETATM   33  O1  UNL     1      -3.154  35.828  23.638  1.00  0.00    -0.354 OA
BRANCH  33  34
HETATM   34  C19 UNL     1      -3.067  36.690  22.613  1.00  0.00     0.261 C 
HETATM   35  C20 UNL     1      -4.382  37.365  22.200  1.00  0.00     0.063 C 
HETATM   36  C21 UNL     1      -4.323  38.877  22.343  1.00  0.00     0.040 C 
HETATM   37  C22 UNL     1      -3.195  39.464  21.502  1.00  0.00     0.214 C 
HETATM   38  C23 UNL     1      -2.155  38.352  21.419  1.00  0.00     0.178 C 
HETATM   39  O5  UNL     1      -2.173  37.758  22.706  1.00  0.00    -0.352 OA
BRANCH  37  40
HETATM   40  N1  UNL     1      -2.582  40.520  22.303  1.00  0.00    -0.072 N 
ATOM     41  H13 UNL     1      -2.742  41.455  21.928  1.00  0.00     0.274 HD
ATOM     42  H12 UNL     1      -3.042  40.662  23.203  1.00  0.00     0.274 HD
ATOM     43  H11 UNL     1      -1.593  40.285  22.389  1.00  0.00     0.274 HD
ENDBRANCH  37  40
BRANCH  38  44
HETATM   44  C24 UNL     1      -0.777  38.865  21.186  1.00  0.00     0.201 C 
BRANCH  44  45
HETATM   45  O2  UNL     1       0.076  38.692  22.239  1.00  0.00    -0.388 OA
BRANCH  45  46
HETATM   46  C25 UNL     1       0.873  39.787  22.493  1.00  0.00     0.178 C 
BRANCH  46  47
HETATM   47  C26 UNL     1       1.634  40.207  21.228  1.00  0.00     0.139 C 
BRANCH  47  48
HETATM   48  C27 UNL     1       3.097  40.230  21.499  1.00  0.00     0.174 C 
HETATM   49  O3  UNL     1       3.842  40.906  20.774  1.00  0.00    -0.648 OA
HETATM   50  O4  UNL     1       3.559  39.480  22.567  1.00  0.00    -0.648 OA
ENDBRANCH  47  48
ENDBRANCH  46  47
ENDBRANCH  45  46
ENDBRANCH  44  45
ENDBRANCH  38  44
ENDBRANCH  33  34
ENDBRANCH  18  33
BRANCH  29  51
HETATM   51  O6  UNL     1       4.462  27.272  24.093  1.00  0.00    -0.388 OA
ATOM     52  H6  UNL     1       3.996  27.795  23.450  1.00  0.00     0.210 HD
ENDBRANCH  29  51
TORSDOF 9
ENDMDL
MODEL 2
REMARK VINA RESULT: -8.193444778      1.055      1.447
REMARK  9 active torsions:
REMARK  status: ('A' for Active; 'I' for Inactive)
REMARK    1  A    between atoms: C18_18  and  O1_19 
REMARK    2  A    between atoms: O1_19  and  C19_20 
REMARK    3  A    between atoms: C22_23  and  N1_24 
REMARK    4  A    between atoms: C23_28  and  C24_29 
REMARK    5  A    between atoms: C24_29  and  O2_30 
REMARK    6  A    between atoms: O2_30  and  C25_31 
REMARK    7  A    between atoms: C25_31  and  C26_32 
REMARK    8  A    between atoms: C26_32  and  C27_33 
REMARK    9  A    between atoms: C38_47  and  O6_48 
ROOT
HETATM    1  C1  UNL     1       3.517  32.098  25.798  1.00  0.00     0.011 C 
HETATM    2  C2  UNL     1       2.766  31.357  24.685  1.00  0.00    -0.006 C 
HETATM    3  C3  UNL     1       1.414  31.928  24.417  1.00  0.00     0.015 C 
HETATM    4  C4  UNL     1       0.272  30.944  24.648  1.00  0.00    -0.032 C 
HETATM    5  C5  UNL     1       0.224  30.103  23.412  1.00  0.00     0.016 C 
HETATM    6  C6  UNL     1       0.668  30.260  25.899  1.00  0.00     0.003 C 
HETATM    7  C7  UNL     1      -0.412  29.709  26.756  1.00  0.00     0.006 C 
HETATM    8  C8  UNL     1      -1.489  30.696  26.945  1.00  0.00     0.006 C 
HETATM    9  C9  UNL     1      -1.315  32.005  26.162  1.00  0.00     0.003 C 
HETATM   10  C10 UNL     1      -2.132  32.955  26.870  1.00  0.00    -0.035 C 
HETATM   11  C11 UNL     1      -1.505  33.024  28.324  1.00  0.00     0.016 C 
HETATM   12  C12 UNL     1      -3.599  32.652  27.141  1.00  0.00     0.010 C 
HETATM   13  C13 UNL     1      -4.035  33.964  26.524  1.00  0.00     0.007 C 
HETATM   14  C14 UNL     1      -2.582  34.260  26.453  1.00  0.00     0.004 C 
HETATM   15  C15 UNL     1      -2.036  35.119  25.426  1.00  0.00    -0.016 C 
HETATM   16  C16 UNL     1      -2.728  36.506  25.713  1.00  0.00     0.018 C 
HETATM   17  C17 UNL     1      -0.597  35.499  25.810  1.00  0.00     0.018 C 
HETATM   18  C18 UNL     1      -2.253  35.011  23.977  1.00  0.00     0.140 C 
HETATM   19  C28 UNL     1      -2.018  33.684  23.286  1.00  0.00    -0.020 C 
HETATM   20  C29 UNL     1      -1.525  34.113  21.888  1.00  0.00     0.017 C 
HETATM   21  C30 UNL     1      -3.353  33.052  22.875  1.00  0.00     0.017 C 
HETATM   22  C31 UNL     1      -1.014  32.800  23.790  1.00  0.00     0.021 C 
HETATM   23  C32 UNL     1      -1.103  31.686  24.762  1.00  0.00    -0.031 C 
HETATM   24  C33 UNL     1      -2.096  30.619  24.360  1.00  0.00     0.016 C 
HETATM   25  C34 UNL     1       1.816  29.354  25.891  1.00  0.00    -0.029 C 
HETATM   26  C35 UNL     1       2.319  29.277  27.352  1.00  0.00     0.016 C 
HETATM   27  C36 UNL     1       1.720  27.918  25.519  1.00  0.00     0.013 C 
HETATM   28  C37 UNL     1       3.021  27.248  26.009  1.00  0.00     0.040 C 
HETATM   29  C38 UNL     1       4.258  27.894  25.423  1.00  0.00     0.188 C 
HETATM   30  C39 UNL     1       4.148  29.381  25.394  1.00  0.00     0.160 C 
HETATM   31  O7  UNL     1       5.100  30.034  25.725  1.00  0.00    -0.295 OA
HETATM   32  C40 UNL     1       2.848  29.911  24.951  1.00  0.00     0.070 C 
ENDROOT
BRANCH  18  33
HETATM   33  O1  UNL     1      -3.409  35.614  23.470  1.00  0.00    -0.354 OA
BRANCH  33  34
HETATM   34  C19 UNL     1      -3.336  36.540  22.502  1.00  0.00     0.261 C 
HETATM   35  C20 UNL     1      -4.640  37.293  22.203  1.00  0.00     0.063 C 
HETATM   36  C21 UNL     1      -4.509  38.788  22.442  1.00  0.00     0.040 C 
HETATM   37  C22 UNL     1      -3.399  39.386  21.584  1.00  0.00     0.214 C 
HETATM   38  C23 UNL     1      -2.413  38.242  21.374  1.00  0.00     0.178 C 
HETATM   39  O5  UNL     1      -2.394  37.563  22.618  1.00  0.00    -0.352 OA
BRANCH  37  40
HETATM   40  N1  UNL     1      -2.703  40.359  22.421  1.00  0.00    -0.072 N 
ATOM     41  H13 UNL     1      -2.487  40.009  23.354  1.00  0.00     0.274 HD
ATOM     42  H12 UNL     1      -1.742  40.532  22.124  1.00  0.00     0.274 HD
ATOM     43  H11 UNL     1      -3.278  41.201  22.431  1.00  0.00     0.274 HD
ENDBRANCH  37  40
BRANCH  38  44
HETATM   44  C24 UNL     1      -1.028  38.715  21.104  1.00  0.00     0.201 C 
BRANCH  44  45
HETATM   45  O2  UNL     1      -0.109  38.335  22.041  1.00  0.00    -0.388 OA
BRANCH  45  46
HETATM   46  C25 UNL     1       0.572  39.389  22.611  1.00  0.00     0.178 C 
BRANCH  46  47
HETATM   47  C26 UNL     1       1.122  38.996  23.990  1.00  0.00     0.139 C 
BRANCH  47  48
HETATM   48  C27 UNL     1       0.066  39.162  25.024  1.00  0.00     0.174 C 
HETATM   49  O3  UNL     1      -1.071  39.518  24.684  1.00  0.00    -0.648 OA
HETATM   50  O4  UNL     1       0.416  38.904  26.339  1.00  0.00    -0.648 OA
ENDBRANCH  47  48
ENDBRANCH  46  47
ENDBRANCH  45  46
ENDBRANCH  44  45
ENDBRANCH  38  44
ENDBRANCH  33  34
ENDBRANCH  18  33
BRANCH  29  51
HETATM   51  O6  UNL     1       4.511  27.356  24.164  1.00  0.00    -0.388 OA
ATOM     52  H6  UNL     1       4.212  26.454  24.139  1.00  0.00     0.210 HD
ENDBRANCH  29  51
TORSDOF 9
ENDMDL
MODEL 3
REMARK VINA RESULT: -8.077643234      1.393      1.773
REMARK  9 active torsions:
REMARK  status: ('A' for Active; 'I' for Inactive)
REMARK    1  A    between atoms: C18_18  and  O1_19 
REMARK    2  A    between atoms: O1_19  and  C19_20 
REMARK    3  A    between atoms: C22_23  and  N1_24 
REMARK    4  A    between atoms: C23_28  and  C24_29 
REMARK    5  A    between atoms: C24_29  and  O2_30 
REMARK    6  A    between atoms: O2_30  and  C25_31 
REMARK    7  A    between atoms: C25_31  and  C26_32 
REMARK    8  A    between atoms: C26_32  and  C27_33 
REMARK    9  A    between atoms: C38_47  and  O6_48 
ROOT
HETATM    1  C1  UNL     1       2.841  32.594  28.400  1.00  0.00     0.011 C 
HETATM    2  C2  UNL     1       3.121  32.337  26.915  1.00  0.00    -0.006 C 
HETATM    3  C3  UNL     1       1.980  32.724  26.033  1.00  0.00     0.015 C 
HETATM    4  C4  UNL     1       1.401  31.564  25.230  1.00  0.00    -0.032 C 
HETATM    5  C5  UNL     1       2.321  31.398  24.063  1.00  0.00     0.016 C 
HETATM    6  C6  UNL     1       1.372  30.457  26.213  1.00  0.00     0.003 C 
HETATM    7  C7  UNL     1       0.353  29.395  26.027  1.00  0.00     0.006 C 
HETATM    8  C8  UNL     1      -0.975  29.979  25.766  1.00  0.00     0.006 C 
HETATM    9  C9  UNL     1      -0.999  31.509  25.649  1.00  0.00     0.003 C 
HETATM   10  C10 UNL     1      -2.367  31.865  25.921  1.00  0.00    -0.035 C 
HETATM   11  C11 UNL     1      -2.631  31.360  27.400  1.00  0.00     0.016 C 
HETATM   12  C12 UNL     1      -3.497  31.224  25.130  1.00  0.00     0.010 C 
HETATM   13  C13 UNL     1      -4.072  32.574  24.759  1.00  0.00     0.007 C 
HETATM   14  C14 UNL     1      -3.047  33.115  25.687  1.00  0.00     0.004 C 
HETATM   15  C15 UNL     1      -2.480  34.433  25.500  1.00  0.00    -0.016 C 
HETATM   16  C16 UNL     1      -3.726  35.385  25.657  1.00  0.00     0.018 C 
HETATM   17  C17 UNL     1      -1.725  34.834  26.777  1.00  0.00     0.018 C 
HETATM   18  C18 UNL     1      -1.889  34.972  24.268  1.00  0.00     0.140 C 
HETATM   19  C28 UNL     1      -0.819  34.181  23.547  1.00  0.00    -0.020 C 
HETATM   20  C29 UNL     1       0.069  35.287  22.938  1.00  0.00     0.017 C 
HETATM   21  C30 UNL     1      -1.376  33.591  22.246  1.00  0.00     0.017 C 
HETATM   22  C31 UNL     1       0.069  33.352  24.302  1.00  0.00     0.021 C 
HETATM   23  C32 UNL     1      -0.015  31.918  24.662  1.00  0.00    -0.031 C 
HETATM   24  C33 UNL     1      -0.136  31.005  23.462  1.00  0.00     0.016 C 
HETATM   25  C34 UNL     1       2.631  29.872  26.674  1.00  0.00    -0.029 C 
HETATM   26  C35 UNL     1       2.329  29.215  28.041  1.00  0.00     0.016 C 
HETATM   27  C36 UNL     1       3.336  28.781  25.953  1.00  0.00     0.013 C 
HETATM   28  C37 UNL     1       4.368  28.196  26.940  1.00  0.00     0.040 C 
HETATM   29  C38 UNL     1       5.336  29.243  27.448  1.00  0.00     0.188 C 
HETATM   30  C39 UNL     1       4.649  30.529  27.760  1.00  0.00     0.160 C 
HETATM   31  O7  UNL     1       4.944  31.108  28.770  1.00  0.00    -0.295 OA
HETATM   32  C40 UNL     1       3.652  30.971  26.771  1.00  0.00     0.070 C 
ENDROOT
BRANCH  18  33
HETATM   33  O1  UNL     1      -2.774  35.531  23.341  1.00  0.00    -0.354 OA
BRANCH  33  34
HETATM   34  C19 UNL     1      -2.382  36.518  22.521  1.00  0.00     0.261 C 
HETATM   35  C20 UNL     1      -3.369  36.887  21.405  1.00  0.00     0.063 C 
HETATM   36  C21 UNL     1      -3.834  38.331  21.501  1.00  0.00     0.040 C 
HETATM   37  C22 UNL     1      -2.653  39.293  21.438  1.00  0.00     0.214 C 
HETATM   38  C23 UNL     1      -1.479  38.503  22.005  1.00  0.00     0.178 C 
HETATM   39  O5  UNL     1      -2.041  37.756  23.070  1.00  0.00    -0.352 OA
BRANCH  37  40
HETATM   40  N1  UNL     1      -2.924  40.351  22.407  1.00  0.00    -0.072 N 
ATOM     41  H13 UNL     1      -3.788  40.859  22.219  1.00  0.00     0.274 HD
ATOM     42  H12 UNL     1      -3.182  39.997  23.329  1.00  0.00     0.274 HD
ATOM     43  H11 UNL     1      -2.099  40.951  22.423  1.00  0.00     0.274 HD
ENDBRANCH  37  40
BRANCH  38  44
HETATM   44  C24 UNL     1      -0.422  39.376  22.585  1.00  0.00     0.201 C 
BRANCH  44  45
HETATM   45  O2  UNL     1       0.066  40.320  21.726  1.00  0.00    -0.388 OA
BRANCH  45  46
HETATM   46  C25 UNL     1       1.414  40.194  21.470  1.00  0.00     0.178 C 
BRANCH  46  47
HETATM   47  C26 UNL     1       2.174  39.811  22.749  1.00  0.00     0.139 C 
BRANCH  47  48
HETATM   48  C27 UNL     1       3.639  39.819  22.491  1.00  0.00     0.174 C 
HETATM   49  O3  UNL     1       4.060  40.155  21.375  1.00  0.00    -0.648 OA
HETATM   50  O4  UNL     1       4.471  39.444  23.532  1.00  0.00    -0.648 OA
ENDBRANCH  47  48
ENDBRANCH  46  47
ENDBRANCH  45  46
ENDBRANCH  44  45
ENDBRANCH  38  44
ENDBRANCH  33  34
ENDBRANCH  18  33
BRANCH  29  51
HETATM   51  O6  UNL     1       6.372  29.402  26.532  1.00  0.00    -0.388 OA
ATOM     52  H6  UNL     1       6.451  30.320  26.300  1.00  0.00     0.210 HD
ENDBRANCH  29  51
TORSDOF 9
ENDMDL
MODEL 4
REMARK VINA RESULT: -8.012770576      5.430     10.057
REMARK  9 active torsions:
REMARK  status: ('A' for Active; 'I' for Inactive)
REMARK    1  A    between atoms: C18_18  and  O1_19 
REMARK    2  A    between atoms: O1_19  and  C19_20 
REMARK    3  A    between atoms: C22_23  and  N1_24 
REMARK    4  A    between atoms: C23_28  and  C24_29 
REMARK    5  A    between atoms: C24_29  and  O2_30 
REMARK    6  A    between atoms: O2_30  and  C25_31 
REMARK    7  A    between atoms: C25_31  and  C26_32 
REMARK    8  A    between atoms: C26_32  and  C27_33 
REMARK    9  A    between atoms: C38_47  and  O6_48 
ROOT
HETATM    1  C1  UNL     1      -8.813  34.493  16.566  1.00  0.00     0.011 C 
HETATM    2  C2  UNL     1      -9.357  35.174  17.828  1.00  0.00    -0.006 C 
HETATM    3  C3  UNL     1      -8.369  35.199  18.946  1.00  0.00     0.015 C 
HETATM    4  C4  UNL     1      -8.834  34.461  20.197  1.00  0.00    -0.032 C 
HETATM    5  C5  UNL     1      -9.741  35.419  20.901  1.00  0.00     0.016 C 
HETATM    6  C6  UNL     1      -9.460  33.236  19.649  1.00  0.00     0.003 C 
HETATM    7  C7  UNL     1      -9.471  32.025  20.507  1.00  0.00     0.006 C 
HETATM    8  C8  UNL     1      -8.144  31.788  21.102  1.00  0.00     0.006 C 
HETATM    9  C9  UNL     1      -7.093  32.863  20.794  1.00  0.00     0.003 C 
HETATM   10  C10 UNL     1      -5.833  32.199  20.999  1.00  0.00    -0.035 C 
HETATM   11  C11 UNL     1      -5.824  31.015  19.946  1.00  0.00     0.016 C 
HETATM   12  C12 UNL     1      -5.545  31.492  22.316  1.00  0.00     0.010 C 
HETATM   13  C13 UNL     1      -4.249  32.252  22.499  1.00  0.00     0.007 C 
HETATM   14  C14 UNL     1      -4.515  32.767  21.131  1.00  0.00     0.004 C 
HETATM   15  C15 UNL     1      -4.043  34.068  20.710  1.00  0.00    -0.016 C 
HETATM   16  C16 UNL     1      -2.476  33.930  20.804  1.00  0.00     0.018 C 
HETATM   17  C17 UNL     1      -4.171  34.170  19.181  1.00  0.00     0.018 C 
HETATM   18  C18 UNL     1      -4.238  35.345  21.408  1.00  0.00     0.140 C 
HETATM   19  C28 UNL     1      -5.632  35.756  21.834  1.00  0.00    -0.020 C 
HETATM   20  C29 UNL     1      -5.583  37.294  21.713  1.00  0.00     0.017 C 
HETATM   21  C30 UNL     1      -5.778  35.649  23.356  1.00  0.00     0.017 C 
HETATM   22  C31 UNL     1      -6.754  35.348  21.048  1.00  0.00     0.021 C 
HETATM   23  C32 UNL     1      -7.634  34.161  21.158  1.00  0.00    -0.031 C 
HETATM   24  C33 UNL     1      -8.305  34.037  22.507  1.00  0.00     0.016 C 
HETATM   25  C34 UNL     1     -10.716  33.341  18.908  1.00  0.00    -0.029 C 
HETATM   26  C35 UNL     1     -10.794  32.085  18.009  1.00  0.00     0.016 C 
HETATM   27  C36 UNL     1     -12.051  33.341  19.561  1.00  0.00     0.013 C 
HETATM   28  C37 UNL     1     -13.085  33.071  18.447  1.00  0.00     0.040 C 
HETATM   29  C38 UNL     1     -13.010  34.091  17.332  1.00  0.00     0.188 C 
HETATM   30  C39 UNL     1     -11.601  34.425  16.978  1.00  0.00     0.160 C 
HETATM   31  O7  UNL     1     -11.304  34.511  15.817  1.00  0.00    -0.295 OA
HETATM   32  C40 UNL     1     -10.690  34.620  18.118  1.00  0.00     0.070 C 
ENDROOT
BRANCH  18  33
HETATM   33  O1  UNL     1      -3.321  35.654  22.418  1.00  0.00    -0.354 OA
BRANCH  33  34
HETATM   34  C19 UNL     1      -2.237  36.402  22.160  1.00  0.00     0.261 C 
HETATM   35  C20 UNL     1      -2.282  37.209  20.855  1.00  0.00     0.063 C 
HETATM   36  C21 UNL     1      -2.183  38.706  21.100  1.00  0.00     0.040 C 
HETATM   37  C22 UNL     1      -0.897  39.057  21.841  1.00  0.00     0.214 C 
HETATM   38  C23 UNL     1      -0.568  37.811  22.656  1.00  0.00     0.178 C 
HETATM   39  O5  UNL     1      -1.827  37.343  23.106  1.00  0.00    -0.352 OA
BRANCH  37  40
HETATM   40  N1  UNL     1      -1.244  40.087  22.815  1.00  0.00    -0.072 N 
ATOM     41  H13 UNL     1      -1.805  39.736  23.591  1.00  0.00     0.274 HD
ATOM     42  H12 UNL     1      -0.447  40.405  23.367  1.00  0.00     0.274 HD
ATOM     43  H11 UNL     1      -1.701  40.838  22.298  1.00  0.00     0.274 HD
ENDBRANCH  37  40
BRANCH  38  44
HETATM   44  C24 UNL     1       0.252  38.110  23.862  1.00  0.00     0.201 C 
BRANCH  44  45
HETATM   45  O2  UNL     1       1.588  38.258  23.615  1.00  0.00    -0.388 OA
BRANCH  45  46
HETATM   46  C25 UNL     1       2.036  39.554  23.743  1.00  0.00     0.178 C 
BRANCH  46  47
HETATM   47  C26 UNL     1       3.367  39.742  22.999  1.00  0.00     0.139 C 
BRANCH  47  48
HETATM   48  C27 UNL     1       3.109  40.138  21.588  1.00  0.00     0.174 C 
HETATM   49  O3  UNL     1       1.949  40.387  21.226  1.00  0.00    -0.648 OA
HETATM   50  O4  UNL     1       4.198  40.208  20.736  1.00  0.00    -0.648 OA
ENDBRANCH  47  48
ENDBRANCH  46  47
ENDBRANCH  45  46
ENDBRANCH  44  45
ENDBRANCH  38  44
ENDBRANCH  33  34
ENDBRANCH  18  33
BRANCH  29  51
HETATM   51  O6  UNL     1     -13.750  35.217  17.681  1.00  0.00    -0.388 OA
ATOM     52  H6  UNL     1     -14.666  34.978  17.771  1.00  0.00     0.210 HD
ENDBRANCH  29  51
TORSDOF 9
ENDMDL
MODEL 5
REMARK VINA RESULT: -7.549814432      1.713      2.422
REMARK  9 active torsions:
REMARK  status: ('A' for Active; 'I' for Inactive)
REMARK    1  A    between atoms: C18_18  and  O1_19 
REMARK    2  A    between atoms: O1_19  and  C19_20 
REMARK    3  A    between atoms: C22_23  and  N1_24 
REMARK    4  A    between atoms: C23_28  and  C24_29 
REMARK    5  A    between atoms: C24_29  and  O2_30 
REMARK    6  A    between atoms: O2_30  and  C25_31 
REMARK    7  A    between atoms: C25_31  and  C26_32 
REMARK    8  A    between atoms: C26_32  and  C27_33 
REMARK    9  A    between atoms: C38_47  and  O6_48 
ROOT
HETATM    1  C1  UNL     1       2.808  32.571  28.420  1.00  0.00     0.011 C 
HETATM    2  C2  UNL     1       3.113  32.328  26.936  1.00  0.00    -0.006 C 
HETATM    3  C3  UNL     1       1.974  32.690  26.043  1.00  0.00     0.015 C 
HETATM    4  C4  UNL     1       1.434  31.520  25.227  1.00  0.00    -0.032 C 
HETATM    5  C5  UNL     1       2.372  31.383  24.071  1.00  0.00     0.016 C 
HETATM    6  C6  UNL     1       1.421  30.409  26.204  1.00  0.00     0.003 C 
HETATM    7  C7  UNL     1       0.430  29.322  26.000  1.00  0.00     0.006 C 
HETATM    8  C8  UNL     1      -0.908  29.874  25.725  1.00  0.00     0.006 C 
HETATM    9  C9  UNL     1      -0.969  31.403  25.615  1.00  0.00     0.003 C 
HETATM   10  C10 UNL     1      -2.349  31.724  25.872  1.00  0.00    -0.035 C 
HETATM   11  C11 UNL     1      -2.618  31.204  27.344  1.00  0.00     0.016 C 
HETATM   12  C12 UNL     1      -3.453  31.058  25.064  1.00  0.00     0.010 C 
HETATM   13  C13 UNL     1      -4.056  32.395  24.691  1.00  0.00     0.007 C 
HETATM   14  C14 UNL     1      -3.057  32.957  25.635  1.00  0.00     0.004 C 
HETATM   15  C15 UNL     1      -2.521  34.289  25.461  1.00  0.00    -0.016 C 
HETATM   16  C16 UNL     1      -3.793  35.210  25.607  1.00  0.00     0.018 C 
HETATM   17  C17 UNL     1      -1.792  34.703  26.750  1.00  0.00     0.018 C 
HETATM   18  C18 UNL     1      -1.928  34.850  24.240  1.00  0.00     0.140 C 
HETATM   19  C28 UNL     1      -0.830  34.089  23.528  1.00  0.00    -0.020 C 
HETATM   20  C29 UNL     1       0.037  35.220  22.936  1.00  0.00     0.017 C 
HETATM   21  C30 UNL     1      -1.357  33.492  22.217  1.00  0.00     0.017 C 
HETATM   22  C31 UNL     1       0.069  33.280  24.290  1.00  0.00     0.021 C 
HETATM   23  C32 UNL     1       0.016  31.842  24.643  1.00  0.00    -0.031 C 
HETATM   24  C33 UNL     1      -0.066  30.932  23.437  1.00  0.00     0.016 C 
HETATM   25  C34 UNL     1       2.687  29.853  26.678  1.00  0.00    -0.029 C 
HETATM   26  C35 UNL     1       2.385  29.182  28.038  1.00  0.00     0.016 C 
HETATM   27  C36 UNL     1       3.428  28.783  25.961  1.00  0.00     0.013 C 
HETATM   28  C37 UNL     1       4.463  28.219  26.957  1.00  0.00     0.040 C 
HETATM   29  C38 UNL     1       5.397  29.288  27.483  1.00  0.00     0.188 C 
HETATM   30  C39 UNL     1       4.675  30.555  27.792  1.00  0.00     0.160 C 
HETATM   31  O7  UNL     1       4.943  31.136  28.809  1.00  0.00    -0.295 OA
HETATM   32  C40 UNL     1       3.680  30.977  26.793  1.00  0.00     0.070 C 
ENDROOT
BRANCH  18  33
HETATM   33  O1  UNL     1      -2.816  35.391  23.304  1.00  0.00    -0.354 OA
BRANCH  33  34
HETATM   34  C19 UNL     1      -2.431  36.377  22.478  1.00  0.00     0.261 C 
HETATM   35  C20 UNL     1      -3.458  36.791  21.414  1.00  0.00     0.063 C 
HETATM   36  C21 UNL     1      -3.873  38.246  21.550  1.00  0.00     0.040 C 
HETATM   37  C22 UNL     1      -2.667  39.173  21.443  1.00  0.00     0.214 C 
HETATM   38  C23 UNL     1      -1.493  38.340  21.945  1.00  0.00     0.178 C 
HETATM   39  O5  UNL     1      -2.028  37.596  23.026  1.00  0.00    -0.352 OA
BRANCH  37  40
HETATM   40  N1  UNL     1      -2.859  40.226  22.436  1.00  0.00    -0.072 N 
ATOM     41  H13 UNL     1      -3.650  40.836  22.229  1.00  0.00     0.274 HD
ATOM     42  H12 UNL     1      -3.199  39.876  23.333  1.00  0.00     0.274 HD
ATOM     43  H11 UNL     1      -1.974  40.726  22.508  1.00  0.00     0.274 HD
ENDBRANCH  37  40
BRANCH  38  44
HETATM   44  C24 UNL     1      -0.383  39.173  22.486  1.00  0.00     0.201 C 
BRANCH  44  45
HETATM   45  O2  UNL     1       0.811  38.518  22.599  1.00  0.00    -0.388 OA
BRANCH  45  46
HETATM   46  C25 UNL     1       1.433  38.704  23.814  1.00  0.00     0.178 C 
BRANCH  46  47
HETATM   47  C26 UNL     1       0.505  39.445  24.789  1.00  0.00     0.139 C 
BRANCH  47  48
HETATM   48  C27 UNL     1       0.178  38.568  25.945  1.00  0.00     0.174 C 
HETATM   49  O3  UNL     1      -0.306  39.066  26.972  1.00  0.00    -0.648 OA
HETATM   50  O4  UNL     1       0.436  37.214  25.811  1.00  0.00    -0.648 OA
ENDBRANCH  47  48
ENDBRANCH  46  47
ENDBRANCH  45  46
ENDBRANCH  44  45
ENDBRANCH  38  44
ENDBRANCH  33  34
ENDBRANCH  18  33
BRANCH  29  51
HETATM   51  O6  UNL     1       6.441  29.478  26.581  1.00  0.00    -0.388 OA
ATOM     52  H6  UNL     1       7.000  28.709  26.577  1.00  0.00     0.210 HD
ENDBRANCH  29  51
TORSDOF 9
ENDMDL
