MODEL 1
REMARK VINA RESULT: -7.987576883      0.000      0.000
REMARK  8 active torsions:
REMARK  status: ('A' for Active; 'I' for Inactive)
REMARK    1  A    between atoms: C5_5  and  O1_6 
REMARK    2  A    between atoms: O1_6  and  C6_7 
REMARK    3  A    between atoms: C6_7  and  C7_8 
REMARK    4  A    between atoms: C7_8  and  C8_9 
REMARK    5  A    between atoms: C8_9  and  N1_10 
REMARK    6  A    between atoms: C14_19  and  O2_20 
REMARK    7  A    between atoms: C26_33  and  O3_34 
REMARK    8  A    between atoms: O3_34  and  C27_35 
ROOT
HETATM    1  C1  UNL     1      -5.221  34.339  21.747  1.00  0.00     0.015 C 
HETATM    2  C2  UNL     1      -4.149  33.556  21.079  1.00  0.00    -0.045 C 
HETATM    3  C3  UNL     1      -4.872  32.799  19.943  1.00  0.00     0.015 C 
HETATM    4  C4  UNL     1      -3.214  34.498  20.364  1.00  0.00     0.041 C 
HETATM    5  C5  UNL     1      -2.532  35.320  21.429  1.00  0.00     0.129 C 
HETATM    6  C13 UNL     1      -1.667  34.433  22.329  1.00  0.00     0.051 C 
HETATM    7  C14 UNL     1      -1.496  34.977  23.701  1.00  0.00     0.126 C 
HETATM    8  C15 UNL     1      -1.130  34.089  24.818  1.00  0.00     0.046 C 
HETATM    9  C16 UNL     1      -1.413  32.617  24.691  1.00  0.00    -0.011 C 
HETATM   10  C17 UNL     1      -2.833  32.445  25.205  1.00  0.00     0.021 C 
HETATM   11  C18 UNL     1      -1.225  32.284  23.273  1.00  0.00    -0.070 C 
HETATM   12  C19 UNL     1      -0.312  31.391  22.903  1.00  0.00    -0.022 C 
HETATM   13  C20 UNL     1       0.599  30.652  23.812  1.00  0.00     0.033 C 
HETATM   14  C21 UNL     1       0.776  31.527  25.040  1.00  0.00     0.007 C 
HETATM   15  C22 UNL     1       1.928  31.226  25.901  1.00  0.00    -0.035 C 
HETATM   16  C23 UNL     1       2.961  32.370  25.779  1.00  0.00     0.016 C 
HETATM   17  C24 UNL     1       2.708  29.970  25.550  1.00  0.00     0.012 C 
HETATM   18  C25 UNL     1       2.747  28.947  26.638  1.00  0.00     0.033 C 
HETATM   19  C26 UNL     1       3.431  29.578  27.854  1.00  0.00     0.130 C 
HETATM   20  C34 UNL     1       2.644  30.791  28.310  1.00  0.00    -0.017 C 
HETATM   21  C35 UNL     1       3.503  31.935  28.728  1.00  0.00     0.018 C 
HETATM   22  C36 UNL     1       1.912  30.340  29.598  1.00  0.00     0.018 C 
HETATM   23  C37 UNL     1       1.563  31.093  27.349  1.00  0.00     0.004 C 
HETATM   24  C38 UNL     1       0.681  32.222  27.742  1.00  0.00     0.007 C 
HETATM   25  C39 UNL     1      -0.643  32.208  27.012  1.00  0.00     0.011 C 
HETATM   26  C40 UNL     1      -0.588  31.716  25.602  1.00  0.00    -0.028 C 
HETATM   27  C41 UNL     1      -1.364  30.375  25.581  1.00  0.00     0.016 C 
HETATM   28  C42 UNL     1      -1.975  32.981  22.189  1.00  0.00     0.024 C 
HETATM   29  C43 UNL     1      -3.382  32.605  21.966  1.00  0.00     0.018 C 
ENDROOT
BRANCH   5  30
HETATM   30  O1  UNL     1      -1.806  36.362  20.907  1.00  0.00    -0.385 OA
BRANCH  30  31
HETATM   31  C6  UNL     1      -2.275  37.624  21.064  1.00  0.00     0.170 C 
BRANCH  31  32
HETATM   32  C7  UNL     1      -1.172  38.647  21.273  1.00  0.00     0.056 C 
BRANCH  32  33
HETATM   33  C8  UNL     1      -0.283  38.247  22.407  1.00  0.00     0.276 C 
BRANCH  33  34
HETATM   34  N1  UNL     1       0.043  39.302  23.312  1.00  0.00     0.114 N 
HETATM   35  C9  UNL     1      -1.089  39.444  24.229  1.00  0.00     0.276 C 
HETATM   36  C10 UNL     1      -1.126  38.329  25.248  1.00  0.00     0.058 C 
HETATM   37  C11 UNL     1       0.240  38.253  25.937  1.00  0.00     0.236 C 
HETATM   38  N2  UNL     1       1.194  37.944  24.874  1.00  0.00    -0.049 N 
HETATM   39  C12 UNL     1       1.279  39.083  24.011  1.00  0.00     0.502 C 
ATOM     40  H22 UNL     1       2.104  37.652  25.232  1.00  0.00     0.279 HD
ATOM     41  H21 UNL     1       0.963  37.086  24.373  1.00  0.00     0.279 HD
ENDBRANCH  33  34
ENDBRANCH  32  33
ENDBRANCH  31  32
ENDBRANCH  30  31
ENDBRANCH   5  30
BRANCH   7  42
HETATM   42  O2  UNL     1      -2.742  35.589  24.041  1.00  0.00    -0.395 OA
ATOM     43  H2  UNL     1      -3.107  35.067  24.746  1.00  0.00     0.210 HD
ENDBRANCH   7  42
BRANCH  19  44
HETATM   44  O3  UNL     1       4.676  29.957  27.486  1.00  0.00    -0.380 OA
BRANCH  44  45
HETATM   45  C27 UNL     1       5.754  29.318  28.028  1.00  0.00     0.123 C 
HETATM   46  C28 UNL     1       5.407  28.215  28.991  1.00  0.00     0.037 C 
HETATM   47  C29 UNL     1       6.767  27.550  29.175  1.00  0.00     0.006 A 
HETATM   48  C30 UNL     1       7.697  28.422  29.952  1.00  0.00     0.084 A 
HETATM   49  C32 UNL     1       7.550  27.809  27.940  1.00  0.00     0.062 A 
HETATM   50  C31 UNL     1       8.546  28.569  28.743  1.00  0.00     0.132 A 
HETATM   51  O4  UNL     1       9.627  29.118  28.565  1.00  0.00    -0.298 OA
HETATM   52  C33 UNL     1       6.649  28.638  27.063  1.00  0.00     0.044 C 
ENDBRANCH  44  45
ENDBRANCH  19  44
TORSDOF 8
ENDMDL
MODEL 2
REMARK VINA RESULT: -7.849796221      6.691      9.657
REMARK  8 active torsions:
REMARK  status: ('A' for Active; 'I' for Inactive)
REMARK    1  A    between atoms: C5_5  and  O1_6 
REMARK    2  A    between atoms: O1_6  and  C6_7 
REMARK    3  A    between atoms: C6_7  and  C7_8 
REMARK    4  A    between atoms: C7_8  and  C8_9 
REMARK    5  A    between atoms: C8_9  and  N1_10 
REMARK    6  A    between atoms: C14_19  and  O2_20 
REMARK    7  A    between atoms: C26_33  and  O3_34 
REMARK    8  A    between atoms: O3_34  and  C27_35 
ROOT
HETATM    1  C1  UNL     1       0.207  40.424  22.738  1.00  0.00     0.015 C 
HETATM    2  C2  UNL     1       0.652  39.101  23.246  1.00  0.00    -0.045 C 
HETATM    3  C3  UNL     1       2.192  39.141  23.136  1.00  0.00     0.015 C 
HETATM    4  C4  UNL     1       0.385  39.019  24.729  1.00  0.00     0.041 C 
HETATM    5  C5  UNL     1      -1.113  39.053  24.900  1.00  0.00     0.129 C 
HETATM    6  C13 UNL     1      -1.760  37.820  24.263  1.00  0.00     0.051 C 
HETATM    7  C14 UNL     1      -3.158  38.054  23.817  1.00  0.00     0.126 C 
HETATM    8  C15 UNL     1      -3.769  37.196  22.787  1.00  0.00     0.046 C 
HETATM    9  C16 UNL     1      -2.866  36.436  21.854  1.00  0.00    -0.011 C 
HETATM   10  C17 UNL     1      -2.602  37.389  20.701  1.00  0.00     0.021 C 
HETATM   11  C18 UNL     1      -1.679  36.071  22.639  1.00  0.00    -0.070 C 
HETATM   12  C19 UNL     1      -1.350  34.795  22.815  1.00  0.00    -0.022 C 
HETATM   13  C20 UNL     1      -2.092  33.625  22.283  1.00  0.00     0.033 C 
HETATM   14  C21 UNL     1      -3.534  34.073  22.125  1.00  0.00     0.007 C 
HETATM   15  C22 UNL     1      -4.543  33.012  22.005  1.00  0.00    -0.035 C 
HETATM   16  C23 UNL     1      -5.409  32.991  23.287  1.00  0.00     0.016 C 
HETATM   17  C24 UNL     1      -4.005  31.595  21.887  1.00  0.00     0.012 C 
HETATM   18  C25 UNL     1      -4.395  30.892  20.628  1.00  0.00     0.033 C 
HETATM   19  C26 UNL     1      -5.923  30.800  20.594  1.00  0.00     0.130 C 
HETATM   20  C34 UNL     1      -6.520  32.193  20.617  1.00  0.00    -0.017 C 
HETATM   21  C35 UNL     1      -7.736  32.304  21.473  1.00  0.00     0.018 C 
HETATM   22  C36 UNL     1      -7.016  32.447  19.173  1.00  0.00     0.018 C 
HETATM   23  C37 UNL     1      -5.463  33.201  20.837  1.00  0.00     0.004 C 
HETATM   24  C38 UNL     1      -5.933  34.610  20.801  1.00  0.00     0.007 C 
HETATM   25  C39 UNL     1      -4.808  35.592  20.565  1.00  0.00     0.011 C 
HETATM   26  C40 UNL     1      -3.499  35.223  21.182  1.00  0.00    -0.028 C 
HETATM   27  C41 UNL     1      -2.536  34.919  20.006  1.00  0.00     0.016 C 
HETATM   28  C42 UNL     1      -0.846  37.091  23.338  1.00  0.00     0.024 C 
HETATM   29  C43 UNL     1       0.085  37.899  22.530  1.00  0.00     0.018 C 
ENDROOT
BRANCH   5  30
HETATM   30  O1  UNL     1      -1.491  39.195  26.212  1.00  0.00    -0.385 OA
BRANCH  30  31
HETATM   31  C6  UNL     1      -0.532  39.401  27.147  1.00  0.00     0.170 C 
BRANCH  31  32
HETATM   32  C7  UNL     1      -1.037  40.159  28.362  1.00  0.00     0.056 C 
BRANCH  32  33
HETATM   33  C8  UNL     1      -1.868  39.273  29.234  1.00  0.00     0.276 C 
BRANCH  33  34
HETATM   34  N1  UNL     1      -2.193  39.825  30.509  1.00  0.00     0.114 N 
HETATM   35  C9  UNL     1      -3.037  38.845  31.196  1.00  0.00     0.276 C 
HETATM   36  C10 UNL     1      -2.231  37.670  31.700  1.00  0.00     0.058 C 
HETATM   37  C11 UNL     1      -1.068  38.203  32.542  1.00  0.00     0.236 C 
HETATM   38  N2  UNL     1      -0.269  39.017  31.628  1.00  0.00    -0.049 N 
HETATM   39  C12 UNL     1      -1.035  40.176  31.284  1.00  0.00     0.502 C 
ATOM     40  H22 UNL     1       0.649  39.249  32.008  1.00  0.00     0.279 HD
ATOM     41  H21 UNL     1       0.048  38.497  30.811  1.00  0.00     0.279 HD
ENDBRANCH  33  34
ENDBRANCH  32  33
ENDBRANCH  31  32
ENDBRANCH  30  31
ENDBRANCH   5  30
BRANCH   7  42
HETATM   42  O2  UNL     1      -3.195  39.395  23.322  1.00  0.00    -0.395 OA
ATOM     43  H2  UNL     1      -4.106  39.662  23.356  1.00  0.00     0.210 HD
ENDBRANCH   7  42
BRANCH  19  44
HETATM   44  O3  UNL     1      -6.326  30.114  21.688  1.00  0.00    -0.380 OA
BRANCH  44  45
HETATM   45  C27 UNL     1      -6.443  28.756  21.617  1.00  0.00     0.123 C 
HETATM   46  C28 UNL     1      -5.909  28.020  22.818  1.00  0.00     0.037 C 
HETATM   47  C29 UNL     1      -6.438  26.614  22.557  1.00  0.00     0.006 A 
HETATM   48  C30 UNL     1      -5.733  25.975  21.406  1.00  0.00     0.084 A 
HETATM   49  C32 UNL     1      -7.665  26.754  21.732  1.00  0.00     0.062 A 
HETATM   50  C31 UNL     1      -7.001  26.001  20.634  1.00  0.00     0.132 A 
HETATM   51  O4  UNL     1      -7.297  25.554  19.532  1.00  0.00    -0.298 OA
HETATM   52  C33 UNL     1      -7.825  28.235  21.504  1.00  0.00     0.044 C 
ENDBRANCH  44  45
ENDBRANCH  19  44
TORSDOF 8
ENDMDL
MODEL 3
REMARK VINA RESULT: -7.824053322      6.616      9.545
REMARK  8 active torsions:
REMARK  status: ('A' for Active; 'I' for Inactive)
REMARK    1  A    between atoms: C5_5  and  O1_6 
REMARK    2  A    between atoms: O1_6  and  C6_7 
REMARK    3  A    between atoms: C6_7  and  C7_8 
REMARK    4  A    between atoms: C7_8  and  C8_9 
REMARK    5  A    between atoms: C8_9  and  N1_10 
REMARK    6  A    between atoms: C14_19  and  O2_20 
REMARK    7  A    between atoms: C26_33  and  O3_34 
REMARK    8  A    between atoms: O3_34  and  C27_35 
ROOT
HETATM    1  C1  UNL     1       0.209  40.426  22.738  1.00  0.00     0.015 C 
HETATM    2  C2  UNL     1       0.650  39.103  23.251  1.00  0.00    -0.045 C 
HETATM    3  C3  UNL     1       2.190  39.140  23.146  1.00  0.00     0.015 C 
HETATM    4  C4  UNL     1       0.379  39.027  24.734  1.00  0.00     0.041 C 
HETATM    5  C5  UNL     1      -1.120  39.063  24.900  1.00  0.00     0.129 C 
HETATM    6  C13 UNL     1      -1.767  37.830  24.265  1.00  0.00     0.051 C 
HETATM    7  C14 UNL     1      -3.163  38.064  23.814  1.00  0.00     0.126 C 
HETATM    8  C15 UNL     1      -3.772  37.204  22.786  1.00  0.00     0.046 C 
HETATM    9  C16 UNL     1      -2.868  36.439  21.858  1.00  0.00    -0.011 C 
HETATM   10  C17 UNL     1      -2.599  37.388  20.703  1.00  0.00     0.021 C 
HETATM   11  C18 UNL     1      -1.684  36.075  22.647  1.00  0.00    -0.070 C 
HETATM   12  C19 UNL     1      -1.357  34.799  22.829  1.00  0.00    -0.022 C 
HETATM   13  C20 UNL     1      -2.100  33.629  22.299  1.00  0.00     0.033 C 
HETATM   14  C21 UNL     1      -3.541  34.078  22.134  1.00  0.00     0.007 C 
HETATM   15  C22 UNL     1      -4.551  33.018  22.015  1.00  0.00    -0.035 C 
HETATM   16  C23 UNL     1      -5.420  33.004  23.294  1.00  0.00     0.016 C 
HETATM   17  C24 UNL     1      -4.015  31.600  21.904  1.00  0.00     0.012 C 
HETATM   18  C25 UNL     1      -4.402  30.894  20.645  1.00  0.00     0.033 C 
HETATM   19  C26 UNL     1      -5.930  30.804  20.607  1.00  0.00     0.130 C 
HETATM   20  C34 UNL     1      -6.525  32.198  20.624  1.00  0.00    -0.017 C 
HETATM   21  C35 UNL     1      -7.743  32.314  21.476  1.00  0.00     0.018 C 
HETATM   22  C36 UNL     1      -7.016  32.448  19.177  1.00  0.00     0.018 C 
HETATM   23  C37 UNL     1      -5.467  33.205  20.844  1.00  0.00     0.004 C 
HETATM   24  C38 UNL     1      -5.935  34.615  20.802  1.00  0.00     0.007 C 
HETATM   25  C39 UNL     1      -4.808  35.595  20.566  1.00  0.00     0.011 C 
HETATM   26  C40 UNL     1      -3.501  35.226  21.188  1.00  0.00    -0.028 C 
HETATM   27  C41 UNL     1      -2.535  34.916  20.016  1.00  0.00     0.016 C 
HETATM   28  C42 UNL     1      -0.852  37.096  23.345  1.00  0.00     0.024 C 
HETATM   29  C43 UNL     1       0.083  37.900  22.538  1.00  0.00     0.018 C 
ENDROOT
BRANCH   5  30
HETATM   30  O1  UNL     1      -1.502  39.211  26.211  1.00  0.00    -0.385 OA
BRANCH  30  31
HETATM   31  C6  UNL     1      -0.547  39.436  27.146  1.00  0.00     0.170 C 
BRANCH  31  32
HETATM   32  C7  UNL     1      -1.089  39.432  28.564  1.00  0.00     0.056 C 
BRANCH  32  33
HETATM   33  C8  UNL     1      -2.579  39.549  28.564  1.00  0.00     0.276 C 
BRANCH  33  34
HETATM   34  N1  UNL     1      -3.261  38.493  29.240  1.00  0.00     0.114 N 
HETATM   35  C9  UNL     1      -4.693  38.691  29.008  1.00  0.00     0.276 C 
HETATM   36  C10 UNL     1      -5.091  38.301  27.604  1.00  0.00     0.058 C 
HETATM   37  C11 UNL     1      -4.599  36.875  27.337  1.00  0.00     0.236 C 
HETATM   38  N2  UNL     1      -3.144  36.938  27.458  1.00  0.00    -0.049 N 
HETATM   39  C12 UNL     1      -2.825  37.186  28.832  1.00  0.00     0.502 C 
ATOM     40  H22 UNL     1      -2.681  36.106  27.090  1.00  0.00     0.279 HD
ATOM     41  H21 UNL     1      -2.724  37.619  26.826  1.00  0.00     0.279 HD
ENDBRANCH  33  34
ENDBRANCH  32  33
ENDBRANCH  31  32
ENDBRANCH  30  31
ENDBRANCH   5  30
BRANCH   7  42
HETATM   42  O2  UNL     1      -3.197  39.404  23.315  1.00  0.00    -0.395 OA
ATOM     43  H2  UNL     1      -3.894  39.427  22.670  1.00  0.00     0.210 HD
ENDBRANCH   7  42
BRANCH  19  44
HETATM   44  O3  UNL     1      -6.338  30.122  21.702  1.00  0.00    -0.380 OA
BRANCH  44  45
HETATM   45  C27 UNL     1      -6.460  28.764  21.635  1.00  0.00     0.123 C 
HETATM   46  C28 UNL     1      -5.960  28.031  22.851  1.00  0.00     0.037 C 
HETATM   47  C29 UNL     1      -6.489  26.627  22.582  1.00  0.00     0.006 A 
HETATM   48  C30 UNL     1      -5.762  25.979  21.451  1.00  0.00     0.084 A 
HETATM   49  C32 UNL     1      -7.696  26.770  21.728  1.00  0.00     0.062 A 
HETATM   50  C31 UNL     1      -7.010  26.008  20.650  1.00  0.00     0.132 A 
HETATM   51  O4  UNL     1      -7.282  25.558  19.543  1.00  0.00    -0.298 OA
HETATM   52  C33 UNL     1      -7.842  28.250  21.491  1.00  0.00     0.044 C 
ENDBRANCH  44  45
ENDBRANCH  19  44
TORSDOF 8
ENDMDL
MODEL 4
REMARK VINA RESULT: -7.778312729      6.069      9.656
REMARK  8 active torsions:
REMARK  status: ('A' for Active; 'I' for Inactive)
REMARK    1  A    between atoms: C5_5  and  O1_6 
REMARK    2  A    between atoms: O1_6  and  C6_7 
REMARK    3  A    between atoms: C6_7  and  C7_8 
REMARK    4  A    between atoms: C7_8  and  C8_9 
REMARK    5  A    between atoms: C8_9  and  N1_10 
REMARK    6  A    between atoms: C14_19  and  O2_20 
REMARK    7  A    between atoms: C26_33  and  O3_34 
REMARK    8  A    between atoms: O3_34  and  C27_35 
ROOT
HETATM    1  C1  UNL     1     -10.984  33.536  16.888  1.00  0.00     0.015 C 
HETATM    2  C2  UNL     1     -10.343  34.865  17.064  1.00  0.00    -0.045 C 
HETATM    3  C3  UNL     1     -10.436  35.528  15.672  1.00  0.00     0.015 C 
HETATM    4  C4  UNL     1     -11.214  35.726  17.946  1.00  0.00     0.041 C 
HETATM    5  C5  UNL     1     -11.220  35.079  19.308  1.00  0.00     0.129 C 
HETATM    6  C13 UNL     1      -9.817  35.089  19.922  1.00  0.00     0.051 C 
HETATM    7  C14 UNL     1      -9.587  33.979  20.882  1.00  0.00     0.126 C 
HETATM    8  C15 UNL     1      -8.219  33.535  21.199  1.00  0.00     0.046 C 
HETATM    9  C16 UNL     1      -7.118  33.837  20.219  1.00  0.00    -0.011 C 
HETATM   10  C17 UNL     1      -7.123  32.666  19.251  1.00  0.00     0.021 C 
HETATM   11  C18 UNL     1      -7.448  35.136  19.619  1.00  0.00    -0.070 C 
HETATM   12  C19 UNL     1      -6.621  36.169  19.742  1.00  0.00    -0.022 C 
HETATM   13  C20 UNL     1      -5.325  36.162  20.467  1.00  0.00     0.033 C 
HETATM   14  C21 UNL     1      -5.439  35.086  21.532  1.00  0.00     0.007 C 
HETATM   15  C22 UNL     1      -4.469  35.145  22.633  1.00  0.00    -0.035 C 
HETATM   16  C23 UNL     1      -5.204  35.548  23.933  1.00  0.00     0.016 C 
HETATM   17  C24 UNL     1      -3.362  36.177  22.487  1.00  0.00     0.012 C 
HETATM   18  C25 UNL     1      -1.983  35.603  22.474  1.00  0.00     0.033 C 
HETATM   19  C26 UNL     1      -1.759  34.885  23.808  1.00  0.00     0.130 C 
HETATM   20  C34 UNL     1      -2.782  33.778  23.971  1.00  0.00    -0.017 C 
HETATM   21  C35 UNL     1      -3.313  33.659  25.359  1.00  0.00     0.018 C 
HETATM   22  C36 UNL     1      -2.002  32.464  23.721  1.00  0.00     0.018 C 
HETATM   23  C37 UNL     1      -3.781  33.838  22.885  1.00  0.00     0.004 C 
HETATM   24  C38 UNL     1      -4.788  32.746  22.909  1.00  0.00     0.007 C 
HETATM   25  C39 UNL     1      -5.480  32.564  21.576  1.00  0.00     0.011 C 
HETATM   26  C40 UNL     1      -5.709  33.819  20.799  1.00  0.00    -0.028 C 
HETATM   27  C41 UNL     1      -4.804  33.725  19.545  1.00  0.00     0.016 C 
HETATM   28  C42 UNL     1      -8.746  35.383  18.927  1.00  0.00     0.024 C 
HETATM   29  C43 UNL     1      -8.920  34.846  17.566  1.00  0.00     0.018 C 
ENDROOT
BRANCH   5  30
HETATM   30  O1  UNL     1     -12.141  35.644  20.156  1.00  0.00    -0.385 OA
BRANCH  30  31
HETATM   31  C6  UNL     1     -13.065  36.492  19.642  1.00  0.00     0.170 C 
BRANCH  31  32
HETATM   32  C7  UNL     1     -13.283  37.726  20.500  1.00  0.00     0.056 C 
BRANCH  32  33
HETATM   33  C8  UNL     1     -12.122  37.950  21.414  1.00  0.00     0.276 C 
BRANCH  33  34
HETATM   34  N1  UNL     1     -11.307  39.073  21.079  1.00  0.00     0.114 N 
HETATM   35  C9  UNL     1     -11.255  39.932  22.263  1.00  0.00     0.276 C 
HETATM   36  C10 UNL     1     -10.353  39.358  23.331  1.00  0.00     0.058 C 
HETATM   37  C11 UNL     1      -8.986  39.061  22.706  1.00  0.00     0.236 C 
HETATM   38  N2  UNL     1      -9.244  38.069  21.665  1.00  0.00    -0.049 N 
HETATM   39  C12 UNL     1      -9.995  38.703  20.624  1.00  0.00     0.502 C 
ATOM     40  H22 UNL     1      -8.391  37.626  21.322  1.00  0.00     0.279 HD
ATOM     41  H21 UNL     1      -9.699  37.229  22.024  1.00  0.00     0.279 HD
ENDBRANCH  33  34
ENDBRANCH  32  33
ENDBRANCH  31  32
ENDBRANCH  30  31
ENDBRANCH   5  30
BRANCH   7  42
HETATM   42  O2  UNL     1     -10.285  32.849  20.354  1.00  0.00    -0.395 OA
ATOM     43  H2  UNL     1      -9.819  32.082  20.667  1.00  0.00     0.210 HD
ENDBRANCH   7  42
BRANCH  19  44
HETATM   44  O3  UNL     1      -1.908  35.791  24.802  1.00  0.00    -0.380 OA
BRANCH  44  45
HETATM   45  C27 UNL     1      -1.148  36.925  24.788  1.00  0.00     0.123 C 
HETATM   46  C28 UNL     1      -1.889  38.177  25.176  1.00  0.00     0.037 C 
HETATM   47  C29 UNL     1      -0.735  39.161  25.336  1.00  0.00     0.006 A 
HETATM   48  C30 UNL     1      -0.126  39.502  24.016  1.00  0.00     0.084 A 
HETATM   49  C32 UNL     1       0.469  38.368  25.691  1.00  0.00     0.062 A 
HETATM   50  C31 UNL     1       1.123  38.817  24.433  1.00  0.00     0.132 A 
HETATM   51  O4  UNL     1       2.218  38.712  23.891  1.00  0.00    -0.298 OA
HETATM   52  C33 UNL     1       0.010  36.934  25.712  1.00  0.00     0.044 C 
ENDBRANCH  44  45
ENDBRANCH  19  44
TORSDOF 8
ENDMDL
MODEL 5
REMARK VINA RESULT: -7.771822542      6.277      9.493
REMARK  8 active torsions:
REMARK  status: ('A' for Active; 'I' for Inactive)
REMARK    1  A    between atoms: C5_5  and  O1_6 
REMARK    2  A    between atoms: O1_6  and  C6_7 
REMARK    3  A    between atoms: C6_7  and  C7_8 
REMARK    4  A    between atoms: C7_8  and  C8_9 
REMARK    5  A    between atoms: C8_9  and  N1_10 
REMARK    6  A    between atoms: C14_19  and  O2_20 
REMARK    7  A    between atoms: C26_33  and  O3_34 
REMARK    8  A    between atoms: O3_34  and  C27_35 
ROOT
HETATM    1  C1  UNL     1       0.157  40.520  22.704  1.00  0.00     0.015 C 
HETATM    2  C2  UNL     1       0.612  39.218  23.258  1.00  0.00    -0.045 C 
HETATM    3  C3  UNL     1       2.154  39.283  23.183  1.00  0.00     0.015 C 
HETATM    4  C4  UNL     1       0.312  39.172  24.736  1.00  0.00     0.041 C 
HETATM    5  C5  UNL     1      -1.190  39.183  24.871  1.00  0.00     0.129 C 
HETATM    6  C13 UNL     1      -1.801  37.922  24.253  1.00  0.00     0.051 C 
HETATM    7  C14 UNL     1      -3.191  38.119  23.768  1.00  0.00     0.126 C 
HETATM    8  C15 UNL     1      -3.762  37.223  22.748  1.00  0.00     0.046 C 
HETATM    9  C16 UNL     1      -2.824  36.454  21.858  1.00  0.00    -0.011 C 
HETATM   10  C17 UNL     1      -2.549  37.381  20.685  1.00  0.00     0.021 C 
HETATM   11  C18 UNL     1      -1.650  36.132  22.679  1.00  0.00    -0.070 C 
HETATM   12  C19 UNL     1      -1.303  34.867  22.898  1.00  0.00    -0.022 C 
HETATM   13  C20 UNL     1      -2.012  33.670  22.381  1.00  0.00     0.033 C 
HETATM   14  C21 UNL     1      -3.457  34.088  22.177  1.00  0.00     0.007 C 
HETATM   15  C22 UNL     1      -4.445  33.006  22.062  1.00  0.00    -0.035 C 
HETATM   16  C23 UNL     1      -5.340  33.004  23.323  1.00  0.00     0.016 C 
HETATM   17  C24 UNL     1      -3.880  31.597  21.996  1.00  0.00     0.012 C 
HETATM   18  C25 UNL     1      -4.227  30.853  20.748  1.00  0.00     0.033 C 
HETATM   19  C26 UNL     1      -5.752  30.732  20.680  1.00  0.00     0.130 C 
HETATM   20  C34 UNL     1      -6.373  32.114  20.652  1.00  0.00    -0.017 C 
HETATM   21  C35 UNL     1      -7.611  32.227  21.475  1.00  0.00     0.018 C 
HETATM   22  C36 UNL     1      -6.838  32.321  19.189  1.00  0.00     0.018 C 
HETATM   23  C37 UNL     1      -5.339  33.147  20.868  1.00  0.00     0.004 C 
HETATM   24  C38 UNL     1      -5.833  34.546  20.783  1.00  0.00     0.007 C 
HETATM   25  C39 UNL     1      -4.720  35.542  20.546  1.00  0.00     0.011 C 
HETATM   26  C40 UNL     1      -3.419  35.213  21.204  1.00  0.00    -0.028 C 
HETATM   27  C41 UNL     1      -2.423  34.895  20.060  1.00  0.00     0.016 C 
HETATM   28  C42 UNL     1      -0.852  37.186  23.370  1.00  0.00     0.024 C 
HETATM   29  C43 UNL     1       0.084  37.988  22.562  1.00  0.00     0.018 C 
ENDROOT
BRANCH   5  30
HETATM   30  O1  UNL     1      -1.602  39.354  26.170  1.00  0.00    -0.385 OA
BRANCH  30  31
HETATM   31  C6  UNL     1      -0.919  38.726  27.157  1.00  0.00     0.170 C 
BRANCH  31  32
HETATM   32  C7  UNL     1      -1.821  38.172  28.246  1.00  0.00     0.056 C 
BRANCH  32  33
HETATM   33  C8  UNL     1      -3.031  37.524  27.654  1.00  0.00     0.276 C 
BRANCH  33  34
HETATM   34  N1  UNL     1      -3.288  36.199  28.120  1.00  0.00     0.114 N 
HETATM   35  C9  UNL     1      -4.512  35.743  27.459  1.00  0.00     0.276 C 
HETATM   36  C10 UNL     1      -4.266  35.388  26.011  1.00  0.00     0.058 C 
HETATM   37  C11 UNL     1      -3.103  34.393  25.944  1.00  0.00     0.236 C 
HETATM   38  N2  UNL     1      -1.953  35.102  26.501  1.00  0.00    -0.049 N 
HETATM   39  C12 UNL     1      -2.189  35.300  27.899  1.00  0.00     0.502 C 
ATOM     40  H22 UNL     1      -1.069  34.629  26.313  1.00  0.00     0.279 HD
ATOM     41  H21 UNL     1      -1.750  35.972  26.008  1.00  0.00     0.279 HD
ENDBRANCH  33  34
ENDBRANCH  32  33
ENDBRANCH  31  32
ENDBRANCH  30  31
ENDBRANCH   5  30
BRANCH   7  42
HETATM   42  O2  UNL     1      -3.239  39.446  23.236  1.00  0.00    -0.395 OA
ATOM     43  H2  UNL     1      -3.445  39.352  22.313  1.00  0.00     0.210 HD
ENDBRANCH   7  42
BRANCH  19  44
HETATM   44  O3  UNL     1      -6.169  30.069  21.782  1.00  0.00    -0.380 OA
BRANCH  44  45
HETATM   45  C27 UNL     1      -6.398  28.725  21.705  1.00  0.00     0.123 C 
HETATM   46  C28 UNL     1      -6.040  27.959  22.951  1.00  0.00     0.037 C 
HETATM   47  C29 UNL     1      -6.664  26.601  22.646  1.00  0.00     0.006 A 
HETATM   48  C30 UNL     1      -5.920  25.891  21.564  1.00  0.00     0.084 A 
HETATM   49  C32 UNL     1      -7.797  26.840  21.716  1.00  0.00     0.062 A 
HETATM   50  C31 UNL     1      -7.107  26.020  20.683  1.00  0.00     0.132 A 
HETATM   51  O4  UNL     1      -7.342  25.589  19.560  1.00  0.00    -0.298 OA
HETATM   52  C33 UNL     1      -7.805  28.326  21.471  1.00  0.00     0.044 C 
ENDBRANCH  44  45
ENDBRANCH  19  44
TORSDOF 8
ENDMDL
