MODEL 1
REMARK VINA RESULT: -9.132248662      0.000      0.000
REMARK  9 active torsions:
REMARK  status: ('A' for Active; 'I' for Inactive)
REMARK    1  A    between atoms: C3_3  and  C4_4 
REMARK    2  A    between atoms: C6_6  and  O1_7 
REMARK    3  A    between atoms: O1_7  and  C7_8 
REMARK    4  A    between atoms: C11_12  and  C12_13 
REMARK       I    between atoms: C12_13  and  N1_15 
REMARK    5  A    between atoms: N1_15  and  C13_17 
REMARK    6  A    between atoms: C13_17  and  C14_18 
REMARK    7  A    between atoms: C36_44  and  C37_45 
REMARK    8  A    between atoms: C37_45  and  C38_47 
REMARK    9  A    between atoms: C38_47  and  O5_48 
ROOT
HETATM    1  C4  UNL     1      12.295  73.371   6.696  1.00  0.00     0.004 C 
HETATM    2  C5  UNL     1      13.051  72.114   6.261  1.00  0.00     0.022 C 
HETATM    3  C6  UNL     1      10.839  73.063   6.552  1.00  0.00     0.137 C 
HETATM    4  C19 UNL     1      10.113  74.291   7.082  1.00  0.00     0.034 C 
HETATM    5  C20 UNL     1      10.312  75.370   6.063  1.00  0.00     0.012 C 
HETATM    6  C21 UNL     1      11.770  75.691   5.812  1.00  0.00    -0.035 C 
HETATM    7  C22 UNL     1      12.073  76.560   7.064  1.00  0.00     0.016 C 
HETATM    8  C23 UNL     1      12.716  74.562   5.858  1.00  0.00     0.008 C 
HETATM    9  C24 UNL     1      13.149  74.026   4.528  1.00  0.00     0.007 C 
HETATM   10  C25 UNL     1      13.371  75.089   3.470  1.00  0.00     0.011 C 
HETATM   11  C26 UNL     1      12.207  76.016   3.328  1.00  0.00    -0.032 C 
HETATM   12  C27 UNL     1      11.037  75.122   2.879  1.00  0.00     0.016 C 
HETATM   13  C28 UNL     1      11.943  76.626   4.668  1.00  0.00     0.003 C 
HETATM   14  C29 UNL     1      13.017  77.672   4.885  1.00  0.00     0.006 C 
HETATM   15  C30 UNL     1      12.620  78.839   3.967  1.00  0.00     0.006 C 
HETATM   16  C31 UNL     1      12.925  78.365   2.583  1.00  0.00    -0.000 C 
HETATM   17  C32 UNL     1      14.374  78.492   2.333  1.00  0.00     0.006 C 
HETATM   18  C33 UNL     1      15.068  79.697   2.764  1.00  0.00     0.006 C 
HETATM   19  C34 UNL     1      16.369  79.648   2.011  1.00  0.00     0.002 C 
HETATM   20  C35 UNL     1      16.229  78.508   0.991  1.00  0.00     0.018 C 
HETATM   21  C36 UNL     1      14.729  78.304   0.891  1.00  0.00     0.027 C 
HETATM   22  C39 UNL     1      14.372  76.852   0.654  1.00  0.00     0.018 C 
HETATM   23  C40 UNL     1      12.977  76.515   0.982  1.00  0.00     0.011 C 
HETATM   24  C41 UNL     1      12.357  77.023   2.228  1.00  0.00    -0.032 C 
HETATM   25  C42 UNL     1      10.887  77.385   1.852  1.00  0.00     0.016 C 
ENDROOT
BRANCH   3  26
HETATM   26  O1  UNL     1      10.506  71.928   7.230  1.00  0.00    -0.355 OA
BRANCH  26  27
HETATM   27  C7  UNL     1       9.780  71.000   6.488  1.00  0.00     0.261 C 
HETATM   28  C8  UNL     1       9.168  71.536   5.249  1.00  0.00     0.068 C 
HETATM   29  C9  UNL     1       9.869  70.831   4.137  1.00  0.00     0.024 C 
HETATM   30  C10 UNL     1      10.285  71.766   3.038  1.00  0.00     0.013 C 
HETATM   31  C11 UNL     1      11.050  70.183   4.820  1.00  0.00     0.220 C 
HETATM   32  O3  UNL     1      10.694  70.007   6.139  1.00  0.00    -0.346 OA
BRANCH  31  33
HETATM   33  C12 UNL     1      11.491  68.945   4.172  1.00  0.00     0.247 C 
HETATM   34  O2  UNL     1      10.756  67.918   4.283  1.00  0.00    -0.271 OA
HETATM   35  N1  UNL     1      12.699  68.848   3.433  1.00  0.00    -0.358 N 
ATOM     36  H1  UNL     1      13.290  69.676   3.347  1.00  0.00     0.162 HD
BRANCH  35  37
HETATM   37  C13 UNL     1      13.124  67.625   2.799  1.00  0.00     0.127 C 
BRANCH  37  38
HETATM   38  C14 UNL     1      12.800  67.601   1.329  1.00  0.00     0.006 C 
HETATM   39  C15 UNL     1      13.974  67.153   0.518  1.00  0.00     0.034 C 
HETATM   40  C16 UNL     1      14.379  68.175  -0.524  1.00  0.00     0.232 C 
HETATM   41  N2  UNL     1      13.241  68.487  -1.337  1.00  0.00    -0.075 N 
HETATM   42  C17 UNL     1      12.133  69.006  -0.597  1.00  0.00     0.232 C 
ATOM     43  H22 UNL     1      13.502  69.123  -2.090  1.00  0.00     0.277 HD
ATOM     44  H21 UNL     1      12.958  67.676  -1.887  1.00  0.00     0.277 HD
HETATM   45  C18 UNL     1      12.279  68.955   0.889  1.00  0.00     0.034 C 
ENDBRANCH  37  38
ENDBRANCH  35  37
ENDBRANCH  31  33
ENDBRANCH  26  27
ENDBRANCH   3  26
BRANCH   1  46
HETATM   46  C3  UNL     1      12.739  73.555   8.107  1.00  0.00    -0.019 C 
HETATM   47  C2  UNL     1      13.973  73.702   8.507  1.00  0.00    -0.034 C 
HETATM   48  C1  UNL     1      14.291  73.880   9.971  1.00  0.00     0.036 C 
ENDBRANCH   1  46
BRANCH  21  49
HETATM   49  C37 UNL     1      14.105  79.143  -0.109  1.00  0.00     0.159 C 
HETATM   50  O4  UNL     1      13.503  80.131   0.275  1.00  0.00    -0.295 OA
BRANCH  49  51
HETATM   51  C38 UNL     1      14.104  78.942  -1.586  1.00  0.00     0.243 C 
BRANCH  51  52
HETATM   52  O5  UNL     1      15.356  79.255  -2.155  1.00  0.00    -0.394 OA
ATOM     53  H5  UNL     1      15.290  79.393  -3.092  1.00  0.00     0.209 HD
ENDBRANCH  51  52
ENDBRANCH  49  51
ENDBRANCH  21  49
TORSDOF 9
ENDMDL
MODEL 2
REMARK VINA RESULT: -9.131239566      2.111      3.174
REMARK  9 active torsions:
REMARK  status: ('A' for Active; 'I' for Inactive)
REMARK    1  A    between atoms: C3_3  and  C4_4 
REMARK    2  A    between atoms: C6_6  and  O1_7 
REMARK    3  A    between atoms: O1_7  and  C7_8 
REMARK    4  A    between atoms: C11_12  and  C12_13 
REMARK       I    between atoms: C12_13  and  N1_15 
REMARK    5  A    between atoms: N1_15  and  C13_17 
REMARK    6  A    between atoms: C13_17  and  C14_18 
REMARK    7  A    between atoms: C36_44  and  C37_45 
REMARK    8  A    between atoms: C37_45  and  C38_47 
REMARK    9  A    between atoms: C38_47  and  O5_48 
ROOT
HETATM    1  C4  UNL     1      11.785  74.586   5.672  1.00  0.00     0.004 C 
HETATM    2  C5  UNL     1      12.070  73.355   4.810  1.00  0.00     0.022 C 
HETATM    3  C6  UNL     1      10.393  75.023   5.345  1.00  0.00     0.137 C 
HETATM    4  C19 UNL     1      10.104  76.184   6.285  1.00  0.00     0.034 C 
HETATM    5  C20 UNL     1      10.922  77.337   5.794  1.00  0.00     0.012 C 
HETATM    6  C21 UNL     1      12.407  77.044   5.765  1.00  0.00    -0.035 C 
HETATM    7  C22 UNL     1      12.743  77.208   7.273  1.00  0.00     0.016 C 
HETATM    8  C23 UNL     1      12.807  75.673   5.403  1.00  0.00     0.008 C 
HETATM    9  C24 UNL     1      13.277  75.487   3.992  1.00  0.00     0.007 C 
HETATM   10  C25 UNL     1      14.119  76.630   3.460  1.00  0.00     0.011 C 
HETATM   11  C26 UNL     1      13.466  77.963   3.643  1.00  0.00    -0.032 C 
HETATM   12  C27 UNL     1      12.169  77.890   2.817  1.00  0.00     0.016 C 
HETATM   13  C28 UNL     1      13.174  78.133   5.100  1.00  0.00     0.003 C 
HETATM   14  C29 UNL     1      14.494  78.453   5.770  1.00  0.00     0.006 C 
HETATM   15  C30 UNL     1      14.791  79.909   5.377  1.00  0.00     0.006 C 
HETATM   16  C31 UNL     1      15.182  79.849   3.936  1.00  0.00    -0.000 C 
HETATM   17  C32 UNL     1      16.584  79.399   3.829  1.00  0.00     0.006 C 
HETATM   18  C33 UNL     1      17.579  79.947   4.740  1.00  0.00     0.006 C 
HETATM   19  C34 UNL     1      18.889  79.587   4.096  1.00  0.00     0.002 C 
HETATM   20  C35 UNL     1      18.544  79.047   2.700  1.00  0.00     0.018 C 
HETATM   21  C36 UNL     1      17.143  79.575   2.452  1.00  0.00     0.027 C 
HETATM   22  C39 UNL     1      16.312  78.607   1.637  1.00  0.00     0.018 C 
HETATM   23  C40 UNL     1      14.860  78.832   1.734  1.00  0.00     0.011 C 
HETATM   24  C41 UNL     1      14.230  79.106   3.046  1.00  0.00    -0.032 C 
HETATM   25  C42 UNL     1      13.136  80.183   2.774  1.00  0.00     0.016 C 
ENDROOT
BRANCH   3  26
HETATM   26  O1  UNL     1       9.508  73.997   5.495  1.00  0.00    -0.355 OA
BRANCH  26  27
HETATM   27  C7  UNL     1       8.665  73.792   4.406  1.00  0.00     0.261 C 
HETATM   28  C8  UNL     1       8.738  74.840   3.358  1.00  0.00     0.068 C 
HETATM   29  C9  UNL     1       9.301  74.149   2.162  1.00  0.00     0.024 C 
HETATM   30  C10 UNL     1      10.387  74.946   1.499  1.00  0.00     0.013 C 
HETATM   31  C11 UNL     1       9.806  72.839   2.718  1.00  0.00     0.220 C 
HETATM   32  O3  UNL     1       9.066  72.579   3.850  1.00  0.00    -0.346 OA
BRANCH  31  33
HETATM   33  C12 UNL     1       9.776  71.742   1.745  1.00  0.00     0.247 C 
HETATM   34  O2  UNL     1       8.645  71.294   1.386  1.00  0.00    -0.271 OA
HETATM   35  N1  UNL     1      10.950  71.166   1.194  1.00  0.00    -0.358 N 
ATOM     36  H1  UNL     1      11.858  71.528   1.487  1.00  0.00     0.162 HD
BRANCH  35  37
HETATM   37  C13 UNL     1      10.908  70.088   0.238  1.00  0.00     0.127 C 
BRANCH  37  38
HETATM   38  C14 UNL     1      11.431  68.797   0.809  1.00  0.00     0.006 C 
HETATM   39  C15 UNL     1      11.340  68.782   2.302  1.00  0.00     0.034 C 
HETATM   40  C16 UNL     1      12.685  68.551   2.959  1.00  0.00     0.232 C 
HETATM   41  N2  UNL     1      13.260  67.348   2.435  1.00  0.00    -0.075 N 
HETATM   42  C17 UNL     1      13.445  67.371   1.018  1.00  0.00     0.232 C 
ATOM     43  H22 UNL     1      14.136  67.133   2.910  1.00  0.00     0.277 HD
ATOM     44  H21 UNL     1      12.710  66.535   2.713  1.00  0.00     0.277 HD
HETATM   45  C18 UNL     1      12.843  68.544   0.316  1.00  0.00     0.034 C 
ENDBRANCH  37  38
ENDBRANCH  35  37
ENDBRANCH  31  33
ENDBRANCH  26  27
ENDBRANCH   3  26
BRANCH   1  46
HETATM   46  C3  UNL     1      11.947  74.065   7.059  1.00  0.00    -0.019 C 
HETATM   47  C2  UNL     1      13.050  73.593   7.575  1.00  0.00    -0.034 C 
HETATM   48  C1  UNL     1      13.081  73.094   8.998  1.00  0.00     0.036 C 
ENDBRANCH   1  46
BRANCH  21  49
HETATM   49  C37 UNL     1      17.128  80.886   1.841  1.00  0.00     0.159 C 
HETATM   50  O4  UNL     1      17.466  80.971   0.672  1.00  0.00    -0.295 OA
BRANCH  49  51
HETATM   51  C38 UNL     1      16.744  82.177   2.478  1.00  0.00     0.243 C 
BRANCH  51  52
HETATM   52  O5  UNL     1      17.876  82.931   2.848  1.00  0.00    -0.394 OA
ATOM     53  H5  UNL     1      17.715  83.442   3.633  1.00  0.00     0.209 HD
ENDBRANCH  51  52
ENDBRANCH  49  51
ENDBRANCH  21  49
TORSDOF 9
ENDMDL
MODEL 3
REMARK VINA RESULT: -8.886429356      3.315      8.322
REMARK  9 active torsions:
REMARK  status: ('A' for Active; 'I' for Inactive)
REMARK    1  A    between atoms: C3_3  and  C4_4 
REMARK    2  A    between atoms: C6_6  and  O1_7 
REMARK    3  A    between atoms: O1_7  and  C7_8 
REMARK    4  A    between atoms: C11_12  and  C12_13 
REMARK       I    between atoms: C12_13  and  N1_15 
REMARK    5  A    between atoms: N1_15  and  C13_17 
REMARK    6  A    between atoms: C13_17  and  C14_18 
REMARK    7  A    between atoms: C36_44  and  C37_45 
REMARK    8  A    between atoms: C37_45  and  C38_47 
REMARK    9  A    between atoms: C38_47  and  O5_48 
ROOT
HETATM    1  C4  UNL     1      10.143  76.163   5.741  1.00  0.00     0.004 C 
HETATM    2  C5  UNL     1       9.214  75.096   5.157  1.00  0.00     0.022 C 
HETATM    3  C6  UNL     1      11.387  76.144   4.912  1.00  0.00     0.137 C 
HETATM    4  C19 UNL     1      12.248  77.277   5.452  1.00  0.00     0.034 C 
HETATM    5  C20 UNL     1      12.750  76.825   6.787  1.00  0.00     0.012 C 
HETATM    6  C21 UNL     1      11.638  76.501   7.763  1.00  0.00    -0.035 C 
HETATM    7  C22 UNL     1      11.232  77.937   8.195  1.00  0.00     0.016 C 
HETATM    8  C23 UNL     1      10.424  75.882   7.204  1.00  0.00     0.008 C 
HETATM    9  C24 UNL     1      10.307  74.400   7.392  1.00  0.00     0.007 C 
HETATM   10  C25 UNL     1      10.796  73.903   8.738  1.00  0.00     0.011 C 
HETATM   11  C26 UNL     1      12.172  74.384   9.067  1.00  0.00    -0.032 C 
HETATM   12  C27 UNL     1      13.076  73.790   7.972  1.00  0.00     0.016 C 
HETATM   13  C28 UNL     1      12.159  75.879   9.010  1.00  0.00     0.003 C 
HETATM   14  C29 UNL     1      11.465  76.352  10.271  1.00  0.00     0.006 C 
HETATM   15  C30 UNL     1      12.491  76.128  11.392  1.00  0.00     0.006 C 
HETATM   16  C31 UNL     1      12.526  74.648  11.596  1.00  0.00    -0.000 C 
HETATM   17  C32 UNL     1      11.361  74.240  12.404  1.00  0.00     0.006 C 
HETATM   18  C33 UNL     1      10.984  75.037  13.564  1.00  0.00     0.006 C 
HETATM   19  C34 UNL     1      10.061  74.133  14.333  1.00  0.00     0.002 C 
HETATM   20  C35 UNL     1      10.159  72.754  13.665  1.00  0.00     0.018 C 
HETATM   21  C36 UNL     1      11.461  72.827  12.890  1.00  0.00     0.027 C 
HETATM   22  C39 UNL     1      11.395  72.036  11.601  1.00  0.00     0.018 C 
HETATM   23  C40 UNL     1      12.420  72.410  10.612  1.00  0.00     0.011 C 
HETATM   24  C41 UNL     1      12.722  73.837  10.350  1.00  0.00    -0.032 C 
HETATM   25  C42 UNL     1      14.268  73.913  10.155  1.00  0.00     0.016 C 
ENDROOT
BRANCH   3  26
HETATM   26  O1  UNL     1      11.098  76.294   3.587  1.00  0.00    -0.355 OA
BRANCH  26  27
HETATM   27  C7  UNL     1      11.771  75.415   2.743  1.00  0.00     0.261 C 
HETATM   28  C8  UNL     1      12.754  74.534   3.418  1.00  0.00     0.068 C 
HETATM   29  C9  UNL     1      12.204  73.156   3.266  1.00  0.00     0.024 C 
HETATM   30  C10 UNL     1      12.259  72.373   4.546  1.00  0.00     0.013 C 
HETATM   31  C11 UNL     1      10.788  73.393   2.796  1.00  0.00     0.220 C 
HETATM   32  O3  UNL     1      10.780  74.619   2.171  1.00  0.00    -0.346 OA
BRANCH  31  33
HETATM   33  C12 UNL     1      10.266  72.312   1.953  1.00  0.00     0.247 C 
HETATM   34  O2  UNL     1       9.008  72.205   1.833  1.00  0.00    -0.271 OA
HETATM   35  N1  UNL     1      11.103  71.389   1.274  1.00  0.00    -0.358 N 
ATOM     36  H1  UNL     1      12.114  71.477   1.374  1.00  0.00     0.162 HD
BRANCH  35  37
HETATM   37  C13 UNL     1      10.577  70.331   0.448  1.00  0.00     0.127 C 
BRANCH  37  38
HETATM   38  C14 UNL     1      11.206  68.999   0.757  1.00  0.00     0.006 C 
HETATM   39  C15 UNL     1      11.260  68.748   2.231  1.00  0.00     0.034 C 
HETATM   40  C16 UNL     1      12.671  68.495   2.720  1.00  0.00     0.232 C 
HETATM   41  N2  UNL     1      13.242  67.421   1.963  1.00  0.00    -0.075 N 
HETATM   42  C17 UNL     1      13.287  67.672   0.556  1.00  0.00     0.232 C 
ATOM     43  H22 UNL     1      14.168  67.184   2.317  1.00  0.00     0.277 HD
ATOM     44  H21 UNL     1      12.755  66.546   2.157  1.00  0.00     0.277 HD
HETATM   45  C18 UNL     1      12.572  68.904   0.106  1.00  0.00     0.034 C 
ENDBRANCH  37  38
ENDBRANCH  35  37
ENDBRANCH  31  33
ENDBRANCH  26  27
ENDBRANCH   3  26
BRANCH   1  46
HETATM   46  C3  UNL     1       9.342  77.412   5.604  1.00  0.00    -0.019 C 
HETATM   47  C2  UNL     1       8.139  77.605   6.075  1.00  0.00    -0.034 C 
HETATM   48  C1  UNL     1       7.433  78.921   5.867  1.00  0.00     0.036 C 
ENDBRANCH   1  46
BRANCH  21  49
HETATM   49  C37 UNL     1      12.612  72.423  13.667  1.00  0.00     0.159 C 
HETATM   50  O4  UNL     1      13.682  72.950  13.412  1.00  0.00    -0.295 OA
BRANCH  49  51
HETATM   51  C38 UNL     1      12.654  71.416  14.765  1.00  0.00     0.243 C 
BRANCH  51  52
HETATM   52  O5  UNL     1      13.941  70.861  14.912  1.00  0.00    -0.394 OA
ATOM     53  H5  UNL     1      14.196  70.805  15.826  1.00  0.00     0.209 HD
ENDBRANCH  51  52
ENDBRANCH  49  51
ENDBRANCH  21  49
TORSDOF 9
ENDMDL
MODEL 4
REMARK VINA RESULT: -8.645580509      3.625      7.915
REMARK  9 active torsions:
REMARK  status: ('A' for Active; 'I' for Inactive)
REMARK    1  A    between atoms: C3_3  and  C4_4 
REMARK    2  A    between atoms: C6_6  and  O1_7 
REMARK    3  A    between atoms: O1_7  and  C7_8 
REMARK    4  A    between atoms: C11_12  and  C12_13 
REMARK       I    between atoms: C12_13  and  N1_15 
REMARK    5  A    between atoms: N1_15  and  C13_17 
REMARK    6  A    between atoms: C13_17  and  C14_18 
REMARK    7  A    between atoms: C36_44  and  C37_45 
REMARK    8  A    between atoms: C37_45  and  C38_47 
REMARK    9  A    between atoms: C38_47  and  O5_48 
ROOT
HETATM    1  C4  UNL     1       9.484  73.888   3.580  1.00  0.00     0.004 C 
HETATM    2  C5  UNL     1       8.129  73.201   3.763  1.00  0.00     0.022 C 
HETATM    3  C6  UNL     1      10.331  72.953   2.779  1.00  0.00     0.137 C 
HETATM    4  C19 UNL     1      11.632  73.703   2.530  1.00  0.00     0.034 C 
HETATM    5  C20 UNL     1      12.353  73.740   3.842  1.00  0.00     0.012 C 
HETATM    6  C21 UNL     1      11.561  74.418   4.938  1.00  0.00    -0.035 C 
HETATM    7  C22 UNL     1      11.792  75.906   4.557  1.00  0.00     0.016 C 
HETATM    8  C23 UNL     1      10.102  74.214   4.926  1.00  0.00     0.008 C 
HETATM    9  C24 UNL     1       9.581  73.201   5.900  1.00  0.00     0.007 C 
HETATM   10  C25 UNL     1      10.279  73.213   7.245  1.00  0.00     0.011 C 
HETATM   11  C26 UNL     1      11.767  73.136   7.125  1.00  0.00    -0.032 C 
HETATM   12  C27 UNL     1      12.044  71.781   6.447  1.00  0.00     0.016 C 
HETATM   13  C28 UNL     1      12.217  74.276   6.266  1.00  0.00     0.003 C 
HETATM   14  C29 UNL     1      12.141  75.520   7.127  1.00  0.00     0.006 C 
HETATM   15  C30 UNL     1      13.338  75.407   8.085  1.00  0.00     0.006 C 
HETATM   16  C31 UNL     1      12.958  74.337   9.056  1.00  0.00    -0.000 C 
HETATM   17  C32 UNL     1      12.038  74.897  10.064  1.00  0.00     0.006 C 
HETATM   18  C33 UNL     1      12.319  76.207  10.634  1.00  0.00     0.006 C 
HETATM   19  C34 UNL     1      11.444  76.259  11.856  1.00  0.00     0.002 C 
HETATM   20  C35 UNL     1      10.881  74.843  12.039  1.00  0.00     0.018 C 
HETATM   21  C36 UNL     1      11.827  73.978  11.227  1.00  0.00     0.027 C 
HETATM   22  C39 UNL     1      11.112  72.806  10.589  1.00  0.00     0.018 C 
HETATM   23  C40 UNL     1      11.839  72.199   9.462  1.00  0.00     0.011 C 
HETATM   24  C41 UNL     1      12.485  73.054   8.439  1.00  0.00    -0.032 C 
HETATM   25  C42 UNL     1      13.830  72.350   8.085  1.00  0.00     0.016 C 
ENDROOT
BRANCH   3  26
HETATM   26  O1  UNL     1       9.707  72.593   1.621  1.00  0.00    -0.355 OA
BRANCH  26  27
HETATM   27  C7  UNL     1       9.229  71.286   1.601  1.00  0.00     0.261 C 
HETATM   28  C8  UNL     1       9.808  70.428   0.539  1.00  0.00     0.068 C 
HETATM   29  C9  UNL     1      10.591  69.389   1.269  1.00  0.00     0.024 C 
HETATM   30  C10 UNL     1      11.951  69.172   0.670  1.00  0.00     0.013 C 
HETATM   31  C11 UNL     1      10.661  69.926   2.678  1.00  0.00     0.220 C 
HETATM   32  O3  UNL     1       9.569  70.748   2.841  1.00  0.00    -0.346 OA
BRANCH  31  33
HETATM   33  C12 UNL     1      10.750  68.876   3.698  1.00  0.00     0.247 C 
HETATM   34  O2  UNL     1      11.594  67.946   3.525  1.00  0.00    -0.271 OA
HETATM   35  N1  UNL     1       9.936  68.858   4.861  1.00  0.00    -0.358 N 
ATOM     36  H1  UNL     1       9.256  69.607   4.996  1.00  0.00     0.162 HD
BRANCH  35  37
HETATM   37  C13 UNL     1      10.032  67.821   5.857  1.00  0.00     0.127 C 
BRANCH  37  38
HETATM   38  C14 UNL     1      10.019  68.371   7.258  1.00  0.00     0.006 C 
HETATM   39  C15 UNL     1       9.693  67.309   8.260  1.00  0.00     0.034 C 
HETATM   40  C16 UNL     1       8.478  67.657   9.094  1.00  0.00     0.232 C 
HETATM   41  N2  UNL     1       8.681  68.938   9.703  1.00  0.00    -0.075 N 
HETATM   42  C17 UNL     1       8.904  69.991   8.762  1.00  0.00     0.232 C 
ATOM     43  H22 UNL     1       7.906  69.167  10.325  1.00  0.00     0.277 HD
ATOM     44  H21 UNL     1       9.440  68.897  10.383  1.00  0.00     0.277 HD
HETATM   45  C18 UNL     1       9.073  69.553   7.344  1.00  0.00     0.034 C 
ENDBRANCH  37  38
ENDBRANCH  35  37
ENDBRANCH  31  33
ENDBRANCH  26  27
ENDBRANCH   3  26
BRANCH   1  46
HETATM   46  C3  UNL     1       9.124  75.146   2.865  1.00  0.00    -0.019 C 
HETATM   47  C2  UNL     1       8.292  76.057   3.291  1.00  0.00    -0.034 C 
HETATM   48  C1  UNL     1       8.013  77.289   2.468  1.00  0.00     0.036 C 
ENDBRANCH   1  46
BRANCH  21  49
HETATM   49  C37 UNL     1      12.970  73.515  11.984  1.00  0.00     0.159 C 
HETATM   50  O4  UNL     1      14.075  73.881  11.621  1.00  0.00    -0.295 OA
BRANCH  49  51
HETATM   51  C38 UNL     1      12.964  72.624  13.178  1.00  0.00     0.243 C 
BRANCH  51  52
HETATM   52  O5  UNL     1      14.176  72.703  13.892  1.00  0.00    -0.394 OA
ATOM     53  H5  UNL     1      14.738  71.958  13.712  1.00  0.00     0.209 HD
ENDBRANCH  51  52
ENDBRANCH  49  51
ENDBRANCH  21  49
TORSDOF 9
ENDMDL
MODEL 5
REMARK VINA RESULT: -8.575432103      1.343      1.743
REMARK  9 active torsions:
REMARK  status: ('A' for Active; 'I' for Inactive)
REMARK    1  A    between atoms: C3_3  and  C4_4 
REMARK    2  A    between atoms: C6_6  and  O1_7 
REMARK    3  A    between atoms: O1_7  and  C7_8 
REMARK    4  A    between atoms: C11_12  and  C12_13 
REMARK       I    between atoms: C12_13  and  N1_15 
REMARK    5  A    between atoms: N1_15  and  C13_17 
REMARK    6  A    between atoms: C13_17  and  C14_18 
REMARK    7  A    between atoms: C36_44  and  C37_45 
REMARK    8  A    between atoms: C37_45  and  C38_47 
REMARK    9  A    between atoms: C38_47  and  O5_48 
ROOT
HETATM    1  C4  UNL     1      12.113  74.978   5.543  1.00  0.00     0.004 C 
HETATM    2  C5  UNL     1      12.803  73.660   5.189  1.00  0.00     0.022 C 
HETATM    3  C6  UNL     1      10.644  74.747   5.381  1.00  0.00     0.137 C 
HETATM    4  C19 UNL     1       9.981  76.040   5.833  1.00  0.00     0.034 C 
HETATM    5  C20 UNL     1      10.263  77.052   4.767  1.00  0.00     0.012 C 
HETATM    6  C21 UNL     1      11.742  77.277   4.535  1.00  0.00    -0.035 C 
HETATM    7  C22 UNL     1      12.070  78.189   5.748  1.00  0.00     0.016 C 
HETATM    8  C23 UNL     1      12.619  76.100   4.658  1.00  0.00     0.008 C 
HETATM    9  C24 UNL     1      13.047  75.473   3.365  1.00  0.00     0.007 C 
HETATM   10  C25 UNL     1      13.352  76.467   2.262  1.00  0.00     0.011 C 
HETATM   11  C26 UNL     1      12.247  77.451   2.048  1.00  0.00    -0.032 C 
HETATM   12  C27 UNL     1      11.036  76.604   1.617  1.00  0.00     0.016 C 
HETATM   13  C28 UNL     1      11.992  78.142   3.350  1.00  0.00     0.003 C 
HETATM   14  C29 UNL     1      13.121  79.134   3.540  1.00  0.00     0.006 C 
HETATM   15  C30 UNL     1      12.811  80.274   2.557  1.00  0.00     0.006 C 
HETATM   16  C31 UNL     1      13.115  79.714   1.205  1.00  0.00    -0.000 C 
HETATM   17  C32 UNL     1      14.574  79.745   0.982  1.00  0.00     0.006 C 
HETATM   18  C33 UNL     1      15.328  80.929   1.369  1.00  0.00     0.006 C 
HETATM   19  C34 UNL     1      16.638  80.767   0.650  1.00  0.00     0.002 C 
HETATM   20  C35 UNL     1      16.453  79.588  -0.315  1.00  0.00     0.018 C 
HETATM   21  C36 UNL     1      14.946  79.465  -0.440  1.00  0.00     0.027 C 
HETATM   22  C39 UNL     1      14.510  78.026  -0.614  1.00  0.00     0.018 C 
HETATM   23  C40 UNL     1      13.091  77.786  -0.301  1.00  0.00     0.011 C 
HETATM   24  C41 UNL     1      12.477  78.391   0.904  1.00  0.00    -0.032 C 
HETATM   25  C42 UNL     1      11.038  78.816   0.477  1.00  0.00     0.016 C 
ENDROOT
BRANCH   3  26
HETATM   26  O1  UNL     1      10.233  73.668   6.106  1.00  0.00    -0.355 OA
BRANCH  26  27
HETATM   27  C7  UNL     1       9.383  72.801   5.426  1.00  0.00     0.261 C 
HETATM   28  C8  UNL     1       9.033  73.226   4.049  1.00  0.00     0.068 C 
HETATM   29  C9  UNL     1       9.651  72.198   3.161  1.00  0.00     0.024 C 
HETATM   30  C10 UNL     1      10.377  72.809   1.997  1.00  0.00     0.013 C 
HETATM   31  C11 UNL     1      10.576  71.445   4.086  1.00  0.00     0.220 C 
HETATM   32  O3  UNL     1      10.066  71.589   5.357  1.00  0.00    -0.346 OA
BRANCH  31  33
HETATM   33  C12 UNL     1      10.773  70.044   3.699  1.00  0.00     0.247 C 
HETATM   34  O2  UNL     1       9.802  69.242   3.846  1.00  0.00    -0.271 OA
HETATM   35  N1  UNL     1      11.997  69.553   3.174  1.00  0.00    -0.358 N 
ATOM     36  H1  UNL     1      12.777  70.201   3.060  1.00  0.00     0.162 HD
BRANCH  35  37
HETATM   37  C13 UNL     1      12.180  68.174   2.797  1.00  0.00     0.127 C 
BRANCH  37  38
HETATM   38  C14 UNL     1      12.205  67.988   1.304  1.00  0.00     0.006 C 
HETATM   39  C15 UNL     1      13.429  67.248   0.865  1.00  0.00     0.034 C 
HETATM   40  C16 UNL     1      14.247  68.032  -0.140  1.00  0.00     0.232 C 
HETATM   41  N2  UNL     1      13.407  68.399  -1.241  1.00  0.00    -0.075 N 
HETATM   42  C17 UNL     1      12.276  69.187  -0.861  1.00  0.00     0.232 C 
ATOM     43  H22 UNL     1      13.948  68.870  -1.965  1.00  0.00     0.277 HD
ATOM     44  H21 UNL     1      13.111  67.571  -1.759  1.00  0.00     0.277 HD
HETATM   45  C18 UNL     1      12.064  69.329   0.610  1.00  0.00     0.034 C 
ENDBRANCH  37  38
ENDBRANCH  35  37
ENDBRANCH  31  33
ENDBRANCH  26  27
ENDBRANCH   3  26
BRANCH   1  46
HETATM   46  C3  UNL     1      12.538  75.208   6.953  1.00  0.00    -0.019 C 
HETATM   47  C2  UNL     1      13.092  74.323   7.739  1.00  0.00    -0.034 C 
HETATM   48  C1  UNL     1      13.477  74.684   9.152  1.00  0.00     0.036 C 
ENDBRANCH   1  46
BRANCH  21  49
HETATM   49  C37 UNL     1      14.393  80.287  -1.495  1.00  0.00     0.159 C 
HETATM   50  O4  UNL     1      13.748  81.269  -1.168  1.00  0.00    -0.295 OA
BRANCH  49  51
HETATM   51  C38 UNL     1      14.511  80.074  -2.965  1.00  0.00     0.243 C 
BRANCH  51  52
HETATM   52  O5  UNL     1      15.466  80.937  -3.540  1.00  0.00    -0.394 OA
ATOM     53  H5  UNL     1      16.138  80.454  -4.007  1.00  0.00     0.209 HD
ENDBRANCH  51  52
ENDBRANCH  49  51
ENDBRANCH  21  49
TORSDOF 9
ENDMDL
