MODEL 1
REMARK VINA RESULT: -6.826233205      0.000      0.000
REMARK  9 active torsions:
REMARK  status: ('A' for Active; 'I' for Inactive)
REMARK    1  A    between atoms: C2_2  and  C3_3 
REMARK    2  A    between atoms: C3_3  and  C4_4 
REMARK    3  A    between atoms: C4_4  and  N1_5 
REMARK    4  A    between atoms: C4_4  and  C10_13 
REMARK       I    between atoms: N1_5  and  C5_6 
REMARK    5  A    between atoms: C5_6  and  C6_8 
REMARK    6  A    between atoms: C6_8  and  C7_10 
REMARK       I    between atoms: C10_13  and  N2_15 
REMARK    7  A    between atoms: N2_15  and  C11_17 
REMARK    8  A    between atoms: C11_17  and  C12_18 
REMARK    9  A    between atoms: C11_17  and  C14_23 
REMARK       I    between atoms: C12_18  and  N3_20 
ROOT
HETATM    1  C10 UNL     1      17.206 -14.044  22.081  1.00  0.00     0.254 C 
HETATM    2  O2  UNL     1      17.898 -13.067  21.738  1.00  0.00    -0.270 OA
HETATM    3  N2  UNL     1      15.817 -13.942  21.528  1.00  0.00    -0.345 N 
ATOM      4  H2  UNL     1      15.078 -14.620  21.717  1.00  0.00     0.163 HD
ENDROOT
BRANCH   1   5
HETATM    5  C4  UNL     1      17.757 -15.124  22.924  1.00  0.00     0.258 C 
BRANCH   5   6
HETATM    6  C3  UNL     1      17.718 -16.352  21.953  1.00  0.00     0.049 C 
BRANCH   6   7
HETATM    7  C2  UNL     1      18.079 -17.644  22.555  1.00  0.00    -0.001 C 
HETATM    8  C1  UNL     1      17.250 -17.806  23.848  1.00  0.00     0.005 C 
ENDBRANCH   6   7
ENDBRANCH   5   6
BRANCH   5   9
HETATM    9  N1  UNL     1      19.150 -14.876  23.235  1.00  0.00    -0.399 NA
HETATM   10  C5  UNL     1      20.425 -14.641  23.497  1.00  0.00     0.302 C 
HETATM   11  O1  UNL     1      21.291 -14.179  22.664  1.00  0.00    -0.256 OA
BRANCH  10  12
HETATM   12  C6  UNL     1      21.041 -14.892  24.878  1.00  0.00     0.168 C 
HETATM   13 BR1  UNL     1      21.097 -16.837  25.198  1.00  0.00    -0.080 Br
BRANCH  12  14
HETATM   14  C7  UNL     1      20.124 -14.316  25.913  1.00  0.00     0.002 C 
HETATM   15  C8  UNL     1      19.408 -15.519  26.616  1.00  0.00     0.011 C 
HETATM   16  C9  UNL     1      20.933 -13.664  27.020  1.00  0.00     0.011 C 
ENDBRANCH  12  14
ENDBRANCH  10  12
ENDBRANCH   5   9
ENDBRANCH   1   5
BRANCH   3  17
HETATM   17  C11 UNL     1      15.641 -12.771  20.695  1.00  0.00     0.180 C 
BRANCH  17  18
HETATM   18  C12 UNL     1      14.558 -12.033  21.488  1.00  0.00     0.240 C 
HETATM   19  O3  UNL     1      13.882 -12.734  22.313  1.00  0.00    -0.271 OA
HETATM   20  N3  UNL     1      14.236 -10.681  21.367  1.00  0.00    -0.364 N 
HETATM   21  C13 UNL     1      13.123 -10.213  22.263  1.00  0.00     0.149 C 
ATOM     22  H3  UNL     1      14.719 -10.057  20.720  1.00  0.00     0.161 HD
ENDBRANCH  17  18
BRANCH  17  23
HETATM   23  C14 UNL     1      15.147 -12.885  19.318  1.00  0.00     0.009 C 
HETATM   24  C15 UNL     1      16.404 -12.912  18.365  1.00  0.00     0.012 C 
HETATM   25  C16 UNL     1      14.270 -13.997  18.880  1.00  0.00     0.012 C 
ENDBRANCH  17  23
ENDBRANCH   3  17
TORSDOF 9
ENDMDL
MODEL 2
REMARK VINA RESULT: -6.797687795      1.090      1.102
REMARK  9 active torsions:
REMARK  status: ('A' for Active; 'I' for Inactive)
REMARK    1  A    between atoms: C2_2  and  C3_3 
REMARK    2  A    between atoms: C3_3  and  C4_4 
REMARK    3  A    between atoms: C4_4  and  N1_5 
REMARK    4  A    between atoms: C4_4  and  C10_13 
REMARK       I    between atoms: N1_5  and  C5_6 
REMARK    5  A    between atoms: C5_6  and  C6_8 
REMARK    6  A    between atoms: C6_8  and  C7_10 
REMARK       I    between atoms: C10_13  and  N2_15 
REMARK    7  A    between atoms: N2_15  and  C11_17 
REMARK    8  A    between atoms: C11_17  and  C12_18 
REMARK    9  A    between atoms: C11_17  and  C14_23 
REMARK       I    between atoms: C12_18  and  N3_20 
ROOT
HETATM    1  C10 UNL     1      16.498 -13.947  22.029  1.00  0.00     0.254 C 
HETATM    2  O2  UNL     1      17.144 -13.402  21.113  1.00  0.00    -0.270 OA
HETATM    3  N2  UNL     1      15.055 -13.546  21.983  1.00  0.00    -0.345 N 
ATOM      4  H2  UNL     1      14.359 -13.852  22.663  1.00  0.00     0.163 HD
ENDROOT
BRANCH   1   5
HETATM    5  C4  UNL     1      17.145 -14.859  22.994  1.00  0.00     0.258 C 
BRANCH   5   6
HETATM    6  C3  UNL     1      16.875 -16.261  22.353  1.00  0.00     0.049 C 
BRANCH   6   7
HETATM    7  C2  UNL     1      17.681 -17.366  22.892  1.00  0.00    -0.001 C 
HETATM    8  C1  UNL     1      17.132 -17.705  24.295  1.00  0.00     0.005 C 
ENDBRANCH   6   7
ENDBRANCH   5   6
BRANCH   5   9
HETATM    9  N1  UNL     1      18.581 -14.667  23.004  1.00  0.00    -0.399 NA
HETATM   10  C5  UNL     1      19.891 -14.486  22.989  1.00  0.00     0.302 C 
HETATM   11  O1  UNL     1      20.590 -14.135  21.966  1.00  0.00    -0.256 OA
BRANCH  10  12
HETATM   12  C6  UNL     1      20.761 -14.670  24.237  1.00  0.00     0.168 C 
HETATM   13 BR1  UNL     1      21.045 -16.600  24.526  1.00  0.00    -0.080 Br
BRANCH  12  14
HETATM   14  C7  UNL     1      19.994 -14.171  25.422  1.00  0.00     0.002 C 
HETATM   15  C8  UNL     1      19.590 -15.423  26.272  1.00  0.00     0.011 C 
HETATM   16  C9  UNL     1      20.909 -13.378  26.338  1.00  0.00     0.011 C 
ENDBRANCH  12  14
ENDBRANCH  10  12
ENDBRANCH   5   9
ENDBRANCH   1   5
BRANCH   3  17
HETATM   17  C11 UNL     1      14.761 -12.677  20.864  1.00  0.00     0.180 C 
BRANCH  17  18
HETATM   18  C12 UNL     1      13.882 -11.630  21.556  1.00  0.00     0.240 C 
HETATM   19  O3  UNL     1      14.152 -10.408  21.305  1.00  0.00    -0.271 OA
HETATM   20  N3  UNL     1      12.840 -11.897  22.444  1.00  0.00    -0.364 N 
HETATM   21  C13 UNL     1      12.143 -10.679  22.985  1.00  0.00     0.149 C 
ATOM     22  H3  UNL     1      12.572 -12.845  22.707  1.00  0.00     0.161 HD
ENDBRANCH  17  18
BRANCH  17  23
HETATM   23  C14 UNL     1      14.002 -13.160  19.705  1.00  0.00     0.009 C 
HETATM   24  C15 UNL     1      14.815 -12.771  18.411  1.00  0.00     0.012 C 
HETATM   25  C16 UNL     1      13.622 -14.584  19.544  1.00  0.00     0.012 C 
ENDBRANCH  17  23
ENDBRANCH   3  17
TORSDOF 9
ENDMDL
MODEL 3
REMARK VINA RESULT: -6.659019145      1.131      1.262
REMARK  9 active torsions:
REMARK  status: ('A' for Active; 'I' for Inactive)
REMARK    1  A    between atoms: C2_2  and  C3_3 
REMARK    2  A    between atoms: C3_3  and  C4_4 
REMARK    3  A    between atoms: C4_4  and  N1_5 
REMARK    4  A    between atoms: C4_4  and  C10_13 
REMARK       I    between atoms: N1_5  and  C5_6 
REMARK    5  A    between atoms: C5_6  and  C6_8 
REMARK    6  A    between atoms: C6_8  and  C7_10 
REMARK       I    between atoms: C10_13  and  N2_15 
REMARK    7  A    between atoms: N2_15  and  C11_17 
REMARK    8  A    between atoms: C11_17  and  C12_18 
REMARK    9  A    between atoms: C11_17  and  C14_23 
REMARK       I    between atoms: C12_18  and  N3_20 
ROOT
HETATM    1  C10 UNL     1      16.603 -13.729  22.025  1.00  0.00     0.254 C 
HETATM    2  O2  UNL     1      17.346 -12.987  21.353  1.00  0.00    -0.270 OA
HETATM    3  N2  UNL     1      15.186 -13.653  21.543  1.00  0.00    -0.345 N 
ATOM      4  H2  UNL     1      14.411 -14.155  21.976  1.00  0.00     0.163 HD
ENDROOT
BRANCH   1   5
HETATM    5  C4  UNL     1      17.129 -14.547  23.136  1.00  0.00     0.258 C 
BRANCH   5   6
HETATM    6  C3  UNL     1      16.693 -15.991  22.718  1.00  0.00     0.049 C 
BRANCH   6   7
HETATM    7  C2  UNL     1      17.298 -16.497  21.476  1.00  0.00    -0.001 C 
HETATM    8  C1  UNL     1      16.240 -17.363  20.759  1.00  0.00     0.005 C 
ENDBRANCH   6   7
ENDBRANCH   5   6
BRANCH   5   9
HETATM    9  N1  UNL     1      18.577 -14.530  23.150  1.00  0.00    -0.399 NA
HETATM   10  C5  UNL     1      19.900 -14.509  23.139  1.00  0.00     0.302 C 
HETATM   11  O1  UNL     1      20.639 -14.268  22.112  1.00  0.00    -0.256 OA
BRANCH  10  12
HETATM   12  C6  UNL     1      20.738 -14.768  24.396  1.00  0.00     0.168 C 
HETATM   13 BR1  UNL     1      20.879 -16.716  24.667  1.00  0.00    -0.080 Br
BRANCH  12  14
HETATM   14  C7  UNL     1      19.992 -14.226  25.577  1.00  0.00     0.002 C 
HETATM   15  C8  UNL     1      19.548 -15.452  26.444  1.00  0.00     0.011 C 
HETATM   16  C9  UNL     1      20.938 -13.454  26.479  1.00  0.00     0.011 C 
ENDBRANCH  12  14
ENDBRANCH  10  12
ENDBRANCH   5   9
ENDBRANCH   1   5
BRANCH   3  17
HETATM   17  C11 UNL     1      15.043 -12.788  20.392  1.00  0.00     0.180 C 
BRANCH  17  18
HETATM   18  C12 UNL     1      13.870 -11.916  20.851  1.00  0.00     0.240 C 
HETATM   19  O3  UNL     1      13.467 -11.028  20.027  1.00  0.00    -0.271 OA
HETATM   20  N3  UNL     1      13.229 -11.994  22.087  1.00  0.00    -0.364 N 
HETATM   21  C13 UNL     1      12.107 -11.012  22.281  1.00  0.00     0.149 C 
ATOM     22  H3  UNL     1      13.500 -12.667  22.805  1.00  0.00     0.161 HD
ENDBRANCH  17  18
BRANCH  17  23
HETATM   23  C14 UNL     1      14.675 -13.326  19.077  1.00  0.00     0.009 C 
HETATM   24  C15 UNL     1      15.874 -13.036  18.094  1.00  0.00     0.012 C 
HETATM   25  C16 UNL     1      14.308 -14.748  18.877  1.00  0.00     0.012 C 
ENDBRANCH  17  23
ENDBRANCH   3  17
TORSDOF 9
ENDMDL
MODEL 4
REMARK VINA RESULT: -6.655792714      2.619      3.537
REMARK  9 active torsions:
REMARK  status: ('A' for Active; 'I' for Inactive)
REMARK    1  A    between atoms: C2_2  and  C3_3 
REMARK    2  A    between atoms: C3_3  and  C4_4 
REMARK    3  A    between atoms: C4_4  and  N1_5 
REMARK    4  A    between atoms: C4_4  and  C10_13 
REMARK       I    between atoms: N1_5  and  C5_6 
REMARK    5  A    between atoms: C5_6  and  C6_8 
REMARK    6  A    between atoms: C6_8  and  C7_10 
REMARK       I    between atoms: C10_13  and  N2_15 
REMARK    7  A    between atoms: N2_15  and  C11_17 
REMARK    8  A    between atoms: C11_17  and  C12_18 
REMARK    9  A    between atoms: C11_17  and  C14_23 
REMARK       I    between atoms: C12_18  and  N3_20 
ROOT
HETATM    1  C10 UNL     1      16.363 -14.765  21.975  1.00  0.00     0.254 C 
HETATM    2  O2  UNL     1      15.874 -13.821  22.626  1.00  0.00    -0.270 OA
HETATM    3  N2  UNL     1      15.317 -15.447  21.146  1.00  0.00    -0.345 N 
ATOM      4  H2  UNL     1      15.498 -16.265  20.564  1.00  0.00     0.163 HD
ENDROOT
BRANCH   1   5
HETATM    5  C4  UNL     1      17.798 -15.102  22.061  1.00  0.00     0.258 C 
BRANCH   5   6
HETATM    6  C3  UNL     1      18.466 -13.894  21.323  1.00  0.00     0.049 C 
BRANCH   6   7
HETATM    7  C2  UNL     1      19.829 -14.134  20.827  1.00  0.00    -0.001 C 
HETATM    8  C1  UNL     1      20.195 -12.969  19.882  1.00  0.00     0.005 C 
ENDBRANCH   6   7
ENDBRANCH   5   6
BRANCH   5   9
HETATM    9  N1  UNL     1      18.256 -15.063  23.435  1.00  0.00    -0.399 NA
HETATM   10  C5  UNL     1      18.656 -15.043  24.696  1.00  0.00     0.302 C 
HETATM   11  O1  UNL     1      18.098 -15.670  25.672  1.00  0.00    -0.256 OA
BRANCH  10  12
HETATM   12  C6  UNL     1      19.882 -14.247  25.157  1.00  0.00     0.168 C 
HETATM   13 BR1  UNL     1      21.381 -14.640  23.938  1.00  0.00    -0.080 Br
BRANCH  12  14
HETATM   14  C7  UNL     1      20.288 -14.752  26.507  1.00  0.00     0.002 C 
HETATM   15  C8  UNL     1      21.471 -15.756  26.289  1.00  0.00     0.011 C 
HETATM   16  C9  UNL     1      20.900 -13.626  27.322  1.00  0.00     0.011 C 
ENDBRANCH  12  14
ENDBRANCH  10  12
ENDBRANCH   5   9
ENDBRANCH   1   5
BRANCH   3  17
HETATM   17  C11 UNL     1      14.022 -14.813  21.264  1.00  0.00     0.180 C 
BRANCH  17  18
HETATM   18  C12 UNL     1      13.123 -16.048  21.375  1.00  0.00     0.240 C 
HETATM   19  O3  UNL     1      13.230 -16.733  22.446  1.00  0.00    -0.271 OA
HETATM   20  N3  UNL     1      12.226 -16.496  20.404  1.00  0.00    -0.364 N 
HETATM   21  C13 UNL     1      11.471 -17.743  20.768  1.00  0.00     0.149 C 
ATOM     22  H3  UNL     1      12.093 -16.013  19.515  1.00  0.00     0.161 HD
ENDBRANCH  17  18
BRANCH  17  23
HETATM   23  C14 UNL     1      13.474 -13.993  20.177  1.00  0.00     0.009 C 
HETATM   24  C15 UNL     1      13.097 -12.588  20.787  1.00  0.00     0.012 C 
HETATM   25  C16 UNL     1      14.233 -13.716  18.933  1.00  0.00     0.012 C 
ENDBRANCH  17  23
ENDBRANCH   3  17
TORSDOF 9
ENDMDL
MODEL 5
REMARK VINA RESULT: -6.604625044      2.617      3.421
REMARK  9 active torsions:
REMARK  status: ('A' for Active; 'I' for Inactive)
REMARK    1  A    between atoms: C2_2  and  C3_3 
REMARK    2  A    between atoms: C3_3  and  C4_4 
REMARK    3  A    between atoms: C4_4  and  N1_5 
REMARK    4  A    between atoms: C4_4  and  C10_13 
REMARK       I    between atoms: N1_5  and  C5_6 
REMARK    5  A    between atoms: C5_6  and  C6_8 
REMARK    6  A    between atoms: C6_8  and  C7_10 
REMARK       I    between atoms: C10_13  and  N2_15 
REMARK    7  A    between atoms: N2_15  and  C11_17 
REMARK    8  A    between atoms: C11_17  and  C12_18 
REMARK    9  A    between atoms: C11_17  and  C14_23 
REMARK       I    between atoms: C12_18  and  N3_20 
ROOT
HETATM    1  C10 UNL     1      16.224 -14.881  21.178  1.00  0.00     0.254 C 
HETATM    2  O2  UNL     1      15.843 -14.821  19.992  1.00  0.00    -0.270 OA
HETATM    3  N2  UNL     1      15.064 -14.796  22.122  1.00  0.00    -0.345 N 
ATOM      4  H2  UNL     1      15.157 -14.793  23.138  1.00  0.00     0.163 HD
ENDROOT
BRANCH   1   5
HETATM    5  C4  UNL     1      17.653 -15.021  21.524  1.00  0.00     0.258 C 
BRANCH   5   6
HETATM    6  C3  UNL     1      18.079 -13.536  21.775  1.00  0.00     0.049 C 
BRANCH   6   7
HETATM    7  C2  UNL     1      18.611 -12.827  20.602  1.00  0.00    -0.001 C 
HETATM    8  C1  UNL     1      20.101 -13.207  20.462  1.00  0.00     0.005 C 
ENDBRANCH   6   7
ENDBRANCH   5   6
BRANCH   5   9
HETATM    9  N1  UNL     1      17.813 -15.725  22.781  1.00  0.00    -0.399 NA
HETATM   10  C5  UNL     1      17.938 -16.378  23.924  1.00  0.00     0.302 C 
HETATM   11  O1  UNL     1      17.093 -17.224  24.403  1.00  0.00    -0.256 OA
BRANCH  10  12
HETATM   12  C6  UNL     1      19.153 -16.206  24.842  1.00  0.00     0.168 C 
HETATM   13 BR1  UNL     1      18.571 -16.459  26.709  1.00  0.00    -0.080 Br
BRANCH  12  14
HETATM   14  C7  UNL     1      19.627 -14.790  24.732  1.00  0.00     0.002 C 
HETATM   15  C8  UNL     1      20.077 -14.341  26.164  1.00  0.00     0.011 C 
HETATM   16  C9  UNL     1      20.899 -14.730  23.906  1.00  0.00     0.011 C 
ENDBRANCH  12  14
ENDBRANCH  10  12
ENDBRANCH   5   9
ENDBRANCH   1   5
BRANCH   3  17
HETATM   17  C11 UNL     1      13.795 -14.721  21.429  1.00  0.00     0.180 C 
BRANCH  17  18
HETATM   18  C12 UNL     1      13.130 -13.578  22.203  1.00  0.00     0.240 C 
HETATM   19  O3  UNL     1      13.832 -12.526  22.375  1.00  0.00    -0.271 OA
HETATM   20  N3  UNL     1      11.847 -13.599  22.749  1.00  0.00    -0.364 N 
HETATM   21  C13 UNL     1      11.444 -12.341  23.467  1.00  0.00     0.149 C 
ATOM     22  H3  UNL     1      11.229 -14.407  22.668  1.00  0.00     0.161 HD
ENDBRANCH  17  18
BRANCH  17  23
HETATM   23  C14 UNL     1      12.850 -15.843  21.447  1.00  0.00     0.009 C 
HETATM   24  C15 UNL     1      12.153 -15.898  20.034  1.00  0.00     0.012 C 
HETATM   25  C16 UNL     1      13.273 -17.230  21.757  1.00  0.00     0.012 C 
ENDBRANCH  17  23
ENDBRANCH   3  17
TORSDOF 9
ENDMDL
