MODEL 1
REMARK VINA RESULT: -7.811876448      0.000      0.000
REMARK  10 active torsions:
REMARK  status: ('A' for Active; 'I' for Inactive)
REMARK    1  A    between atoms: N1_6  and  C5_7 
REMARK    2  A    between atoms: C5_7  and  C6_8 
REMARK    3  A    between atoms: C6_8  and  C7_9 
REMARK    4  A    between atoms: C7_9  and  C8_10 
REMARK       I    between atoms: C8_10  and  N2_12 
REMARK    5  A    between atoms: N2_12  and  C9_14 
REMARK    6  A    between atoms: C9_14  and  C10_15 
REMARK    7  A    between atoms: C10_15  and  C11_16 
REMARK    8  A    between atoms: C12_18  and  C14_20 
REMARK       I    between atoms: C14_20  and  N3_22 
REMARK    9  A    between atoms: N3_22  and  C15_24 
REMARK   10  A    between atoms: C15_24  and  C16_25 
ROOT
HETATM    1  C1  UNL     1      15.385 -16.997  19.950  1.00  0.00     0.026 C 
HETATM    2  C2  UNL     1      14.774 -15.912  20.809  1.00  0.00     0.043 C 
HETATM    3  C3  UNL     1      13.996 -16.625  21.896  1.00  0.00     0.026 C 
HETATM    4  C4  UNL     1      15.799 -15.089  21.487  1.00  0.00     0.229 C 
HETATM    5  O1  UNL     1      16.588 -15.586  22.357  1.00  0.00    -0.272 OA
HETATM    6  N1  UNL     1      15.722 -13.770  21.013  1.00  0.00    -0.333 N 
HETATM    7  C12 UNL     1      14.354 -13.575  20.589  1.00  0.00     0.120 C 
HETATM    8  C13 UNL     1      14.363 -12.522  19.498  1.00  0.00     0.050 C 
HETATM    9  C17 UNL     1      13.976 -14.928  20.028  1.00  0.00     0.002 C 
HETATM   10  C18 UNL     1      14.390 -14.977  18.548  1.00  0.00     0.019 C 
HETATM   11  C19 UNL     1      12.531 -15.264  20.070  1.00  0.00     0.019 C 
ENDROOT
BRANCH   6  12
HETATM   12  C5  UNL     1      16.823 -12.843  20.968  1.00  0.00     0.128 C 
BRANCH  12  13
HETATM   13  C6  UNL     1      17.945 -13.258  20.087  1.00  0.00     0.029 C 
BRANCH  13  14
HETATM   14  C7  UNL     1      19.258 -13.126  20.791  1.00  0.00     0.104 C 
BRANCH  14  15
HETATM   15  C8  UNL     1      19.580 -14.203  21.754  1.00  0.00     0.217 C 
HETATM   16  O2  UNL     1      20.107 -15.263  21.365  1.00  0.00    -0.274 OA
HETATM   17  N2  UNL     1      19.303 -14.078  23.140  1.00  0.00    -0.361 N 
ATOM     18  H2  UNL     1      18.867 -13.214  23.462  1.00  0.00     0.162 HD
BRANCH  17  19
HETATM   19  C9  UNL     1      19.596 -15.080  24.110  1.00  0.00     0.125 C 
BRANCH  19  20
HETATM   20  C10 UNL     1      19.509 -14.589  25.521  1.00  0.00     0.051 C 
BRANCH  20  21
HETATM   21  C11 UNL     1      20.692 -13.679  25.810  1.00  0.00     0.224 C 
HETATM   22  F1  UNL     1      20.735 -13.435  27.173  1.00  0.00    -0.255 F 
ENDBRANCH  20  21
ENDBRANCH  19  20
ENDBRANCH  17  19
ENDBRANCH  14  15
ENDBRANCH  13  14
ENDBRANCH  12  13
ENDBRANCH   6  12
BRANCH   7  23
HETATM   23  C14 UNL     1      13.476 -13.099  21.668  1.00  0.00     0.247 C 
HETATM   24  O3  UNL     1      13.511 -13.572  22.853  1.00  0.00    -0.271 OA
HETATM   25  N3  UNL     1      12.520 -12.065  21.462  1.00  0.00    -0.349 N 
ATOM     26  H3  UNL     1      12.447 -11.658  20.529  1.00  0.00     0.163 HD
BRANCH  25  27
HETATM   27  C15 UNL     1      11.661 -11.565  22.477  1.00  0.00     0.235 C 
BRANCH  27  28
HETATM   28  C16 UNL     1      12.172 -10.457  23.291  1.00  0.00     0.191 C 
HETATM   29  O4  UNL     1      13.180  -9.756  23.069  1.00  0.00    -0.647 OA
HETATM   30  O5  UNL     1      11.446 -10.149  24.453  1.00  0.00    -0.647 OA
ENDBRANCH  27  28
ENDBRANCH  25  27
ENDBRANCH   7  23
TORSDOF 10
ENDMDL
MODEL 2
REMARK VINA RESULT: -7.660452868      1.427      1.536
REMARK  10 active torsions:
REMARK  status: ('A' for Active; 'I' for Inactive)
REMARK    1  A    between atoms: N1_6  and  C5_7 
REMARK    2  A    between atoms: C5_7  and  C6_8 
REMARK    3  A    between atoms: C6_8  and  C7_9 
REMARK    4  A    between atoms: C7_9  and  C8_10 
REMARK       I    between atoms: C8_10  and  N2_12 
REMARK    5  A    between atoms: N2_12  and  C9_14 
REMARK    6  A    between atoms: C9_14  and  C10_15 
REMARK    7  A    between atoms: C10_15  and  C11_16 
REMARK    8  A    between atoms: C12_18  and  C14_20 
REMARK       I    between atoms: C14_20  and  N3_22 
REMARK    9  A    between atoms: N3_22  and  C15_24 
REMARK   10  A    between atoms: C15_24  and  C16_25 
ROOT
HETATM    1  C1  UNL     1      15.385 -16.433  21.312  1.00  0.00     0.026 C 
HETATM    2  C2  UNL     1      14.974 -14.978  21.266  1.00  0.00     0.043 C 
HETATM    3  C3  UNL     1      13.781 -14.848  22.190  1.00  0.00     0.026 C 
HETATM    4  C4  UNL     1      16.025 -14.081  21.796  1.00  0.00     0.229 C 
HETATM    5  O1  UNL     1      16.390 -14.129  23.017  1.00  0.00    -0.272 OA
HETATM    6  N1  UNL     1      16.488 -13.248  20.765  1.00  0.00    -0.333 N 
HETATM    7  C12 UNL     1      15.391 -13.118  19.833  1.00  0.00     0.120 C 
HETATM    8  C13 UNL     1      15.988 -12.855  18.464  1.00  0.00     0.050 C 
HETATM    9  C17 UNL     1      14.737 -14.481  19.884  1.00  0.00     0.002 C 
HETATM   10  C18 UNL     1      15.441 -15.398  18.871  1.00  0.00     0.019 C 
HETATM   11  C19 UNL     1      13.292 -14.518  19.547  1.00  0.00     0.019 C 
ENDROOT
BRANCH   6  12
HETATM   12  C5  UNL     1      17.807 -12.676  20.695  1.00  0.00     0.128 C 
BRANCH  12  13
HETATM   13  C6  UNL     1      18.878 -13.639  20.328  1.00  0.00     0.029 C 
BRANCH  13  14
HETATM   14  C7  UNL     1      19.998 -13.599  21.319  1.00  0.00     0.104 C 
BRANCH  14  15
HETATM   15  C8  UNL     1      19.970 -14.649  22.362  1.00  0.00     0.217 C 
HETATM   16  O2  UNL     1      20.365 -15.803  22.107  1.00  0.00    -0.274 OA
HETATM   17  N2  UNL     1      19.496 -14.391  23.673  1.00  0.00    -0.361 N 
ATOM     18  H2  UNL     1      19.167 -13.450  23.884  1.00  0.00     0.162 HD
BRANCH  17  19
HETATM   19  C9  UNL     1      19.451 -15.363  24.715  1.00  0.00     0.125 C 
BRANCH  19  20
HETATM   20  C10 UNL     1      19.699 -14.792  26.076  1.00  0.00     0.051 C 
BRANCH  20  21
HETATM   21  C11 UNL     1      20.658 -13.620  25.962  1.00  0.00     0.224 C 
HETATM   22  F1  UNL     1      20.946 -13.162  27.237  1.00  0.00    -0.255 F 
ENDBRANCH  20  21
ENDBRANCH  19  20
ENDBRANCH  17  19
ENDBRANCH  14  15
ENDBRANCH  13  14
ENDBRANCH  12  13
ENDBRANCH   6  12
BRANCH   7  23
HETATM   23  C14 UNL     1      14.489 -12.001  20.153  1.00  0.00     0.247 C 
HETATM   24  O3  UNL     1      13.643 -11.530  19.321  1.00  0.00    -0.271 OA
HETATM   25  N3  UNL     1      14.497 -11.365  21.427  1.00  0.00    -0.349 N 
ATOM     26  H3  UNL     1      15.161 -11.700  22.125  1.00  0.00     0.163 HD
BRANCH  25  27
HETATM   27  C15 UNL     1      13.636 -10.293  21.783  1.00  0.00     0.235 C 
BRANCH  27  28
HETATM   28  C16 UNL     1      12.492 -10.619  22.641  1.00  0.00     0.191 C 
HETATM   29  O4  UNL     1      11.636 -11.509  22.456  1.00  0.00    -0.647 OA
HETATM   30  O5  UNL     1      12.339  -9.843  23.802  1.00  0.00    -0.647 OA
ENDBRANCH  27  28
ENDBRANCH  25  27
ENDBRANCH   7  23
TORSDOF 10
ENDMDL
MODEL 3
REMARK VINA RESULT: -7.638966110      1.020      1.262
REMARK  10 active torsions:
REMARK  status: ('A' for Active; 'I' for Inactive)
REMARK    1  A    between atoms: N1_6  and  C5_7 
REMARK    2  A    between atoms: C5_7  and  C6_8 
REMARK    3  A    between atoms: C6_8  and  C7_9 
REMARK    4  A    between atoms: C7_9  and  C8_10 
REMARK       I    between atoms: C8_10  and  N2_12 
REMARK    5  A    between atoms: N2_12  and  C9_14 
REMARK    6  A    between atoms: C9_14  and  C10_15 
REMARK    7  A    between atoms: C10_15  and  C11_16 
REMARK    8  A    between atoms: C12_18  and  C14_20 
REMARK       I    between atoms: C14_20  and  N3_22 
REMARK    9  A    between atoms: N3_22  and  C15_24 
REMARK   10  A    between atoms: C15_24  and  C16_25 
ROOT
HETATM    1  C1  UNL     1      15.486 -17.640  19.838  1.00  0.00     0.026 C 
HETATM    2  C2  UNL     1      15.114 -16.392  20.609  1.00  0.00     0.043 C 
HETATM    3  C3  UNL     1      14.347 -16.863  21.828  1.00  0.00     0.026 C 
HETATM    4  C4  UNL     1      16.302 -15.664  21.106  1.00  0.00     0.229 C 
HETATM    5  O1  UNL     1      17.090 -16.180  21.966  1.00  0.00    -0.272 OA
HETATM    6  N1  UNL     1      16.367 -14.406  20.488  1.00  0.00    -0.333 N 
HETATM    7  C12 UNL     1      15.007 -14.055  20.149  1.00  0.00     0.120 C 
HETATM    8  C13 UNL     1      15.062 -13.135  18.945  1.00  0.00     0.050 C 
HETATM    9  C17 UNL     1      14.393 -15.387  19.781  1.00  0.00     0.002 C 
HETATM   10  C18 UNL     1      14.658 -15.652  18.290  1.00  0.00     0.019 C 
HETATM   11  C19 UNL     1      12.925 -15.498  19.971  1.00  0.00     0.019 C 
ENDROOT
BRANCH   6  12
HETATM   12  C5  UNL     1      17.578 -13.663  20.252  1.00  0.00     0.128 C 
BRANCH  12  13
HETATM   13  C6  UNL     1      18.335 -13.311  21.481  1.00  0.00     0.029 C 
BRANCH  13  14
HETATM   14  C7  UNL     1      19.725 -13.862  21.432  1.00  0.00     0.104 C 
BRANCH  14  15
HETATM   15  C8  UNL     1      20.232 -14.437  22.698  1.00  0.00     0.217 C 
HETATM   16  O2  UNL     1      21.439 -14.348  22.995  1.00  0.00    -0.274 OA
HETATM   17  N2  UNL     1      19.378 -15.107  23.612  1.00  0.00    -0.361 N 
ATOM     18  H2  UNL     1      18.391 -15.187  23.371  1.00  0.00     0.162 HD
BRANCH  17  19
HETATM   19  C9  UNL     1      19.812 -15.674  24.845  1.00  0.00     0.125 C 
BRANCH  19  20
HETATM   20  C10 UNL     1      19.544 -14.802  26.032  1.00  0.00     0.051 C 
BRANCH  20  21
HETATM   21  C11 UNL     1      20.852 -14.200  26.517  1.00  0.00     0.224 C 
HETATM   22  F1  UNL     1      20.800 -12.828  26.332  1.00  0.00    -0.255 F 
ENDBRANCH  20  21
ENDBRANCH  19  20
ENDBRANCH  17  19
ENDBRANCH  14  15
ENDBRANCH  13  14
ENDBRANCH  12  13
ENDBRANCH   6  12
BRANCH   7  23
HETATM   23  C14 UNL     1      14.307 -13.342  21.228  1.00  0.00     0.247 C 
HETATM   24  O3  UNL     1      14.613 -13.473  22.461  1.00  0.00    -0.271 OA
HETATM   25  N3  UNL     1      13.232 -12.446  20.968  1.00  0.00    -0.349 N 
ATOM     26  H3  UNL     1      12.944 -12.312  19.998  1.00  0.00     0.163 HD
BRANCH  25  27
HETATM   27  C15 UNL     1      12.536 -11.727  21.977  1.00  0.00     0.235 C 
BRANCH  27  28
HETATM   28  C16 UNL     1      13.071 -10.411  22.340  1.00  0.00     0.191 C 
HETATM   29  O4  UNL     1      12.895  -9.790  23.408  1.00  0.00    -0.647 OA
HETATM   30  O5  UNL     1      13.871  -9.774  21.377  1.00  0.00    -0.647 OA
ENDBRANCH  27  28
ENDBRANCH  25  27
ENDBRANCH   7  23
TORSDOF 10
ENDMDL
MODEL 4
REMARK VINA RESULT: -7.453720306      1.094      1.300
REMARK  10 active torsions:
REMARK  status: ('A' for Active; 'I' for Inactive)
REMARK    1  A    between atoms: N1_6  and  C5_7 
REMARK    2  A    between atoms: C5_7  and  C6_8 
REMARK    3  A    between atoms: C6_8  and  C7_9 
REMARK    4  A    between atoms: C7_9  and  C8_10 
REMARK       I    between atoms: C8_10  and  N2_12 
REMARK    5  A    between atoms: N2_12  and  C9_14 
REMARK    6  A    between atoms: C9_14  and  C10_15 
REMARK    7  A    between atoms: C10_15  and  C11_16 
REMARK    8  A    between atoms: C12_18  and  C14_20 
REMARK       I    between atoms: C14_20  and  N3_22 
REMARK    9  A    between atoms: N3_22  and  C15_24 
REMARK   10  A    between atoms: C15_24  and  C16_25 
ROOT
HETATM    1  C1  UNL     1      15.308 -17.379  19.830  1.00  0.00     0.026 C 
HETATM    2  C2  UNL     1      15.060 -16.119  20.629  1.00  0.00     0.043 C 
HETATM    3  C3  UNL     1      14.277 -16.544  21.855  1.00  0.00     0.026 C 
HETATM    4  C4  UNL     1      16.315 -15.506  21.115  1.00  0.00     0.229 C 
HETATM    5  O1  UNL     1      17.071 -16.104  21.950  1.00  0.00    -0.272 OA
HETATM    6  N1  UNL     1      16.479 -14.246  20.517  1.00  0.00    -0.333 N 
HETATM    7  C12 UNL     1      15.148 -13.773  20.211  1.00  0.00     0.120 C 
HETATM    8  C13 UNL     1      15.262 -12.839  19.021  1.00  0.00     0.050 C 
HETATM    9  C17 UNL     1      14.414 -15.040  19.832  1.00  0.00     0.002 C 
HETATM   10  C18 UNL     1      14.628 -15.299  18.332  1.00  0.00     0.019 C 
HETATM   11  C19 UNL     1      12.946 -15.026  20.049  1.00  0.00     0.019 C 
ENDROOT
BRANCH   6  12
HETATM   12  C5  UNL     1      17.745 -13.607  20.270  1.00  0.00     0.128 C 
BRANCH  12  13
HETATM   13  C6  UNL     1      18.529 -13.296  21.494  1.00  0.00     0.029 C 
BRANCH  13  14
HETATM   14  C7  UNL     1      19.852 -13.993  21.476  1.00  0.00     0.104 C 
BRANCH  14  15
HETATM   15  C8  UNL     1      20.310 -14.533  22.775  1.00  0.00     0.217 C 
HETATM   16  O2  UNL     1      21.487 -14.368  23.150  1.00  0.00    -0.274 OA
HETATM   17  N2  UNL     1      19.442 -15.253  23.636  1.00  0.00    -0.361 N 
ATOM     18  H2  UNL     1      18.479 -15.396  23.331  1.00  0.00     0.162 HD
BRANCH  17  19
HETATM   19  C9  UNL     1      19.828 -15.790  24.898  1.00  0.00     0.125 C 
BRANCH  19  20
HETATM   20  C10 UNL     1      19.473 -14.911  26.056  1.00  0.00     0.051 C 
BRANCH  20  21
HETATM   21  C11 UNL     1      20.740 -14.301  26.630  1.00  0.00     0.224 C 
HETATM   22  F1  UNL     1      20.743 -12.945  26.346  1.00  0.00    -0.255 F 
ENDBRANCH  20  21
ENDBRANCH  19  20
ENDBRANCH  17  19
ENDBRANCH  14  15
ENDBRANCH  13  14
ENDBRANCH  12  13
ENDBRANCH   6  12
BRANCH   7  23
HETATM   23  C14 UNL     1      14.533 -13.022  21.316  1.00  0.00     0.247 C 
HETATM   24  O3  UNL     1      14.767 -13.277  22.545  1.00  0.00    -0.271 OA
HETATM   25  N3  UNL     1      13.628 -11.947  21.086  1.00  0.00    -0.349 N 
ATOM     26  H3  UNL     1      13.403 -11.709  20.120  1.00  0.00     0.163 HD
BRANCH  25  27
HETATM   27  C15 UNL     1      13.020 -11.187  22.121  1.00  0.00     0.235 C 
BRANCH  27  28
HETATM   28  C16 UNL     1      11.809 -11.746  22.730  1.00  0.00     0.191 C 
HETATM   29  O4  UNL     1      11.253 -12.830  22.455  1.00  0.00    -0.647 OA
HETATM   30  O5  UNL     1      11.203 -10.977  23.737  1.00  0.00    -0.647 OA
ENDBRANCH  27  28
ENDBRANCH  25  27
ENDBRANCH   7  23
TORSDOF 10
ENDMDL
MODEL 5
REMARK VINA RESULT: -7.444232231      1.269      1.763
REMARK  10 active torsions:
REMARK  status: ('A' for Active; 'I' for Inactive)
REMARK    1  A    between atoms: N1_6  and  C5_7 
REMARK    2  A    between atoms: C5_7  and  C6_8 
REMARK    3  A    between atoms: C6_8  and  C7_9 
REMARK    4  A    between atoms: C7_9  and  C8_10 
REMARK       I    between atoms: C8_10  and  N2_12 
REMARK    5  A    between atoms: N2_12  and  C9_14 
REMARK    6  A    between atoms: C9_14  and  C10_15 
REMARK    7  A    between atoms: C10_15  and  C11_16 
REMARK    8  A    between atoms: C12_18  and  C14_20 
REMARK       I    between atoms: C14_20  and  N3_22 
REMARK    9  A    between atoms: N3_22  and  C15_24 
REMARK   10  A    between atoms: C15_24  and  C16_25 
ROOT
HETATM    1  C1  UNL     1      15.349 -15.599  18.186  1.00  0.00     0.026 C 
HETATM    2  C2  UNL     1      14.641 -14.991  19.376  1.00  0.00     0.043 C 
HETATM    3  C3  UNL     1      13.183 -15.384  19.244  1.00  0.00     0.026 C 
HETATM    4  C4  UNL     1      15.119 -15.548  20.660  1.00  0.00     0.229 C 
HETATM    5  O1  UNL     1      14.952 -16.777  20.958  1.00  0.00    -0.272 OA
HETATM    6  N1  UNL     1      15.736 -14.532  21.406  1.00  0.00    -0.333 N 
HETATM    7  C12 UNL     1      15.123 -13.294  20.981  1.00  0.00     0.120 C 
HETATM    8  C13 UNL     1      16.139 -12.189  21.189  1.00  0.00     0.050 C 
HETATM    9  C17 UNL     1      14.873 -13.527  19.508  1.00  0.00     0.002 C 
HETATM   10  C18 UNL     1      16.135 -13.125  18.728  1.00  0.00     0.019 C 
HETATM   11  C19 UNL     1      13.752 -12.756  18.913  1.00  0.00     0.019 C 
ENDROOT
BRANCH   6  12
HETATM   12  C5  UNL     1      16.778 -14.737  22.378  1.00  0.00     0.128 C 
BRANCH  12  13
HETATM   13  C6  UNL     1      18.024 -15.333  21.831  1.00  0.00     0.029 C 
BRANCH  13  14
HETATM   14  C7  UNL     1      19.181 -14.397  21.987  1.00  0.00     0.104 C 
BRANCH  14  15
HETATM   15  C8  UNL     1      20.082 -14.674  23.127  1.00  0.00     0.217 C 
HETATM   16  O2  UNL     1      21.287 -14.363  23.072  1.00  0.00    -0.274 OA
HETATM   17  N2  UNL     1      19.619 -15.299  24.314  1.00  0.00    -0.361 N 
ATOM     18  H2  UNL     1      18.635 -15.560  24.362  1.00  0.00     0.162 HD
BRANCH  17  19
HETATM   19  C9  UNL     1      20.441 -15.585  25.442  1.00  0.00     0.125 C 
BRANCH  19  20
HETATM   20  C10 UNL     1      20.006 -14.885  26.691  1.00  0.00     0.051 C 
BRANCH  20  21
HETATM   21  C11 UNL     1      20.989 -13.770  27.010  1.00  0.00     0.224 C 
HETATM   22  F1  UNL     1      20.810 -12.750  26.090  1.00  0.00    -0.255 F 
ENDBRANCH  20  21
ENDBRANCH  19  20
ENDBRANCH  17  19
ENDBRANCH  14  15
ENDBRANCH  13  14
ENDBRANCH  12  13
ENDBRANCH   6  12
BRANCH   7  23
HETATM   23  C14 UNL     1      13.919 -12.950  21.754  1.00  0.00     0.247 C 
HETATM   24  O3  UNL     1      13.439 -13.704  22.666  1.00  0.00    -0.271 OA
HETATM   25  N3  UNL     1      13.204 -11.739  21.536  1.00  0.00    -0.349 N 
ATOM     26  H3  UNL     1      13.543 -11.105  20.813  1.00  0.00     0.163 HD
BRANCH  25  27
HETATM   27  C15 UNL     1      12.045 -11.360  22.267  1.00  0.00     0.235 C 
BRANCH  27  28
HETATM   28  C16 UNL     1      12.253 -10.508  23.443  1.00  0.00     0.191 C 
HETATM   29  O4  UNL     1      12.987  -9.502  23.530  1.00  0.00    -0.647 OA
HETATM   30  O5  UNL     1      11.548 -10.863  24.605  1.00  0.00    -0.647 OA
ENDBRANCH  27  28
ENDBRANCH  25  27
ENDBRANCH   7  23
TORSDOF 10
ENDMDL
