MODEL 1
REMARK VINA RESULT: -6.990275105      0.000      0.000
REMARK  11 active torsions:
REMARK  status: ('A' for Active; 'I' for Inactive)
REMARK    1  A    between atoms: C2_2  and  C3_3 
REMARK    2  A    between atoms: C8_10  and  N2_11 
REMARK    3  A    between atoms: N2_11  and  C9_13 
REMARK    4  A    between atoms: C9_13  and  C10_14 
REMARK    5  A    between atoms: C10_14  and  N3_15 
REMARK    6  A    between atoms: N3_15  and  C11_17 
REMARK    7  A    between atoms: C11_17  and  C12_18 
REMARK    8  A    between atoms: C12_18  and  N4_19 
REMARK       I    between atoms: N4_19  and  C13_21 
REMARK    9  A    between atoms: C13_21  and  C14_23 
REMARK   10  A    between atoms: C14_23  and  N5_24 
REMARK   11  A    between atoms: N5_24  and  C17_27 
ROOT
HETATM    1  C9  UNL     1      16.665 -18.293  23.929  1.00  0.00     0.139 C 
ENDROOT
BRANCH   1   2
HETATM    2  N2  UNL     1      17.014 -16.984  24.092  1.00  0.00    -0.387 N 
ATOM      3  H2  UNL     1      16.184 -16.464  24.377  1.00  0.00     0.159 HD
BRANCH   2   4
HETATM    4  C8  UNL     1      17.972 -16.186  24.024  1.00  0.00     0.055 A 
HETATM    5  C6  UNL     1      18.367 -15.584  22.860  1.00  0.00    -0.012 A 
HETATM    6  C4  UNL     1      19.470 -14.714  22.887  1.00  0.00     0.013 A 
HETATM    7  C7  UNL     1      17.691 -15.803  21.567  1.00  0.00     0.052 C 
HETATM    8  N1  UNL     1      20.153 -14.447  24.009  1.00  0.00    -0.362 N 
HETATM    9  C5  UNL     1      19.876 -14.081  21.606  1.00  0.00     0.068 C 
HETATM   10  C3  UNL     1      19.794 -15.019  25.170  1.00  0.00     0.029 A 
ATOM     11  H1  UNL     1      20.948 -13.808  23.981  1.00  0.00     0.165 HD
HETATM   12  C19 UNL     1      18.727 -15.871  25.182  1.00  0.00     0.060 A 
HETATM   13 BR1  UNL     1      18.251 -16.675  26.823  1.00  0.00    -0.047 Br
BRANCH  10  14
HETATM   14  C2  UNL     1      20.580 -14.710  26.414  1.00  0.00     0.054 C 
HETATM   15  C1  UNL     1      20.956 -13.246  26.450  1.00  0.00     0.011 C 
ENDBRANCH  10  14
ENDBRANCH   2   4
ENDBRANCH   1   2
BRANCH   1  16
HETATM   16  C10 UNL     1      15.153 -18.426  23.676  1.00  0.00     0.133 C 
BRANCH  16  17
HETATM   17  N3  UNL     1      14.625 -17.339  22.934  1.00  0.00    -0.418 N 
ATOM     18  H3  UNL     1      14.661 -16.376  23.270  1.00  0.00     0.153 HD
BRANCH  17  19
HETATM   19  C11 UNL     1      14.027 -17.701  21.653  1.00  0.00     0.133 C 
BRANCH  19  20
HETATM   20  C12 UNL     1      12.760 -16.926  21.520  1.00  0.00     0.141 C 
BRANCH  20  21
HETATM   21  N4  UNL     1      12.783 -15.598  22.062  1.00  0.00    -0.358 N 
HETATM   22  C13 UNL     1      12.383 -14.509  21.252  1.00  0.00     0.243 C 
HETATM   23  O1  UNL     1      12.010 -14.777  20.062  1.00  0.00    -0.272 OA
ATOM     24  H4  UNL     1      13.086 -15.441  23.023  1.00  0.00     0.162 HD
BRANCH  22  25
HETATM   25  C14 UNL     1      12.380 -13.120  21.715  1.00  0.00     0.338 C 
BRANCH  25  26
HETATM   26  N5  UNL     1      13.500 -12.321  21.295  1.00  0.00    -0.067 N 
HETATM   27  C15 UNL     1      13.612 -12.185  19.872  1.00  0.00     0.272 C 
HETATM   28  C16 UNL     1      14.713 -12.966  21.790  1.00  0.00     0.272 C 
BRANCH  26  29
HETATM   29  C17 UNL     1      13.391 -11.009  21.914  1.00  0.00     0.232 C 
HETATM   30  C18 UNL     1      12.105 -10.786  22.635  1.00  0.00     0.035 C 
ENDBRANCH  26  29
ENDBRANCH  25  26
ENDBRANCH  22  25
ENDBRANCH  20  21
ENDBRANCH  19  20
ENDBRANCH  17  19
ENDBRANCH  16  17
ENDBRANCH   1  16
TORSDOF 11
ENDMDL
MODEL 2
REMARK VINA RESULT: -6.862000258      0.329      1.249
REMARK  11 active torsions:
REMARK  status: ('A' for Active; 'I' for Inactive)
REMARK    1  A    between atoms: C2_2  and  C3_3 
REMARK    2  A    between atoms: C8_10  and  N2_11 
REMARK    3  A    between atoms: N2_11  and  C9_13 
REMARK    4  A    between atoms: C9_13  and  C10_14 
REMARK    5  A    between atoms: C10_14  and  N3_15 
REMARK    6  A    between atoms: N3_15  and  C11_17 
REMARK    7  A    between atoms: C11_17  and  C12_18 
REMARK    8  A    between atoms: C12_18  and  N4_19 
REMARK       I    between atoms: N4_19  and  C13_21 
REMARK    9  A    between atoms: C13_21  and  C14_23 
REMARK   10  A    between atoms: C14_23  and  N5_24 
REMARK   11  A    between atoms: N5_24  and  C17_27 
ROOT
HETATM    1  C9  UNL     1      16.704 -18.315  23.973  1.00  0.00     0.139 C 
ENDROOT
BRANCH   1   2
HETATM    2  N2  UNL     1      17.045 -17.002  24.128  1.00  0.00    -0.387 N 
ATOM      3  H2  UNL     1      16.210 -16.484  24.402  1.00  0.00     0.159 HD
BRANCH   2   4
HETATM    4  C8  UNL     1      17.998 -16.199  24.060  1.00  0.00     0.055 A 
HETATM    5  C6  UNL     1      18.394 -15.600  22.895  1.00  0.00    -0.012 A 
HETATM    6  C4  UNL     1      19.492 -14.723  22.922  1.00  0.00     0.013 A 
HETATM    7  C7  UNL     1      17.723 -15.827  21.601  1.00  0.00     0.052 C 
HETATM    8  N1  UNL     1      20.171 -14.448  24.045  1.00  0.00    -0.362 N 
HETATM    9  C5  UNL     1      19.898 -14.093  21.639  1.00  0.00     0.068 C 
HETATM   10  C3  UNL     1      19.811 -15.018  25.207  1.00  0.00     0.029 A 
ATOM     11  H1  UNL     1      20.962 -13.805  24.017  1.00  0.00     0.165 HD
HETATM   12  C19 UNL     1      18.749 -15.876  25.219  1.00  0.00     0.060 A 
HETATM   13 BR1  UNL     1      18.272 -16.676  26.861  1.00  0.00    -0.047 Br
BRANCH  10  14
HETATM   14  C2  UNL     1      20.591 -14.700  26.452  1.00  0.00     0.054 C 
HETATM   15  C1  UNL     1      20.969 -13.236  26.478  1.00  0.00     0.011 C 
ENDBRANCH  10  14
ENDBRANCH   2   4
ENDBRANCH   1   2
BRANCH   1  16
HETATM   16  C10 UNL     1      15.197 -18.457  23.698  1.00  0.00     0.133 C 
BRANCH  16  17
HETATM   17  N3  UNL     1      14.670 -17.365  22.965  1.00  0.00    -0.418 N 
ATOM     18  H3  UNL     1      14.712 -16.404  23.306  1.00  0.00     0.153 HD
BRANCH  17  19
HETATM   19  C11 UNL     1      14.061 -17.717  21.686  1.00  0.00     0.133 C 
BRANCH  19  20
HETATM   20  C12 UNL     1      12.784 -16.956  21.578  1.00  0.00     0.141 C 
BRANCH  20  21
HETATM   21  N4  UNL     1      12.825 -15.601  22.045  1.00  0.00    -0.358 N 
HETATM   22  C13 UNL     1      12.397 -14.556  21.192  1.00  0.00     0.243 C 
HETATM   23  O1  UNL     1      11.984 -14.888  20.031  1.00  0.00    -0.272 OA
ATOM     24  H4  UNL     1      13.160 -15.392  22.986  1.00  0.00     0.162 HD
BRANCH  22  25
HETATM   25  C14 UNL     1      12.409 -13.144  21.579  1.00  0.00     0.338 C 
BRANCH  25  26
HETATM   26  N5  UNL     1      13.608 -12.419  21.251  1.00  0.00    -0.067 N 
HETATM   27  C15 UNL     1      14.808 -13.038  21.732  1.00  0.00     0.272 C 
HETATM   28  C16 UNL     1      13.502 -11.094  21.856  1.00  0.00     0.272 C 
BRANCH  26  29
HETATM   29  C17 UNL     1      13.673 -12.262  19.806  1.00  0.00     0.232 C 
HETATM   30  C18 UNL     1      14.941 -12.759  19.200  1.00  0.00     0.035 C 
ENDBRANCH  26  29
ENDBRANCH  25  26
ENDBRANCH  22  25
ENDBRANCH  20  21
ENDBRANCH  19  20
ENDBRANCH  17  19
ENDBRANCH  16  17
ENDBRANCH   1  16
TORSDOF 11
ENDMDL
MODEL 3
REMARK VINA RESULT: -6.622910308      1.220      2.506
REMARK  11 active torsions:
REMARK  status: ('A' for Active; 'I' for Inactive)
REMARK    1  A    between atoms: C2_2  and  C3_3 
REMARK    2  A    between atoms: C8_10  and  N2_11 
REMARK    3  A    between atoms: N2_11  and  C9_13 
REMARK    4  A    between atoms: C9_13  and  C10_14 
REMARK    5  A    between atoms: C10_14  and  N3_15 
REMARK    6  A    between atoms: N3_15  and  C11_17 
REMARK    7  A    between atoms: C11_17  and  C12_18 
REMARK    8  A    between atoms: C12_18  and  N4_19 
REMARK       I    between atoms: N4_19  and  C13_21 
REMARK    9  A    between atoms: C13_21  and  C14_23 
REMARK   10  A    between atoms: C14_23  and  N5_24 
REMARK   11  A    between atoms: N5_24  and  C17_27 
ROOT
HETATM    1  C9  UNL     1      16.803 -18.199  24.378  1.00  0.00     0.139 C 
ENDROOT
BRANCH   1   2
HETATM    2  N2  UNL     1      17.084 -16.865  24.297  1.00  0.00    -0.387 N 
ATOM      3  H2  UNL     1      16.203 -16.351  24.319  1.00  0.00     0.159 HD
BRANCH   2   4
HETATM    4  C8  UNL     1      18.016 -16.041  24.207  1.00  0.00     0.055 A 
HETATM    5  C6  UNL     1      18.714 -15.573  25.288  1.00  0.00    -0.012 A 
HETATM    6  C4  UNL     1      19.736 -14.632  25.080  1.00  0.00     0.013 A 
HETATM    7  C7  UNL     1      18.446 -16.009  26.672  1.00  0.00     0.052 C 
HETATM    8  N1  UNL     1      20.058 -14.170  23.864  1.00  0.00    -0.362 N 
HETATM    9  C5  UNL     1      20.470 -14.141  26.275  1.00  0.00     0.068 C 
HETATM   10  C3  UNL     1      19.395 -14.606  22.780  1.00  0.00     0.029 A 
ATOM     11  H1  UNL     1      20.809 -13.487  23.760  1.00  0.00     0.165 HD
HETATM   12  C19 UNL     1      18.395 -15.522  22.942  1.00  0.00     0.060 A 
HETATM   13 BR1  UNL     1      17.469 -16.108  21.406  1.00  0.00    -0.047 Br
BRANCH  10  14
HETATM   14  C2  UNL     1      19.770 -14.070  21.425  1.00  0.00     0.054 C 
HETATM   15  C1  UNL     1      18.901 -12.885  21.069  1.00  0.00     0.011 C 
ENDBRANCH  10  14
ENDBRANCH   2   4
ENDBRANCH   1   2
BRANCH   1  16
HETATM   16  C10 UNL     1      15.353 -18.477  23.946  1.00  0.00     0.133 C 
BRANCH  16  17
HETATM   17  N3  UNL     1      14.756 -17.371  23.290  1.00  0.00    -0.418 N 
ATOM     18  H3  UNL     1      14.739 -16.436  23.697  1.00  0.00     0.153 HD
BRANCH  17  19
HETATM   19  C11 UNL     1      14.166 -17.671  21.990  1.00  0.00     0.133 C 
BRANCH  19  20
HETATM   20  C12 UNL     1      12.996 -16.765  21.813  1.00  0.00     0.141 C 
BRANCH  20  21
HETATM   21  N4  UNL     1      13.165 -15.428  22.305  1.00  0.00    -0.358 N 
HETATM   22  C13 UNL     1      12.644 -14.341  21.563  1.00  0.00     0.243 C 
HETATM   23  O1  UNL     1      12.035 -14.620  20.477  1.00  0.00    -0.272 OA
ATOM     24  H4  UNL     1      13.657 -15.263  23.183  1.00  0.00     0.162 HD
BRANCH  22  25
HETATM   25  C14 UNL     1      12.773 -12.945  21.982  1.00  0.00     0.338 C 
BRANCH  25  26
HETATM   26  N5  UNL     1      13.778 -12.178  21.293  1.00  0.00    -0.067 N 
HETATM   27  C15 UNL     1      13.627 -12.178  19.867  1.00  0.00     0.272 C 
HETATM   28  C16 UNL     1      15.077 -12.762  21.616  1.00  0.00     0.272 C 
BRANCH  26  29
HETATM   29  C17 UNL     1      13.746 -10.814  21.799  1.00  0.00     0.232 C 
HETATM   30  C18 UNL     1      12.632 -10.549  22.753  1.00  0.00     0.035 C 
ENDBRANCH  26  29
ENDBRANCH  25  26
ENDBRANCH  22  25
ENDBRANCH  20  21
ENDBRANCH  19  20
ENDBRANCH  17  19
ENDBRANCH  16  17
ENDBRANCH   1  16
TORSDOF 11
ENDMDL
MODEL 4
REMARK VINA RESULT: -6.610759816      3.101      8.102
REMARK  11 active torsions:
REMARK  status: ('A' for Active; 'I' for Inactive)
REMARK    1  A    between atoms: C2_2  and  C3_3 
REMARK    2  A    between atoms: C8_10  and  N2_11 
REMARK    3  A    between atoms: N2_11  and  C9_13 
REMARK    4  A    between atoms: C9_13  and  C10_14 
REMARK    5  A    between atoms: C10_14  and  N3_15 
REMARK    6  A    between atoms: N3_15  and  C11_17 
REMARK    7  A    between atoms: C11_17  and  C12_18 
REMARK    8  A    between atoms: C12_18  and  N4_19 
REMARK       I    between atoms: N4_19  and  C13_21 
REMARK    9  A    between atoms: C13_21  and  C14_23 
REMARK   10  A    between atoms: C14_23  and  N5_24 
REMARK   11  A    between atoms: N5_24  and  C17_27 
ROOT
HETATM    1  C9  UNL     1      16.427 -12.437  19.707  1.00  0.00     0.139 C 
ENDROOT
BRANCH   1   2
HETATM    2  N2  UNL     1      15.061 -12.444  19.706  1.00  0.00    -0.387 N 
ATOM      3  H2  UNL     1      14.739 -11.852  18.940  1.00  0.00     0.159 HD
BRANCH   2   4
HETATM    4  C8  UNL     1      14.061 -12.903  20.294  1.00  0.00     0.055 A 
HETATM    5  C6  UNL     1      13.375 -12.219  21.261  1.00  0.00    -0.012 A 
HETATM    6  C4  UNL     1      12.271 -12.833  21.874  1.00  0.00     0.013 A 
HETATM    7  C7  UNL     1      13.739 -10.857  21.697  1.00  0.00     0.052 C 
HETATM    8  N1  UNL     1      11.859 -14.067  21.551  1.00  0.00    -0.362 N 
HETATM    9  C5  UNL     1      11.553 -12.064  22.923  1.00  0.00     0.068 C 
HETATM   10  C3  UNL     1      12.507 -14.770  20.607  1.00  0.00     0.029 A 
ATOM     11  H1  UNL     1      11.051 -14.474  22.023  1.00  0.00     0.165 HD
HETATM   12  C19 UNL     1      13.585 -14.205  19.989  1.00  0.00     0.060 A 
HETATM   13 BR1  UNL     1      14.488 -15.217  18.676  1.00  0.00    -0.047 Br
BRANCH  10  14
HETATM   14  C2  UNL     1      12.030 -16.155  20.266  1.00  0.00     0.054 C 
HETATM   15  C1  UNL     1      12.509 -17.147  21.302  1.00  0.00     0.011 C 
ENDBRANCH  10  14
ENDBRANCH   2   4
ENDBRANCH   1   2
BRANCH   1  16
HETATM   16  C10 UNL     1      16.973 -12.980  21.039  1.00  0.00     0.133 C 
BRANCH  16  17
HETATM   17  N3  UNL     1      17.714 -14.178  20.878  1.00  0.00    -0.418 N 
ATOM     18  H3  UNL     1      18.577 -14.221  20.336  1.00  0.00     0.153 HD
BRANCH  17  19
HETATM   19  C11 UNL     1      17.149 -15.346  21.547  1.00  0.00     0.133 C 
BRANCH  19  20
HETATM   20  C12 UNL     1      18.284 -16.112  22.137  1.00  0.00     0.141 C 
BRANCH  20  21
HETATM   21  N4  UNL     1      18.801 -15.604  23.374  1.00  0.00    -0.358 N 
HETATM   22  C13 UNL     1      19.965 -14.799  23.365  1.00  0.00     0.243 C 
HETATM   23  O1  UNL     1      20.497 -14.562  22.230  1.00  0.00    -0.272 OA
ATOM     24  H4  UNL     1      18.333 -15.821  24.254  1.00  0.00     0.162 HD
BRANCH  22  25
HETATM   25  C14 UNL     1      20.569 -14.242  24.576  1.00  0.00     0.338 C 
BRANCH  25  26
HETATM   26  N5  UNL     1      21.740 -14.925  25.059  1.00  0.00    -0.067 N 
HETATM   27  C15 UNL     1      22.967 -14.421  24.517  1.00  0.00     0.272 C 
HETATM   28  C16 UNL     1      21.616 -16.331  24.684  1.00  0.00     0.272 C 
BRANCH  26  29
HETATM   29  C17 UNL     1      21.762 -14.836  26.512  1.00  0.00     0.232 C 
HETATM   30  C18 UNL     1      20.960 -13.705  27.060  1.00  0.00     0.035 C 
ENDBRANCH  26  29
ENDBRANCH  25  26
ENDBRANCH  22  25
ENDBRANCH  20  21
ENDBRANCH  19  20
ENDBRANCH  17  19
ENDBRANCH  16  17
ENDBRANCH   1  16
TORSDOF 11
ENDMDL
MODEL 5
REMARK VINA RESULT: -6.581160886      3.044      8.136
REMARK  11 active torsions:
REMARK  status: ('A' for Active; 'I' for Inactive)
REMARK    1  A    between atoms: C2_2  and  C3_3 
REMARK    2  A    between atoms: C8_10  and  N2_11 
REMARK    3  A    between atoms: N2_11  and  C9_13 
REMARK    4  A    between atoms: C9_13  and  C10_14 
REMARK    5  A    between atoms: C10_14  and  N3_15 
REMARK    6  A    between atoms: N3_15  and  C11_17 
REMARK    7  A    between atoms: C11_17  and  C12_18 
REMARK    8  A    between atoms: C12_18  and  N4_19 
REMARK       I    between atoms: N4_19  and  C13_21 
REMARK    9  A    between atoms: C13_21  and  C14_23 
REMARK   10  A    between atoms: C14_23  and  N5_24 
REMARK   11  A    between atoms: N5_24  and  C17_27 
ROOT
HETATM    1  C9  UNL     1      16.401 -12.477  19.649  1.00  0.00     0.139 C 
ENDROOT
BRANCH   1   2
HETATM    2  N2  UNL     1      15.040 -12.403  19.717  1.00  0.00    -0.387 N 
ATOM      3  H2  UNL     1      14.722 -11.717  19.032  1.00  0.00     0.159 HD
BRANCH   2   4
HETATM    4  C8  UNL     1      14.039 -12.861  20.305  1.00  0.00     0.055 A 
HETATM    5  C6  UNL     1      13.354 -12.174  21.271  1.00  0.00    -0.012 A 
HETATM    6  C4  UNL     1      12.249 -12.787  21.885  1.00  0.00     0.013 A 
HETATM    7  C7  UNL     1      13.717 -10.811  21.703  1.00  0.00     0.052 C 
HETATM    8  N1  UNL     1      11.837 -14.022  21.565  1.00  0.00    -0.362 N 
HETATM    9  C5  UNL     1      11.531 -12.016  22.932  1.00  0.00     0.068 C 
HETATM   10  C3  UNL     1      12.485 -14.726  20.623  1.00  0.00     0.029 A 
ATOM     11  H1  UNL     1      11.029 -14.427  22.038  1.00  0.00     0.165 HD
HETATM   12  C19 UNL     1      13.563 -14.163  20.004  1.00  0.00     0.060 A 
HETATM   13 BR1  UNL     1      14.467 -15.179  18.694  1.00  0.00    -0.047 Br
BRANCH  10  14
HETATM   14  C2  UNL     1      12.008 -16.112  20.285  1.00  0.00     0.054 C 
HETATM   15  C1  UNL     1      12.539 -17.112  21.288  1.00  0.00     0.011 C 
ENDBRANCH  10  14
ENDBRANCH   2   4
ENDBRANCH   1   2
BRANCH   1  16
HETATM   16  C10 UNL     1      16.989 -12.941  20.993  1.00  0.00     0.133 C 
BRANCH  16  17
HETATM   17  N3  UNL     1      18.342 -12.551  21.162  1.00  0.00    -0.418 N 
ATOM     18  H3  UNL     1      18.628 -11.843  21.839  1.00  0.00     0.153 HD
BRANCH  17  19
HETATM   19  C11 UNL     1      19.294 -13.237  20.295  1.00  0.00     0.133 C 
BRANCH  19  20
HETATM   20  C12 UNL     1      19.768 -14.447  21.025  1.00  0.00     0.141 C 
BRANCH  20  21
HETATM   21  N4  UNL     1      20.250 -14.220  22.357  1.00  0.00    -0.358 N 
HETATM   22  C13 UNL     1      19.470 -14.637  23.461  1.00  0.00     0.243 C 
HETATM   23  O1  UNL     1      18.359 -15.209  23.203  1.00  0.00    -0.272 OA
ATOM     24  H4  UNL     1      21.149 -13.761  22.506  1.00  0.00     0.162 HD
BRANCH  22  25
HETATM   25  C14 UNL     1      19.877 -14.443  24.854  1.00  0.00     0.338 C 
BRANCH  25  26
HETATM   26  N5  UNL     1      20.628 -15.521  25.440  1.00  0.00    -0.067 N 
HETATM   27  C15 UNL     1      21.407 -16.264  24.494  1.00  0.00     0.272 C 
HETATM   28  C16 UNL     1      19.674 -16.434  26.065  1.00  0.00     0.272 C 
BRANCH  26  29
HETATM   29  C17 UNL     1      21.490 -14.974  26.477  1.00  0.00     0.232 C 
HETATM   30  C18 UNL     1      21.027 -13.665  27.020  1.00  0.00     0.035 C 
ENDBRANCH  26  29
ENDBRANCH  25  26
ENDBRANCH  22  25
ENDBRANCH  20  21
ENDBRANCH  19  20
ENDBRANCH  17  19
ENDBRANCH  16  17
ENDBRANCH   1  16
TORSDOF 11
ENDMDL
