MODEL 1
REMARK VINA RESULT: -5.615448420      0.000      0.000
REMARK  6 active torsions:
REMARK  status: ('A' for Active; 'I' for Inactive)
REMARK    1  A    between atoms: C2_2  and  C3_3 
REMARK    2  A    between atoms: C3_3  and  N1_4 
REMARK    3  A    between atoms: N1_4  and  C4_7 
REMARK    4  A    between atoms: C4_7  and  C5_8 
REMARK    5  A    between atoms: C5_8  and  N2_9 
REMARK    6  A    between atoms: N2_9  and  C6_12 
ROOT
HETATM    1  N2  UNL     1      81.237  44.187  -9.144  1.00  0.00    -0.043 N 
ATOM      2  H21 UNL     1      80.394  44.759  -9.206  1.00  0.00     0.279 HD
ATOM      3  H22 UNL     1      80.822  43.340  -8.754  1.00  0.00     0.279 HD
ENDROOT
BRANCH   1   4
HETATM    4  C5  UNL     1      82.211  44.768  -8.244  1.00  0.00     0.262 C 
BRANCH   4   5
HETATM    5  C4  UNL     1      83.541  44.057  -8.439  1.00  0.00     0.260 C 
BRANCH   5   6
HETATM    6  N1  UNL     1      84.594  44.746  -7.699  1.00  0.00    -0.070 N 
ATOM      7  H12 UNL     1      84.423  44.799  -6.694  1.00  0.00     0.277 HD
ATOM      8  H11 UNL     1      84.624  45.751  -7.868  1.00  0.00     0.277 HD
BRANCH   6   9
HETATM    9  C3  UNL     1      85.839  44.046  -8.052  1.00  0.00     0.259 C 
BRANCH   9  10
HETATM   10  C2  UNL     1      86.704  44.011  -6.846  1.00  0.00    -0.010 C 
HETATM   11  C1  UNL     1      86.867  45.101  -6.137  1.00  0.00     0.008 C 
ENDBRANCH   9  10
ENDBRANCH   6   9
ENDBRANCH   5   6
ENDBRANCH   4   5
ENDBRANCH   1   4
BRANCH   1  12
HETATM   12  C6  UNL     1      81.809  43.948 -10.437  1.00  0.00     0.408 C 
HETATM   13  C7  UNL     1      80.937  43.130 -11.356  1.00  0.00     0.294 C 
HETATM   14  N3  UNL     1      80.663  43.837 -12.599  1.00  0.00    -0.070 N 
HETATM   15  C8  UNL     1      81.852  44.262 -13.279  1.00  0.00     0.260 C 
ATOM     16  H32 UNL     1      80.074  43.277 -13.215  1.00  0.00     0.277 HD
ATOM     17  H31 UNL     1      80.035  44.625 -12.439  1.00  0.00     0.277 HD
HETATM   18  C9  UNL     1      82.829  44.869 -12.298  1.00  0.00     0.262 C 
HETATM   19  N4  UNL     1      82.064  45.217 -11.103  1.00  0.00    -0.043 N 
ATOM     20  H42 UNL     1      81.222  45.760 -11.295  1.00  0.00     0.279 HD
ATOM     21  H41 UNL     1      82.518  45.912 -10.510  1.00  0.00     0.279 HD
ENDBRANCH   1  12
TORSDOF 6
ENDMDL
MODEL 2
REMARK VINA RESULT: -5.585616363      1.171      1.792
REMARK  6 active torsions:
REMARK  status: ('A' for Active; 'I' for Inactive)
REMARK    1  A    between atoms: C2_2  and  C3_3 
REMARK    2  A    between atoms: C3_3  and  N1_4 
REMARK    3  A    between atoms: N1_4  and  C4_7 
REMARK    4  A    between atoms: C4_7  and  C5_8 
REMARK    5  A    between atoms: C5_8  and  N2_9 
REMARK    6  A    between atoms: N2_9  and  C6_12 
ROOT
HETATM    1  N2  UNL     1      82.237  45.105 -10.281  1.00  0.00    -0.043 N 
ATOM      2  H21 UNL     1      81.605  45.806  -9.893  1.00  0.00     0.279 HD
ATOM      3  H22 UNL     1      81.774  44.267  -9.930  1.00  0.00     0.279 HD
ENDROOT
BRANCH   1   4
HETATM    4  C5  UNL     1      83.576  45.239  -9.747  1.00  0.00     0.262 C 
BRANCH   4   5
HETATM    5  C4  UNL     1      83.748  44.249  -8.606  1.00  0.00     0.260 C 
BRANCH   5   6
HETATM    6  N1  UNL     1      84.756  44.733  -7.667  1.00  0.00    -0.070 N 
ATOM      7  H12 UNL     1      84.463  44.690  -6.691  1.00  0.00     0.277 HD
ATOM      8  H11 UNL     1      84.901  45.742  -7.704  1.00  0.00     0.277 HD
BRANCH   6   9
HETATM    9  C3  UNL     1      85.966  43.948  -7.958  1.00  0.00     0.259 C 
BRANCH   9  10
HETATM   10  C2  UNL     1      86.842  43.994  -6.760  1.00  0.00    -0.010 C 
HETATM   11  C1  UNL     1      86.922  45.100  -6.062  1.00  0.00     0.008 C 
ENDBRANCH   9  10
ENDBRANCH   6   9
ENDBRANCH   5   6
ENDBRANCH   4   5
ENDBRANCH   1   4
BRANCH   1  12
HETATM   12  C6  UNL     1      82.248  45.141 -11.715  1.00  0.00     0.408 C 
HETATM   13  C7  UNL     1      83.624  45.037 -12.324  1.00  0.00     0.294 C 
HETATM   14  N3  UNL     1      83.715  43.914 -13.245  1.00  0.00    -0.070 N 
HETATM   15  C8  UNL     1      82.712  43.943 -14.269  1.00  0.00     0.260 C 
ATOM     16  H32 UNL     1      84.648  43.852 -13.653  1.00  0.00     0.277 HD
ATOM     17  H31 UNL     1      83.694  43.027 -12.741  1.00  0.00     0.277 HD
HETATM   18  C9  UNL     1      81.365  44.288 -13.676  1.00  0.00     0.262 C 
HETATM   19  N4  UNL     1      81.461  44.035 -12.240  1.00  0.00    -0.043 N 
ATOM     20  H42 UNL     1      81.834  43.115 -12.007  1.00  0.00     0.279 HD
ATOM     21  H41 UNL     1      80.558  43.914 -11.780  1.00  0.00     0.279 HD
ENDBRANCH   1  12
TORSDOF 6
ENDMDL
MODEL 3
REMARK VINA RESULT: -5.513502034      1.467      5.721
REMARK  6 active torsions:
REMARK  status: ('A' for Active; 'I' for Inactive)
REMARK    1  A    between atoms: C2_2  and  C3_3 
REMARK    2  A    between atoms: C3_3  and  N1_4 
REMARK    3  A    between atoms: N1_4  and  C4_7 
REMARK    4  A    between atoms: C4_7  and  C5_8 
REMARK    5  A    between atoms: C5_8  and  N2_9 
REMARK    6  A    between atoms: N2_9  and  C6_12 
ROOT
HETATM    1  N2  UNL     1      83.561  45.472  -8.306  1.00  0.00    -0.043 N 
ATOM      2  H21 UNL     1      83.066  45.253  -7.441  1.00  0.00     0.279 HD
ATOM      3  H22 UNL     1      83.802  46.443  -8.106  1.00  0.00     0.279 HD
ENDROOT
BRANCH   1   4
HETATM    4  C5  UNL     1      82.693  45.364  -9.460  1.00  0.00     0.262 C 
BRANCH   4   5
HETATM    5  C4  UNL     1      82.070  43.977  -9.474  1.00  0.00     0.260 C 
BRANCH   5   6
HETATM    6  N1  UNL     1      81.484  43.702 -10.783  1.00  0.00    -0.070 N 
ATOM      7  H12 UNL     1      80.468  43.789 -10.805  1.00  0.00     0.277 HD
ATOM      8  H11 UNL     1      81.526  42.719 -11.053  1.00  0.00     0.277 HD
BRANCH   6   9
HETATM    9  C3  UNL     1      82.177  44.604 -11.716  1.00  0.00     0.259 C 
BRANCH   9  10
HETATM   10  C2  UNL     1      81.652  44.345 -13.081  1.00  0.00    -0.010 C 
HETATM   11  C1  UNL     1      82.485  44.024 -14.041  1.00  0.00     0.008 C 
ENDBRANCH   9  10
ENDBRANCH   6   9
ENDBRANCH   5   6
ENDBRANCH   4   5
ENDBRANCH   1   4
BRANCH   1  12
HETATM   12  C6  UNL     1      84.732  44.659  -8.466  1.00  0.00     0.408 C 
HETATM   13  C7  UNL     1      85.616  45.069  -9.617  1.00  0.00     0.294 C 
HETATM   14  N3  UNL     1      86.972  45.357  -9.171  1.00  0.00    -0.070 N 
HETATM   15  C8  UNL     1      87.565  44.276  -8.440  1.00  0.00     0.260 C 
ATOM     16  H32 UNL     1      87.562  45.632  -9.956  1.00  0.00     0.277 HD
ATOM     17  H31 UNL     1      87.000  46.221  -8.629  1.00  0.00     0.277 HD
HETATM   18  C9  UNL     1      86.578  43.710  -7.445  1.00  0.00     0.262 C 
HETATM   19  N4  UNL     1      85.542  44.723  -7.258  1.00  0.00    -0.043 N 
ATOM     20  H42 UNL     1      85.906  45.653  -7.053  1.00  0.00     0.279 HD
ATOM     21  H41 UNL     1      85.008  44.614  -6.395  1.00  0.00     0.279 HD
ENDBRANCH   1  12
TORSDOF 6
ENDMDL
MODEL 4
REMARK VINA RESULT: -5.475922435      2.808      4.015
REMARK  6 active torsions:
REMARK  status: ('A' for Active; 'I' for Inactive)
REMARK    1  A    between atoms: C2_2  and  C3_3 
REMARK    2  A    between atoms: C3_3  and  N1_4 
REMARK    3  A    between atoms: N1_4  and  C4_7 
REMARK    4  A    between atoms: C4_7  and  C5_8 
REMARK    5  A    between atoms: C5_8  and  N2_9 
REMARK    6  A    between atoms: N2_9  and  C6_12 
ROOT
HETATM    1  N2  UNL     1      84.347  45.665 -11.590  1.00  0.00    -0.043 N 
ATOM      2  H21 UNL     1      84.403  45.141 -12.464  1.00  0.00     0.279 HD
ATOM      3  H22 UNL     1      83.707  46.400 -11.889  1.00  0.00     0.279 HD
ENDROOT
BRANCH   1   4
HETATM    4  C5  UNL     1      85.636  46.203 -11.208  1.00  0.00     0.262 C 
BRANCH   4   5
HETATM    5  C4  UNL     1      86.727  45.338 -11.818  1.00  0.00     0.260 C 
BRANCH   5   6
HETATM    6  N1  UNL     1      88.032  45.727 -11.290  1.00  0.00    -0.070 N 
ATOM      7  H12 UNL     1      88.664  46.108 -11.995  1.00  0.00     0.277 HD
ATOM      8  H11 UNL     1      88.618  44.936 -11.020  1.00  0.00     0.277 HD
BRANCH   6   9
HETATM    9  C3  UNL     1      87.744  46.656 -10.187  1.00  0.00     0.259 C 
BRANCH   9  10
HETATM   10  C2  UNL     1      88.579  46.262  -9.024  1.00  0.00    -0.010 C 
HETATM   11  C1  UNL     1      88.120  45.380  -8.171  1.00  0.00     0.008 C 
ENDBRANCH   9  10
ENDBRANCH   6   9
ENDBRANCH   5   6
ENDBRANCH   4   5
ENDBRANCH   1   4
BRANCH   1  12
HETATM   12  C6  UNL     1      83.787  44.873 -10.534  1.00  0.00     0.408 C 
HETATM   13  C7  UNL     1      84.167  45.333  -9.149  1.00  0.00     0.294 C 
HETATM   14  N3  UNL     1      82.990  45.623  -8.342  1.00  0.00    -0.070 N 
HETATM   15  C8  UNL     1      82.071  44.526  -8.273  1.00  0.00     0.260 C 
ATOM     16  H32 UNL     1      83.257  45.932  -7.407  1.00  0.00     0.277 HD
ATOM     17  H31 UNL     1      82.524  46.469  -8.671  1.00  0.00     0.277 HD
HETATM   18  C9  UNL     1      81.879  43.914  -9.642  1.00  0.00     0.262 C 
HETATM   19  N4  UNL     1      82.333  44.906 -10.613  1.00  0.00    -0.043 N 
ATOM     20  H42 UNL     1      81.933  45.834 -10.474  1.00  0.00     0.279 HD
ATOM     21  H41 UNL     1      81.967  44.762 -11.555  1.00  0.00     0.279 HD
ENDBRANCH   1  12
TORSDOF 6
ENDMDL
MODEL 5
REMARK VINA RESULT: -5.464381109      2.429      3.959
REMARK  6 active torsions:
REMARK  status: ('A' for Active; 'I' for Inactive)
REMARK    1  A    between atoms: C2_2  and  C3_3 
REMARK    2  A    between atoms: C3_3  and  N1_4 
REMARK    3  A    between atoms: N1_4  and  C4_7 
REMARK    4  A    between atoms: C4_7  and  C5_8 
REMARK    5  A    between atoms: C5_8  and  N2_9 
REMARK    6  A    between atoms: N2_9  and  C6_12 
ROOT
HETATM    1  N2  UNL     1      85.512  44.741  -7.219  1.00  0.00    -0.043 N 
ATOM      2  H21 UNL     1      85.838  45.664  -6.930  1.00  0.00     0.279 HD
ATOM      3  H22 UNL     1      84.888  44.544  -6.437  1.00  0.00     0.279 HD
ENDROOT
BRANCH   1   4
HETATM    4  C5  UNL     1      86.600  43.788  -7.286  1.00  0.00     0.262 C 
BRANCH   4   5
HETATM    5  C4  UNL     1      87.860  44.447  -6.747  1.00  0.00     0.260 C 
BRANCH   5   6
HETATM    6  N1  UNL     1      89.010  44.082  -7.569  1.00  0.00    -0.070 N 
ATOM      7  H12 UNL     1      89.243  43.089  -7.533  1.00  0.00     0.277 HD
ATOM      8  H11 UNL     1      89.900  44.426  -7.207  1.00  0.00     0.277 HD
BRANCH   6   9
HETATM    9  C3  UNL     1      88.692  44.568  -8.921  1.00  0.00     0.259 C 
BRANCH   9  10
HETATM   10  C2  UNL     1      89.204  45.956  -9.043  1.00  0.00    -0.010 C 
HETATM   11  C1  UNL     1      88.430  46.887  -9.544  1.00  0.00     0.008 C 
ENDBRANCH   9  10
ENDBRANCH   6   9
ENDBRANCH   5   6
ENDBRANCH   4   5
ENDBRANCH   1   4
BRANCH   1  12
HETATM   12  C6  UNL     1      84.800  44.798  -8.463  1.00  0.00     0.408 C 
HETATM   13  C7  UNL     1      84.481  43.447  -9.054  1.00  0.00     0.294 C 
HETATM   14  N3  UNL     1      83.050  43.286  -9.273  1.00  0.00    -0.070 N 
HETATM   15  C8  UNL     1      82.483  44.332 -10.071  1.00  0.00     0.260 C 
ATOM     16  H32 UNL     1      82.845  42.371  -9.673  1.00  0.00     0.277 HD
ATOM     17  H31 UNL     1      82.555  43.196  -8.385  1.00  0.00     0.277 HD
HETATM   18  C9  UNL     1      83.001  45.679  -9.620  1.00  0.00     0.262 C 
HETATM   19  N4  UNL     1      83.535  45.493  -8.273  1.00  0.00    -0.043 N 
ATOM     20  H42 UNL     1      82.895  45.020  -7.636  1.00  0.00     0.279 HD
ATOM     21  H41 UNL     1      83.615  46.358  -7.737  1.00  0.00     0.279 HD
ENDBRANCH   1  12
TORSDOF 6
ENDMDL
