MODEL 1
REMARK VINA RESULT: -7.508493573      0.000      0.000
REMARK  16 active torsions:
REMARK  status: ('A' for Active; 'I' for Inactive)
REMARK    1  A    between atoms: C2_2  and  C3_3 
REMARK    2  A    between atoms: C3_3  and  O1_4 
REMARK    3  A    between atoms: O1_4  and  C4_5 
REMARK    4  A    between atoms: C4_5  and  C5_7 
REMARK    5  A    between atoms: C5_7  and  C6_8 
REMARK    6  A    between atoms: C5_7  and  N2_14 
REMARK       I    between atoms: C6_8  and  N1_10 
REMARK    7  A    between atoms: N1_10  and  C7_12 
REMARK    8  A    between atoms: N2_14  and  C9_15 
REMARK       I    between atoms: N2_14  and  C21_32 
REMARK    9  A    between atoms: C9_15  and  C10_16 
REMARK   10  A    between atoms: C10_16  and  C11_17 
REMARK       I    between atoms: C11_17  and  N3_19 
REMARK   11  A    between atoms: N3_19  and  C12_21 
REMARK   12  A    between atoms: C12_21  and  C13_22 
REMARK   13  A    between atoms: C12_21  and  C18_29 
REMARK   14  A    between atoms: C13_22  and  O6_24 
REMARK   15  A    between atoms: O6_24  and  C14_25 
REMARK       I    between atoms: C21_32  and  N4_34 
REMARK   16  A    between atoms: N4_34  and  C22_36 
ROOT
HETATM    1  N2  UNL     1       4.748   0.677  12.877  1.00  0.00    -0.311 N 
HETATM    2  C21 UNL     1       3.813   1.054  11.877  1.00  0.00     0.320 C 
HETATM    3  O7  UNL     1       4.245   1.271  10.722  1.00  0.00    -0.247 OA
HETATM    4  N4  UNL     1       2.421   1.200  12.101  1.00  0.00    -0.335 N 
ATOM      5  H4  UNL     1       2.057   1.027  13.038  1.00  0.00     0.165 HD
ENDROOT
BRANCH   1   6
HETATM    6  C5  UNL     1       6.155   0.541  12.634  1.00  0.00     0.281 C 
BRANCH   6   7
HETATM    7  C4  UNL     1       6.430  -0.905  12.357  1.00  0.00     0.291 C 
HETATM    8  O2  UNL     1       5.532  -1.674  11.916  1.00  0.00    -0.262 OA
BRANCH   7   9
HETATM    9  O1  UNL     1       7.671  -1.497  12.560  1.00  0.00    -0.316 OA
BRANCH   9  10
HETATM   10  C3  UNL     1       8.616  -0.979  13.471  1.00  0.00     0.205 C 
BRANCH  10  11
HETATM   11  C2  UNL     1       8.778  -1.767  14.696  1.00  0.00    -0.011 C 
HETATM   12  C1  UNL     1       9.926  -2.356  14.980  1.00  0.00     0.009 C 
ENDBRANCH  10  11
ENDBRANCH   9  10
ENDBRANCH   7   9
ENDBRANCH   6   7
BRANCH   6  13
HETATM   13  C6  UNL     1       6.678   1.451  11.617  1.00  0.00     0.250 C 
HETATM   14  O3  UNL     1       6.844   2.699  11.779  1.00  0.00    -0.271 OA
HETATM   15  N1  UNL     1       7.038   0.929  10.338  1.00  0.00    -0.359 N 
ATOM     16  H1  UNL     1       6.924  -0.069  10.161  1.00  0.00     0.162 HD
BRANCH  15  17
HETATM   17  C7  UNL     1       7.560   1.776   9.282  1.00  0.00     0.118 C 
HETATM   18  C8  UNL     1       7.044   1.339   7.942  1.00  0.00     0.026 C 
ENDBRANCH  15  17
ENDBRANCH   6  13
ENDBRANCH   1   6
BRANCH   1  19
HETATM   19  C9  UNL     1       4.228   0.412  14.203  1.00  0.00     0.138 C 
BRANCH  19  20
HETATM   20  C10 UNL     1       5.337   0.147  15.209  1.00  0.00     0.122 C 
BRANCH  20  21
HETATM   21  C11 UNL     1       5.243  -1.211  15.769  1.00  0.00     0.219 C 
HETATM   22  O4  UNL     1       5.673  -1.434  16.919  1.00  0.00    -0.274 OA
HETATM   23  N3  UNL     1       4.671  -2.257  15.015  1.00  0.00    -0.347 N 
ATOM     24  H3  UNL     1       4.324  -2.058  14.076  1.00  0.00     0.163 HD
BRANCH  23  25
HETATM   25  C12 UNL     1       4.561  -3.619  15.536  1.00  0.00     0.187 C 
BRANCH  25  26
HETATM   26  C13 UNL     1       5.678  -4.464  14.995  1.00  0.00     0.282 C 
HETATM   27  O5  UNL     1       6.299  -4.168  13.944  1.00  0.00    -0.263 OA
BRANCH  26  28
HETATM   28  O6  UNL     1       6.071  -5.620  15.648  1.00  0.00    -0.310 OA
BRANCH  28  29
HETATM   29  C14 UNL     1       7.308  -5.674  16.323  1.00  0.00     0.060 C 
HETATM   30  C15 UNL     1       7.599  -4.391  17.071  1.00  0.00     0.045 C 
HETATM   31  C16 UNL     1       7.178  -6.775  17.364  1.00  0.00     0.045 C 
HETATM   32  C17 UNL     1       8.485  -5.979  15.460  1.00  0.00     0.045 C 
ENDBRANCH  28  29
ENDBRANCH  26  28
ENDBRANCH  25  26
BRANCH  25  33
HETATM   33  C18 UNL     1       3.216  -4.211  15.265  1.00  0.00     0.010 C 
HETATM   34  C19 UNL     1       2.759  -5.163  16.333  1.00  0.00     0.012 C 
HETATM   35  C20 UNL     1       2.177  -3.138  15.057  1.00  0.00     0.012 C 
ENDBRANCH  25  33
ENDBRANCH  23  25
ENDBRANCH  20  21
ENDBRANCH  19  20
ENDBRANCH   1  19
BRANCH   4  36
HETATM   36  C22 UNL     1       1.495   1.582  11.059  1.00  0.00     0.023 C 
HETATM   37  C23 UNL     1       1.943   2.832  10.337  1.00  0.00     0.037 C 
HETATM   38  C24 UNL     1       1.334   0.441  10.105  1.00  0.00     0.037 C 
HETATM   39  C25 UNL     1       0.130   1.895  11.661  1.00  0.00     0.037 C 
ENDBRANCH   4  36
TORSDOF 16
ENDMDL
MODEL 2
REMARK VINA RESULT: -7.367697783      1.820      6.888
REMARK  16 active torsions:
REMARK  status: ('A' for Active; 'I' for Inactive)
REMARK    1  A    between atoms: C2_2  and  C3_3 
REMARK    2  A    between atoms: C3_3  and  O1_4 
REMARK    3  A    between atoms: O1_4  and  C4_5 
REMARK    4  A    between atoms: C4_5  and  C5_7 
REMARK    5  A    between atoms: C5_7  and  C6_8 
REMARK    6  A    between atoms: C5_7  and  N2_14 
REMARK       I    between atoms: C6_8  and  N1_10 
REMARK    7  A    between atoms: N1_10  and  C7_12 
REMARK    8  A    between atoms: N2_14  and  C9_15 
REMARK       I    between atoms: N2_14  and  C21_32 
REMARK    9  A    between atoms: C9_15  and  C10_16 
REMARK   10  A    between atoms: C10_16  and  C11_17 
REMARK       I    between atoms: C11_17  and  N3_19 
REMARK   11  A    between atoms: N3_19  and  C12_21 
REMARK   12  A    between atoms: C12_21  and  C13_22 
REMARK   13  A    between atoms: C12_21  and  C18_29 
REMARK   14  A    between atoms: C13_22  and  O6_24 
REMARK   15  A    between atoms: O6_24  and  C14_25 
REMARK       I    between atoms: C21_32  and  N4_34 
REMARK   16  A    between atoms: N4_34  and  C22_36 
ROOT
HETATM    1  N2  UNL     1       5.939  -2.074  14.301  1.00  0.00    -0.311 N 
HETATM    2  C21 UNL     1       5.039  -2.737  15.176  1.00  0.00     0.320 C 
HETATM    3  O7  UNL     1       5.318  -2.759  16.396  1.00  0.00    -0.247 OA
HETATM    4  N4  UNL     1       3.844  -3.374  14.758  1.00  0.00    -0.335 N 
ATOM      5  H4  UNL     1       3.607  -3.363  13.766  1.00  0.00     0.165 HD
ENDROOT
BRANCH   1   6
HETATM    6  C5  UNL     1       7.148  -1.440  14.740  1.00  0.00     0.281 C 
BRANCH   6   7
HETATM    7  C4  UNL     1       8.189  -2.506  14.895  1.00  0.00     0.291 C 
HETATM    8  O2  UNL     1       9.295  -2.270  15.455  1.00  0.00    -0.262 OA
BRANCH   7   9
HETATM    9  O1  UNL     1       8.019  -3.809  14.445  1.00  0.00    -0.316 OA
BRANCH   9  10
HETATM   10  C3  UNL     1       8.463  -4.928  15.182  1.00  0.00     0.205 C 
BRANCH  10  11
HETATM   11  C2  UNL     1       7.486  -5.455  16.139  1.00  0.00    -0.011 C 
HETATM   12  C1  UNL     1       7.605  -5.217  17.434  1.00  0.00     0.009 C 
ENDBRANCH  10  11
ENDBRANCH   9  10
ENDBRANCH   7   9
ENDBRANCH   6   7
BRANCH   6  13
HETATM   13  C6  UNL     1       7.570  -0.315  13.908  1.00  0.00     0.250 C 
HETATM   14  O3  UNL     1       7.107   0.864  13.996  1.00  0.00    -0.271 OA
HETATM   15  N1  UNL     1       8.575  -0.523  12.916  1.00  0.00    -0.359 N 
ATOM     16  H1  UNL     1       8.980  -1.453  12.810  1.00  0.00     0.162 HD
BRANCH  15  17
HETATM   17  C7  UNL     1       9.039   0.548  12.055  1.00  0.00     0.118 C 
HETATM   18  C8  UNL     1       9.489   0.011  10.728  1.00  0.00     0.026 C 
ENDBRANCH  15  17
ENDBRANCH   6  13
ENDBRANCH   1   6
BRANCH   1  19
HETATM   19  C9  UNL     1       5.591  -2.042  12.895  1.00  0.00     0.138 C 
BRANCH  19  20
HETATM   20  C10 UNL     1       4.187  -1.505  12.665  1.00  0.00     0.122 C 
BRANCH  20  21
HETATM   21  C11 UNL     1       4.174  -0.033  12.619  1.00  0.00     0.219 C 
HETATM   22  O4  UNL     1       3.910   0.612  13.655  1.00  0.00    -0.274 OA
HETATM   23  N3  UNL     1       4.457   0.647  11.417  1.00  0.00    -0.347 N 
ATOM     24  H3  UNL     1       4.672   0.104  10.580  1.00  0.00     0.163 HD
BRANCH  23  25
HETATM   25  C12 UNL     1       4.454   2.107  11.332  1.00  0.00     0.187 C 
BRANCH  25  26
HETATM   26  C13 UNL     1       3.132   2.583  10.801  1.00  0.00     0.282 C 
HETATM   27  O5  UNL     1       3.004   3.073   9.652  1.00  0.00    -0.263 OA
BRANCH  26  28
HETATM   28  O6  UNL     1       1.986   2.498  11.574  1.00  0.00    -0.310 OA
BRANCH  28  29
HETATM   29  C14 UNL     1       0.959   1.594  11.232  1.00  0.00     0.060 C 
HETATM   30  C15 UNL     1       0.477   0.807  12.432  1.00  0.00     0.045 C 
HETATM   31  C16 UNL     1      -0.212   2.439  10.756  1.00  0.00     0.045 C 
HETATM   32  C17 UNL     1       1.306   0.623  10.156  1.00  0.00     0.045 C 
ENDBRANCH  28  29
ENDBRANCH  26  28
ENDBRANCH  25  26
BRANCH  25  33
HETATM   33  C18 UNL     1       5.607   2.621  10.533  1.00  0.00     0.010 C 
HETATM   34  C19 UNL     1       6.640   3.325  11.365  1.00  0.00     0.012 C 
HETATM   35  C20 UNL     1       6.257   1.518   9.738  1.00  0.00     0.012 C 
ENDBRANCH  25  33
ENDBRANCH  23  25
ENDBRANCH  20  21
ENDBRANCH  19  20
ENDBRANCH   1  19
BRANCH   4  36
HETATM   36  C22 UNL     1       2.946  -4.037  15.676  1.00  0.00     0.023 C 
HETATM   37  C23 UNL     1       2.822  -3.288  16.983  1.00  0.00     0.037 C 
HETATM   38  C24 UNL     1       1.609  -4.199  15.023  1.00  0.00     0.037 C 
HETATM   39  C25 UNL     1       3.478  -5.424  16.020  1.00  0.00     0.037 C 
ENDBRANCH   4  36
TORSDOF 16
ENDMDL
MODEL 3
REMARK VINA RESULT: -7.320220945      1.787      2.738
REMARK  16 active torsions:
REMARK  status: ('A' for Active; 'I' for Inactive)
REMARK    1  A    between atoms: C2_2  and  C3_3 
REMARK    2  A    between atoms: C3_3  and  O1_4 
REMARK    3  A    between atoms: O1_4  and  C4_5 
REMARK    4  A    between atoms: C4_5  and  C5_7 
REMARK    5  A    between atoms: C5_7  and  C6_8 
REMARK    6  A    between atoms: C5_7  and  N2_14 
REMARK       I    between atoms: C6_8  and  N1_10 
REMARK    7  A    between atoms: N1_10  and  C7_12 
REMARK    8  A    between atoms: N2_14  and  C9_15 
REMARK       I    between atoms: N2_14  and  C21_32 
REMARK    9  A    between atoms: C9_15  and  C10_16 
REMARK   10  A    between atoms: C10_16  and  C11_17 
REMARK       I    between atoms: C11_17  and  N3_19 
REMARK   11  A    between atoms: N3_19  and  C12_21 
REMARK   12  A    between atoms: C12_21  and  C13_22 
REMARK   13  A    between atoms: C12_21  and  C18_29 
REMARK   14  A    between atoms: C13_22  and  O6_24 
REMARK   15  A    between atoms: O6_24  and  C14_25 
REMARK       I    between atoms: C21_32  and  N4_34 
REMARK   16  A    between atoms: N4_34  and  C22_36 
ROOT
HETATM    1  N2  UNL     1       4.926   1.918  10.521  1.00  0.00    -0.311 N 
HETATM    2  C21 UNL     1       3.577   2.330  10.366  1.00  0.00     0.320 C 
HETATM    3  O7  UNL     1       3.341   3.278   9.582  1.00  0.00    -0.247 OA
HETATM    4  N4  UNL     1       2.479   1.739  11.038  1.00  0.00    -0.335 N 
ATOM      5  H4  UNL     1       2.659   0.967  11.680  1.00  0.00     0.165 HD
ENDROOT
BRANCH   1   6
HETATM    6  C5  UNL     1       6.026   2.533   9.838  1.00  0.00     0.281 C 
BRANCH   6   7
HETATM    7  C4  UNL     1       6.944   3.103  10.875  1.00  0.00     0.291 C 
HETATM    8  O2  UNL     1       6.664   4.172  11.486  1.00  0.00    -0.262 OA
BRANCH   7   9
HETATM    9  O1  UNL     1       8.147   2.511  11.238  1.00  0.00    -0.316 OA
BRANCH   9  10
HETATM   10  C3  UNL     1       8.361   1.955  12.517  1.00  0.00     0.205 C 
BRANCH  10  11
HETATM   11  C2  UNL     1       8.675   0.523  12.515  1.00  0.00    -0.011 C 
HETATM   12  C1  UNL     1       9.659   0.044  11.773  1.00  0.00     0.009 C 
ENDBRANCH  10  11
ENDBRANCH   9  10
ENDBRANCH   7   9
ENDBRANCH   6   7
BRANCH   6  13
HETATM   13  C6  UNL     1       6.692   1.662   8.870  1.00  0.00     0.250 C 
HETATM   14  O3  UNL     1       7.490   0.722   9.172  1.00  0.00    -0.271 OA
HETATM   15  N1  UNL     1       6.446   1.856   7.478  1.00  0.00    -0.359 N 
ATOM     16  H1  UNL     1       5.809   2.598   7.187  1.00  0.00     0.162 HD
BRANCH  15  17
HETATM   17  C7  UNL     1       7.074   1.031   6.464  1.00  0.00     0.118 C 
HETATM   18  C8  UNL     1       6.536   1.356   5.101  1.00  0.00     0.026 C 
ENDBRANCH  15  17
ENDBRANCH   6  13
ENDBRANCH   1   6
BRANCH   1  19
HETATM   19  C9  UNL     1       5.179   0.808  11.418  1.00  0.00     0.138 C 
BRANCH  19  20
HETATM   20  C10 UNL     1       4.798   1.136  12.854  1.00  0.00     0.122 C 
BRANCH  20  21
HETATM   21  C11 UNL     1       4.891  -0.051  13.720  1.00  0.00     0.219 C 
HETATM   22  O4  UNL     1       5.691  -0.052  14.679  1.00  0.00    -0.274 OA
HETATM   23  N3  UNL     1       4.085  -1.181  13.473  1.00  0.00    -0.347 N 
ATOM     24  H3  UNL     1       3.436  -1.164  12.686  1.00  0.00     0.163 HD
BRANCH  23  25
HETATM   25  C12 UNL     1       4.149  -2.378  14.311  1.00  0.00     0.187 C 
BRANCH  25  26
HETATM   26  C13 UNL     1       4.951  -3.443  13.618  1.00  0.00     0.282 C 
HETATM   27  O5  UNL     1       4.997  -3.545  12.367  1.00  0.00    -0.263 OA
BRANCH  26  28
HETATM   28  O6  UNL     1       5.681  -4.366  14.346  1.00  0.00    -0.310 OA
BRANCH  28  29
HETATM   29  C14 UNL     1       6.932  -4.017  14.893  1.00  0.00     0.060 C 
HETATM   30  C15 UNL     1       6.818  -3.604  16.345  1.00  0.00     0.045 C 
HETATM   31  C16 UNL     1       7.781  -5.278  14.856  1.00  0.00     0.045 C 
HETATM   32  C17 UNL     1       7.660  -2.939  14.165  1.00  0.00     0.045 C 
ENDBRANCH  28  29
ENDBRANCH  26  28
ENDBRANCH  25  26
BRANCH  25  33
HETATM   33  C18 UNL     1       2.789  -2.855  14.706  1.00  0.00     0.010 C 
HETATM   34  C19 UNL     1       2.765  -3.545  16.039  1.00  0.00     0.012 C 
HETATM   35  C20 UNL     1       1.789  -1.727  14.695  1.00  0.00     0.012 C 
ENDBRANCH  25  33
ENDBRANCH  23  25
ENDBRANCH  20  21
ENDBRANCH  19  20
ENDBRANCH   1  19
BRANCH   4  36
HETATM   36  C22 UNL     1       1.115   2.181  10.854  1.00  0.00     0.023 C 
HETATM   37  C23 UNL     1       0.996   3.686  10.929  1.00  0.00     0.037 C 
HETATM   38  C24 UNL     1       0.606   1.668   9.544  1.00  0.00     0.037 C 
HETATM   39  C25 UNL     1       0.229   1.621  11.961  1.00  0.00     0.037 C 
ENDBRANCH   4  36
TORSDOF 16
ENDMDL
MODEL 4
REMARK VINA RESULT: -7.279640048      1.863      3.757
REMARK  16 active torsions:
REMARK  status: ('A' for Active; 'I' for Inactive)
REMARK    1  A    between atoms: C2_2  and  C3_3 
REMARK    2  A    between atoms: C3_3  and  O1_4 
REMARK    3  A    between atoms: O1_4  and  C4_5 
REMARK    4  A    between atoms: C4_5  and  C5_7 
REMARK    5  A    between atoms: C5_7  and  C6_8 
REMARK    6  A    between atoms: C5_7  and  N2_14 
REMARK       I    between atoms: C6_8  and  N1_10 
REMARK    7  A    between atoms: N1_10  and  C7_12 
REMARK    8  A    between atoms: N2_14  and  C9_15 
REMARK       I    between atoms: N2_14  and  C21_32 
REMARK    9  A    between atoms: C9_15  and  C10_16 
REMARK   10  A    between atoms: C10_16  and  C11_17 
REMARK       I    between atoms: C11_17  and  N3_19 
REMARK   11  A    between atoms: N3_19  and  C12_21 
REMARK   12  A    between atoms: C12_21  and  C13_22 
REMARK   13  A    between atoms: C12_21  and  C18_29 
REMARK   14  A    between atoms: C13_22  and  O6_24 
REMARK   15  A    between atoms: O6_24  and  C14_25 
REMARK       I    between atoms: C21_32  and  N4_34 
REMARK   16  A    between atoms: N4_34  and  C22_36 
ROOT
HETATM    1  N2  UNL     1       4.976   2.067  10.967  1.00  0.00    -0.311 N 
HETATM    2  C21 UNL     1       3.571   2.129  10.779  1.00  0.00     0.320 C 
HETATM    3  O7  UNL     1       3.130   2.921   9.915  1.00  0.00    -0.247 OA
HETATM    4  N4  UNL     1       2.634   1.352  11.504  1.00  0.00    -0.335 N 
ATOM      5  H4  UNL     1       2.981   0.705  12.212  1.00  0.00     0.165 HD
ENDROOT
BRANCH   1   6
HETATM    6  C5  UNL     1       5.911   2.866  10.228  1.00  0.00     0.281 C 
BRANCH   6   7
HETATM    7  C4  UNL     1       7.108   3.087  11.100  1.00  0.00     0.291 C 
HETATM    8  O2  UNL     1       7.156   4.041  11.925  1.00  0.00    -0.262 OA
BRANCH   7   9
HETATM    9  O1  UNL     1       8.235   2.274  11.068  1.00  0.00    -0.316 OA
BRANCH   9  10
HETATM   10  C3  UNL     1       8.753   1.653  12.225  1.00  0.00     0.205 C 
BRANCH  10  11
HETATM   11  C2  UNL     1       9.408   0.364  11.984  1.00  0.00    -0.011 C 
HETATM   12  C1  UNL     1       9.443  -0.165  10.773  1.00  0.00     0.009 C 
ENDBRANCH  10  11
ENDBRANCH   9  10
ENDBRANCH   7   9
ENDBRANCH   6   7
BRANCH   6  13
HETATM   13  C6  UNL     1       6.230   2.342   8.901  1.00  0.00     0.250 C 
HETATM   14  O3  UNL     1       6.965   1.331   8.681  1.00  0.00    -0.271 OA
HETATM   15  N1  UNL     1       5.689   2.990   7.751  1.00  0.00    -0.359 N 
ATOM     16  H1  UNL     1       5.090   3.805   7.878  1.00  0.00     0.162 HD
BRANCH  15  17
HETATM   17  C7  UNL     1       5.966   2.524   6.405  1.00  0.00     0.118 C 
HETATM   18  C8  UNL     1       4.897   2.975   5.452  1.00  0.00     0.026 C 
ENDBRANCH  15  17
ENDBRANCH   6  13
ENDBRANCH   1   6
BRANCH   1  19
HETATM   19  C9  UNL     1       5.471   1.133  11.957  1.00  0.00     0.138 C 
BRANCH  19  20
HETATM   20  C10 UNL     1       5.773  -0.231  11.356  1.00  0.00     0.122 C 
BRANCH  20  21
HETATM   21  C11 UNL     1       5.606  -1.306  12.348  1.00  0.00     0.219 C 
HETATM   22  O4  UNL     1       4.763  -2.205  12.146  1.00  0.00    -0.274 OA
HETATM   23  N3  UNL     1       6.391  -1.327  13.519  1.00  0.00    -0.347 N 
ATOM     24  H3  UNL     1       7.076  -0.586  13.668  1.00  0.00     0.163 HD
BRANCH  23  25
HETATM   25  C12 UNL     1       6.255  -2.378  14.526  1.00  0.00     0.187 C 
BRANCH  25  26
HETATM   26  C13 UNL     1       5.423  -1.879  15.674  1.00  0.00     0.282 C 
HETATM   27  O5  UNL     1       5.275  -0.655  15.916  1.00  0.00    -0.263 OA
BRANCH  26  28
HETATM   28  O6  UNL     1       4.779  -2.765  16.520  1.00  0.00    -0.310 OA
BRANCH  28  29
HETATM   29  C14 UNL     1       3.589  -3.403  16.114  1.00  0.00     0.060 C 
HETATM   30  C15 UNL     1       3.857  -4.766  15.512  1.00  0.00     0.045 C 
HETATM   31  C16 UNL     1       2.774  -3.629  17.378  1.00  0.00     0.045 C 
HETATM   32  C17 UNL     1       2.756  -2.631  15.150  1.00  0.00     0.045 C 
ENDBRANCH  28  29
ENDBRANCH  26  28
ENDBRANCH  25  26
BRANCH  25  33
HETATM   33  C18 UNL     1       7.583  -2.900  14.970  1.00  0.00     0.010 C 
HETATM   34  C19 UNL     1       7.792  -4.350  14.638  1.00  0.00     0.012 C 
HETATM   35  C20 UNL     1       8.711  -2.078  14.403  1.00  0.00     0.012 C 
ENDBRANCH  25  33
ENDBRANCH  23  25
ENDBRANCH  20  21
ENDBRANCH  19  20
ENDBRANCH   1  19
BRANCH   4  36
HETATM   36  C22 UNL     1       1.208   1.437  11.286  1.00  0.00     0.023 C 
HETATM   37  C23 UNL     1       0.725   2.869  11.266  1.00  0.00     0.037 C 
HETATM   38  C24 UNL     1       0.866   0.739  10.006  1.00  0.00     0.037 C 
HETATM   39  C25 UNL     1       0.462   0.743  12.419  1.00  0.00     0.037 C 
ENDBRANCH   4  36
TORSDOF 16
ENDMDL
MODEL 5
REMARK VINA RESULT: -7.278779357      2.477      7.459
REMARK  16 active torsions:
REMARK  status: ('A' for Active; 'I' for Inactive)
REMARK    1  A    between atoms: C2_2  and  C3_3 
REMARK    2  A    between atoms: C3_3  and  O1_4 
REMARK    3  A    between atoms: O1_4  and  C4_5 
REMARK    4  A    between atoms: C4_5  and  C5_7 
REMARK    5  A    between atoms: C5_7  and  C6_8 
REMARK    6  A    between atoms: C5_7  and  N2_14 
REMARK       I    between atoms: C6_8  and  N1_10 
REMARK    7  A    between atoms: N1_10  and  C7_12 
REMARK    8  A    between atoms: N2_14  and  C9_15 
REMARK       I    between atoms: N2_14  and  C21_32 
REMARK    9  A    between atoms: C9_15  and  C10_16 
REMARK   10  A    between atoms: C10_16  and  C11_17 
REMARK       I    between atoms: C11_17  and  N3_19 
REMARK   11  A    between atoms: N3_19  and  C12_21 
REMARK   12  A    between atoms: C12_21  and  C13_22 
REMARK   13  A    between atoms: C12_21  and  C18_29 
REMARK   14  A    between atoms: C13_22  and  O6_24 
REMARK   15  A    between atoms: O6_24  and  C14_25 
REMARK       I    between atoms: C21_32  and  N4_34 
REMARK   16  A    between atoms: N4_34  and  C22_36 
ROOT
HETATM    1  N2  UNL     1       6.852  -4.701  15.984  1.00  0.00    -0.311 N 
HETATM    2  C21 UNL     1       6.242  -5.587  16.910  1.00  0.00     0.320 C 
HETATM    3  O7  UNL     1       6.642  -5.561  18.097  1.00  0.00    -0.247 OA
HETATM    4  N4  UNL     1       5.208  -6.498  16.580  1.00  0.00    -0.335 N 
ATOM      5  H4  UNL     1       4.875  -6.529  15.617  1.00  0.00     0.165 HD
ENDROOT
BRANCH   1   6
HETATM    6  C5  UNL     1       7.903  -3.790  16.334  1.00  0.00     0.281 C 
BRANCH   6   7
HETATM    7  C4  UNL     1       9.198  -4.539  16.257  1.00  0.00     0.291 C 
HETATM    8  O2  UNL     1       9.543  -5.152  15.209  1.00  0.00    -0.262 OA
BRANCH   7   9
HETATM    9  O1  UNL     1      10.099  -4.614  17.312  1.00  0.00    -0.316 OA
BRANCH   9  10
HETATM   10  C3  UNL     1      10.128  -5.707  18.205  1.00  0.00     0.205 C 
BRANCH  10  11
HETATM   11  C2  UNL     1      11.192  -6.680  17.943  1.00  0.00    -0.011 C 
HETATM   12  C1  UNL     1      11.261  -7.812  18.622  1.00  0.00     0.009 C 
ENDBRANCH  10  11
ENDBRANCH   9  10
ENDBRANCH   7   9
ENDBRANCH   6   7
BRANCH   6  13
HETATM   13  C6  UNL     1       7.892  -2.543  15.571  1.00  0.00     0.250 C 
HETATM   14  O3  UNL     1       7.036  -1.616  15.711  1.00  0.00    -0.271 OA
HETATM   15  N1  UNL     1       8.906  -2.320  14.592  1.00  0.00    -0.359 N 
ATOM     16  H1  UNL     1       9.618  -3.035  14.445  1.00  0.00     0.162 HD
BRANCH  15  17
HETATM   17  C7  UNL     1       8.954  -1.106  13.798  1.00  0.00     0.118 C 
HETATM   18  C8  UNL     1      10.038  -1.187  12.763  1.00  0.00     0.026 C 
ENDBRANCH  15  17
ENDBRANCH   6  13
ENDBRANCH   1   6
BRANCH   1  19
HETATM   19  C9  UNL     1       6.364  -4.731  14.620  1.00  0.00     0.138 C 
BRANCH  19  20
HETATM   20  C10 UNL     1       4.973  -4.130  14.497  1.00  0.00     0.122 C 
BRANCH  20  21
HETATM   21  C11 UNL     1       4.896  -3.173  13.382  1.00  0.00     0.219 C 
HETATM   22  O4  UNL     1       5.040  -3.580  12.210  1.00  0.00    -0.274 OA
HETATM   23  N3  UNL     1       4.659  -1.805  13.629  1.00  0.00    -0.347 N 
ATOM     24  H3  UNL     1       4.542  -1.489  14.592  1.00  0.00     0.163 HD
BRANCH  23  25
HETATM   25  C12 UNL     1       4.576  -0.824  12.547  1.00  0.00     0.187 C 
BRANCH  25  26
HETATM   26  C13 UNL     1       5.865  -0.058  12.454  1.00  0.00     0.282 C 
HETATM   27  O5  UNL     1       6.198   0.806  13.302  1.00  0.00    -0.263 OA
BRANCH  26  28
HETATM   28  O6  UNL     1       6.747  -0.281  11.410  1.00  0.00    -0.310 OA
BRANCH  28  29
HETATM   29  C14 UNL     1       7.200   0.792  10.616  1.00  0.00     0.060 C 
HETATM   30  C15 UNL     1       7.891   1.854  11.444  1.00  0.00     0.045 C 
HETATM   31  C16 UNL     1       8.245   0.215   9.674  1.00  0.00     0.045 C 
HETATM   32  C17 UNL     1       6.148   1.460   9.799  1.00  0.00     0.045 C 
ENDBRANCH  28  29
ENDBRANCH  26  28
ENDBRANCH  25  26
BRANCH  25  33
HETATM   33  C18 UNL     1       3.390   0.072  12.699  1.00  0.00     0.010 C 
HETATM   34  C19 UNL     1       2.678   0.339  11.404  1.00  0.00     0.012 C 
HETATM   35  C20 UNL     1       2.418  -0.473  13.714  1.00  0.00     0.012 C 
ENDBRANCH  25  33
ENDBRANCH  23  25
ENDBRANCH  20  21
ENDBRANCH  19  20
ENDBRANCH   1  19
BRANCH   4  36
HETATM   36  C22 UNL     1       4.605  -7.385  17.549  1.00  0.00     0.023 C 
HETATM   37  C23 UNL     1       5.637  -8.239  18.250  1.00  0.00     0.037 C 
HETATM   38  C24 UNL     1       3.822  -6.575  18.534  1.00  0.00     0.037 C 
HETATM   39  C25 UNL     1       3.647  -8.346  16.855  1.00  0.00     0.037 C 
ENDBRANCH   4  36
TORSDOF 16
ENDMDL
