MODEL 1
REMARK VINA RESULT: -8.486056763      0.000      0.000
REMARK  14 active torsions:
REMARK  status: ('A' for Active; 'I' for Inactive)
REMARK    1  A    between atoms: N1_2  and  C2_5 
REMARK    2  A    between atoms: C2_5  and  C3_6 
REMARK    3  A    between atoms: C2_5  and  C10_13 
REMARK    4  A    between atoms: C3_6  and  C4_7 
REMARK    5  A    between atoms: C10_13  and  O1_14 
REMARK    6  A    between atoms: C10_13  and  N2_16 
REMARK    7  A    between atoms: N3_19  and  C13_20 
REMARK    8  A    between atoms: C15_22  and  C16_23 
REMARK    9  A    between atoms: N4_26  and  C19_27 
REMARK   10  A    between atoms: C23_32  and  C24_33 
REMARK   11  A    between atoms: C24_33  and  N5_34 
REMARK   12  A    between atoms: N5_34  and  C25_37 
REMARK   13  A    between atoms: C25_37  and  C26_38 
REMARK   14  A    between atoms: C26_38  and  O3_39 
ROOT
HETATM    1  N2  UNL     1       4.593  -1.883  14.937  1.00  0.00    -0.361 N 
HETATM    2  C11 UNL     1       3.790  -2.069  13.772  1.00  0.00     0.144 C 
HETATM    3  C12 UNL     1       4.446  -1.265  12.621  1.00  0.00     0.143 C 
HETATM    4  N3  UNL     1       4.314   0.126  12.947  1.00  0.00    -0.377 N 
HETATM    5  C27 UNL     1       4.492   0.527  14.358  1.00  0.00     0.143 C 
HETATM    6  C28 UNL     1       5.264  -0.574  15.061  1.00  0.00     0.144 C 
ENDROOT
BRANCH   4   7
HETATM    7  C13 UNL     1       4.031   1.103  12.003  1.00  0.00     0.045 A 
HETATM    8  C14 UNL     1       2.705   1.495  11.752  1.00  0.00     0.055 A 
HETATM    9  C15 UNL     1       2.378   2.467  10.833  1.00  0.00     0.021 A 
HETATM   10  N4  UNL     1       3.371   3.068  10.144  1.00  0.00    -0.312 N 
HETATM   11  C22 UNL     1       4.662   2.694  10.380  1.00  0.00     0.258 A 
HETATM   12  O2  UNL     1       5.535   3.287   9.712  1.00  0.00    -0.267 OA
HETATM   13  C23 UNL     1       5.025   1.731  11.286  1.00  0.00     0.062 A 
BRANCH   9  14
HETATM   14  C16 UNL     1       0.950   2.805  10.648  1.00  0.00     0.036 A 
HETATM   15  C17 UNL     1       0.035   1.756  10.035  1.00  0.00     0.011 A 
HETATM   16  C18 UNL     1      -0.128   2.223  11.466  1.00  0.00     0.011 A 
ENDBRANCH   9  14
BRANCH  10  17
HETATM   17  C19 UNL     1       2.992   4.070   9.195  1.00  0.00     0.093 A 
HETATM   18  C20 UNL     1       2.080   3.909   8.080  1.00  0.00     0.028 A 
HETATM   19  C21 UNL     1       3.575   3.817   7.770  1.00  0.00     0.028 A 
ENDBRANCH  10  17
BRANCH  13  20
HETATM   20  C24 UNL     1       6.420   1.369  11.508  1.00  0.00     0.278 C 
BRANCH  20  21
HETATM   21  N5  UNL     1       6.992   0.478  10.501  1.00  0.00    -0.069 N 
ATOM     22  H52 UNL     1       6.317  -0.137  10.046  1.00  0.00     0.277 HD
ATOM     23  H51 UNL     1       7.301   0.946   9.649  1.00  0.00     0.277 HD
BRANCH  21  24
HETATM   24  C25 UNL     1       8.069  -0.229  11.240  1.00  0.00     0.258 C 
BRANCH  24  25
HETATM   25  C26 UNL     1       9.399   0.037  10.564  1.00  0.00     0.191 C 
BRANCH  25  26
HETATM   26  O3  UNL     1      10.444   0.047  11.488  1.00  0.00    -0.399 OA
ATOM     27  H3  UNL     1      11.054  -0.662  11.327  1.00  0.00     0.209 HD
ENDBRANCH  25  26
ENDBRANCH  24  25
ENDBRANCH  21  24
ENDBRANCH  20  21
ENDBRANCH  13  20
ENDBRANCH   4   7
BRANCH   1  28
HETATM   28  C10 UNL     1       4.786  -2.793  15.951  1.00  0.00     0.145 C 
BRANCH  28  29
HETATM   29  C2  UNL     1       5.247  -4.171  16.043  1.00  0.00     0.259 C 
BRANCH  29  30
HETATM   30  N1  UNL     1       5.513  -4.530  17.446  1.00  0.00    -0.067 N 
HETATM   31  C1  UNL     1       5.522  -5.940  17.675  1.00  0.00     0.267 C 
ATOM     32  H12 UNL     1       4.855  -4.065  18.070  1.00  0.00     0.277 HD
ATOM     33  H11 UNL     1       6.382  -4.105  17.770  1.00  0.00     0.277 HD
ENDBRANCH  29  30
BRANCH  29  34
HETATM   34  C3  UNL     1       6.335  -4.646  15.175  1.00  0.00     0.046 C 
BRANCH  34  35
HETATM   35  C4  UNL     1       7.562  -3.764  15.439  1.00  0.00    -0.012 C 
HETATM   36  C5  UNL     1       8.747  -4.566  15.878  1.00  0.00     0.005 C 
HETATM   37  C6  UNL     1      10.050  -3.845  15.492  1.00  0.00     0.000 C 
HETATM   38  C7  UNL     1       9.819  -2.343  15.604  1.00  0.00     0.000 C 
HETATM   39  C8  UNL     1       8.843  -1.875  14.564  1.00  0.00     0.000 C 
HETATM   40  C9  UNL     1       7.961  -3.035  14.164  1.00  0.00     0.005 C 
ENDBRANCH  34  35
ENDBRANCH  29  34
ENDBRANCH  28  29
BRANCH  28  41
HETATM   41  O1  UNL     1       4.481  -2.316  17.152  1.00  0.00    -0.348 OA
ATOM     42  H1  UNL     1       5.264  -2.194  17.675  1.00  0.00     0.219 HD
ENDBRANCH  28  41
ENDBRANCH   1  28
TORSDOF 14
ENDMDL
MODEL 2
REMARK VINA RESULT: -8.136432232      1.866      4.419
REMARK  14 active torsions:
REMARK  status: ('A' for Active; 'I' for Inactive)
REMARK    1  A    between atoms: N1_2  and  C2_5 
REMARK    2  A    between atoms: C2_5  and  C3_6 
REMARK    3  A    between atoms: C2_5  and  C10_13 
REMARK    4  A    between atoms: C3_6  and  C4_7 
REMARK    5  A    between atoms: C10_13  and  O1_14 
REMARK    6  A    between atoms: C10_13  and  N2_16 
REMARK    7  A    between atoms: N3_19  and  C13_20 
REMARK    8  A    between atoms: C15_22  and  C16_23 
REMARK    9  A    between atoms: N4_26  and  C19_27 
REMARK   10  A    between atoms: C23_32  and  C24_33 
REMARK   11  A    between atoms: C24_33  and  N5_34 
REMARK   12  A    between atoms: N5_34  and  C25_37 
REMARK   13  A    between atoms: C25_37  and  C26_38 
REMARK   14  A    between atoms: C26_38  and  O3_39 
ROOT
HETATM    1  N2  UNL     1       4.370  -2.320  15.758  1.00  0.00    -0.361 N 
HETATM    2  C11 UNL     1       5.407  -1.341  15.817  1.00  0.00     0.144 C 
HETATM    3  C12 UNL     1       4.954  -0.129  14.966  1.00  0.00     0.143 C 
HETATM    4  N3  UNL     1       4.924  -0.558  13.597  1.00  0.00    -0.377 N 
HETATM    5  C27 UNL     1       4.430  -1.921  13.310  1.00  0.00     0.143 C 
HETATM    6  C28 UNL     1       3.603  -2.377  14.498  1.00  0.00     0.144 C 
ENDROOT
BRANCH   4   7
HETATM    7  C13 UNL     1       5.332   0.243  12.542  1.00  0.00     0.045 A 
HETATM    8  C14 UNL     1       6.671   0.238  12.113  1.00  0.00     0.055 A 
HETATM    9  C15 UNL     1       7.118   1.010  11.064  1.00  0.00     0.021 A 
HETATM   10  N4  UNL     1       6.236   1.803  10.419  1.00  0.00    -0.312 N 
HETATM   11  C22 UNL     1       4.935   1.815  10.828  1.00  0.00     0.258 A 
HETATM   12  O2  UNL     1       4.168   2.568  10.192  1.00  0.00    -0.267 OA
HETATM   13  C23 UNL     1       4.453   1.062  11.868  1.00  0.00     0.062 A 
BRANCH   9  14
HETATM   14  C16 UNL     1       8.548   0.927  10.693  1.00  0.00     0.036 A 
HETATM   15  C17 UNL     1       9.534   0.426  11.737  1.00  0.00     0.011 A 
HETATM   16  C18 UNL     1       9.250  -0.348  10.467  1.00  0.00     0.011 A 
ENDBRANCH   9  14
BRANCH  10  17
HETATM   17  C19 UNL     1       6.740   2.591   9.336  1.00  0.00     0.093 A 
HETATM   18  C20 UNL     1       5.993   3.070   8.190  1.00  0.00     0.028 A 
HETATM   19  C21 UNL     1       6.824   1.802   7.992  1.00  0.00     0.028 A 
ENDBRANCH  10  17
BRANCH  13  20
HETATM   20  C24 UNL     1       3.051   1.105  12.265  1.00  0.00     0.278 C 
BRANCH  20  21
HETATM   21  N5  UNL     1       2.096   0.925  11.174  1.00  0.00    -0.069 N 
ATOM     22  H52 UNL     1       2.443   1.205  10.257  1.00  0.00     0.277 HD
ATOM     23  H51 UNL     1       1.915  -0.048  10.926  1.00  0.00     0.277 HD
BRANCH  21  24
HETATM   24  C25 UNL     1       0.901   1.675  11.637  1.00  0.00     0.258 C 
BRANCH  24  25
HETATM   25  C26 UNL     1       0.663   2.857  10.717  1.00  0.00     0.191 C 
BRANCH  25  26
HETATM   26  O3  UNL     1       1.488   3.931  11.050  1.00  0.00    -0.399 OA
ATOM     27  H3  UNL     1       1.692   3.934  11.978  1.00  0.00     0.209 HD
ENDBRANCH  25  26
ENDBRANCH  24  25
ENDBRANCH  21  24
ENDBRANCH  20  21
ENDBRANCH  13  20
ENDBRANCH   4   7
BRANCH   1  28
HETATM   28  C10 UNL     1       4.031  -3.213  16.748  1.00  0.00     0.145 C 
BRANCH  28  29
HETATM   29  C2  UNL     1       4.058  -4.660  16.903  1.00  0.00     0.259 C 
BRANCH  29  30
HETATM   30  N1  UNL     1       4.351  -5.021  18.300  1.00  0.00    -0.067 N 
HETATM   31  C1  UNL     1       3.548  -6.099  18.783  1.00  0.00     0.267 C 
ATOM     32  H12 UNL     1       4.269  -4.207  18.909  1.00  0.00     0.277 HD
ATOM     33  H11 UNL     1       5.342  -5.223  18.423  1.00  0.00     0.277 HD
ENDBRANCH  29  30
BRANCH  29  34
HETATM   34  C3  UNL     1       4.852  -5.487  15.982  1.00  0.00     0.046 C 
BRANCH  34  35
HETATM   35  C4  UNL     1       6.294  -4.966  16.010  1.00  0.00    -0.012 C 
HETATM   36  C5  UNL     1       7.242  -5.964  16.597  1.00  0.00     0.005 C 
HETATM   37  C6  UNL     1       8.656  -5.754  16.029  1.00  0.00     0.000 C 
HETATM   38  C7  UNL     1       8.863  -4.262  15.797  1.00  0.00     0.000 C 
HETATM   39  C8  UNL     1       7.971  -3.765  14.697  1.00  0.00     0.000 C 
HETATM   40  C9  UNL     1       6.770  -4.676  14.593  1.00  0.00     0.005 C 
ENDBRANCH  34  35
ENDBRANCH  29  34
ENDBRANCH  28  29
BRANCH  28  41
HETATM   41  O1  UNL     1       3.558  -2.630  17.843  1.00  0.00    -0.348 OA
ATOM     42  H1  UNL     1       2.998  -3.224  18.328  1.00  0.00     0.219 HD
ENDBRANCH  28  41
ENDBRANCH   1  28
TORSDOF 14
ENDMDL
MODEL 3
REMARK VINA RESULT: -8.087800476      1.814      9.703
REMARK  14 active torsions:
REMARK  status: ('A' for Active; 'I' for Inactive)
REMARK    1  A    between atoms: N1_2  and  C2_5 
REMARK    2  A    between atoms: C2_5  and  C3_6 
REMARK    3  A    between atoms: C2_5  and  C10_13 
REMARK    4  A    between atoms: C3_6  and  C4_7 
REMARK    5  A    between atoms: C10_13  and  O1_14 
REMARK    6  A    between atoms: C10_13  and  N2_16 
REMARK    7  A    between atoms: N3_19  and  C13_20 
REMARK    8  A    between atoms: C15_22  and  C16_23 
REMARK    9  A    between atoms: N4_26  and  C19_27 
REMARK   10  A    between atoms: C23_32  and  C24_33 
REMARK   11  A    between atoms: C24_33  and  N5_34 
REMARK   12  A    between atoms: N5_34  and  C25_37 
REMARK   13  A    between atoms: C25_37  and  C26_38 
REMARK   14  A    between atoms: C26_38  and  O3_39 
ROOT
HETATM    1  N2  UNL     1       5.627   0.206  12.626  1.00  0.00    -0.361 N 
HETATM    2  C11 UNL     1       6.658  -0.755  12.403  1.00  0.00     0.144 C 
HETATM    3  C12 UNL     1       6.069  -2.153  12.717  1.00  0.00     0.143 C 
HETATM    4  N3  UNL     1       5.816  -2.200  14.128  1.00  0.00    -0.377 N 
HETATM    5  C27 UNL     1       5.285  -0.983  14.777  1.00  0.00     0.143 C 
HETATM    6  C28 UNL     1       4.664  -0.114  13.699  1.00  0.00     0.144 C 
ENDROOT
BRANCH   4   7
HETATM    7  C13 UNL     1       6.045  -3.328  14.903  1.00  0.00     0.045 A 
HETATM    8  C14 UNL     1       7.277  -3.514  15.553  1.00  0.00     0.055 A 
HETATM    9  C15 UNL     1       7.544  -4.612  16.340  1.00  0.00     0.021 A 
HETATM   10  N4  UNL     1       6.584  -5.549  16.494  1.00  0.00    -0.312 N 
HETATM   11  C22 UNL     1       5.385  -5.377  15.867  1.00  0.00     0.258 A 
HETATM   12  O2  UNL     1       4.538  -6.277  16.049  1.00  0.00    -0.267 OA
HETATM   13  C23 UNL     1       5.083  -4.298  15.076  1.00  0.00     0.062 A 
BRANCH   9  14
HETATM   14  C16 UNL     1       8.874  -4.709  16.980  1.00  0.00     0.036 A 
HETATM   15  C17 UNL     1       9.957  -5.509  16.273  1.00  0.00     0.011 A 
HETATM   16  C18 UNL     1      10.067  -4.011  16.469  1.00  0.00     0.011 A 
ENDBRANCH   9  14
BRANCH  10  17
HETATM   17  C19 UNL     1       6.900  -6.676  17.317  1.00  0.00     0.093 A 
HETATM   18  C20 UNL     1       5.962  -7.530  18.017  1.00  0.00     0.028 A 
HETATM   19  C21 UNL     1       6.629  -6.423  18.833  1.00  0.00     0.028 A 
ENDBRANCH  10  17
BRANCH  13  20
HETATM   20  C24 UNL     1       3.784  -4.156  14.430  1.00  0.00     0.278 C 
BRANCH  20  21
HETATM   21  N5  UNL     1       2.634  -4.417  15.294  1.00  0.00    -0.069 N 
ATOM     22  H52 UNL     1       1.815  -4.783  14.809  1.00  0.00     0.277 HD
ATOM     23  H51 UNL     1       2.749  -5.212  15.922  1.00  0.00     0.277 HD
BRANCH  21  24
HETATM   24  C25 UNL     1       2.416  -3.117  15.978  1.00  0.00     0.258 C 
BRANCH  24  25
HETATM   25  C26 UNL     1       2.749  -3.263  17.449  1.00  0.00     0.191 C 
BRANCH  25  26
HETATM   26  O3  UNL     1       3.826  -2.452  17.807  1.00  0.00    -0.399 OA
ATOM     27  H3  UNL     1       3.670  -2.018  18.637  1.00  0.00     0.209 HD
ENDBRANCH  25  26
ENDBRANCH  24  25
ENDBRANCH  21  24
ENDBRANCH  20  21
ENDBRANCH  13  20
ENDBRANCH   4   7
BRANCH   1  28
HETATM   28  C10 UNL     1       5.456   1.394  11.954  1.00  0.00     0.145 C 
BRANCH  28  29
HETATM   29  C2  UNL     1       4.575   1.881  10.903  1.00  0.00     0.259 C 
BRANCH  29  30
HETATM   30  N1  UNL     1       5.254   1.827   9.598  1.00  0.00    -0.067 N 
HETATM   31  C1  UNL     1       5.418   3.111   8.995  1.00  0.00     0.267 C 
ATOM     32  H12 UNL     1       4.773   1.188   8.965  1.00  0.00     0.277 HD
ATOM     33  H11 UNL     1       6.149   1.345   9.674  1.00  0.00     0.277 HD
ENDBRANCH  29  30
BRANCH  29  34
HETATM   34  C3  UNL     1       3.871   3.162  11.064  1.00  0.00     0.046 C 
BRANCH  34  35
HETATM   35  C4  UNL     1       2.377   2.858  11.230  1.00  0.00    -0.012 C 
HETATM   36  C5  UNL     1       1.542   3.564  10.208  1.00  0.00     0.005 C 
HETATM   37  C6  UNL     1       0.245   2.780   9.946  1.00  0.00     0.000 C 
HETATM   38  C7  UNL     1      -0.193   2.127  11.251  1.00  0.00     0.000 C 
HETATM   39  C8  UNL     1       0.779   1.060  11.665  1.00  0.00     0.000 C 
HETATM   40  C9  UNL     1       2.128   1.366  11.058  1.00  0.00     0.005 C 
ENDBRANCH  34  35
ENDBRANCH  29  34
ENDBRANCH  28  29
BRANCH  28  41
HETATM   41  O1  UNL     1       6.294   2.345  12.346  1.00  0.00    -0.348 OA
ATOM     42  H1  UNL     1       5.819   3.120  12.623  1.00  0.00     0.219 HD
ENDBRANCH  28  41
ENDBRANCH   1  28
TORSDOF 14
ENDMDL
MODEL 4
REMARK VINA RESULT: -8.065166311      1.899      2.836
REMARK  14 active torsions:
REMARK  status: ('A' for Active; 'I' for Inactive)
REMARK    1  A    between atoms: N1_2  and  C2_5 
REMARK    2  A    between atoms: C2_5  and  C3_6 
REMARK    3  A    between atoms: C2_5  and  C10_13 
REMARK    4  A    between atoms: C3_6  and  C4_7 
REMARK    5  A    between atoms: C10_13  and  O1_14 
REMARK    6  A    between atoms: C10_13  and  N2_16 
REMARK    7  A    between atoms: N3_19  and  C13_20 
REMARK    8  A    between atoms: C15_22  and  C16_23 
REMARK    9  A    between atoms: N4_26  and  C19_27 
REMARK   10  A    between atoms: C23_32  and  C24_33 
REMARK   11  A    between atoms: C24_33  and  N5_34 
REMARK   12  A    between atoms: N5_34  and  C25_37 
REMARK   13  A    between atoms: C25_37  and  C26_38 
REMARK   14  A    between atoms: C26_38  and  O3_39 
ROOT
HETATM    1  N2  UNL     1       4.980  -3.997  16.080  1.00  0.00    -0.361 N 
HETATM    2  C11 UNL     1       5.876  -2.887  16.023  1.00  0.00     0.144 C 
HETATM    3  C12 UNL     1       5.076  -1.668  15.499  1.00  0.00     0.143 C 
HETATM    4  N3  UNL     1       4.733  -1.941  14.133  1.00  0.00    -0.377 N 
HETATM    5  C27 UNL     1       4.342  -3.322  13.780  1.00  0.00     0.143 C 
HETATM    6  C28 UNL     1       3.918  -4.026  15.056  1.00  0.00     0.144 C 
ENDROOT
BRANCH   4   7
HETATM    7  C13 UNL     1       4.751  -0.975  13.138  1.00  0.00     0.045 A 
HETATM    8  C14 UNL     1       3.592  -0.242  12.829  1.00  0.00     0.055 A 
HETATM    9  C15 UNL     1       3.566   0.733  11.857  1.00  0.00     0.021 A 
HETATM   10  N4  UNL     1       4.699   0.998  11.173  1.00  0.00    -0.312 N 
HETATM   11  C22 UNL     1       5.829   0.292  11.466  1.00  0.00     0.258 A 
HETATM   12  O2  UNL     1       6.845   0.584  10.800  1.00  0.00    -0.267 OA
HETATM   13  C23 UNL     1       5.893  -0.686  12.426  1.00  0.00     0.062 A 
BRANCH   9  14
HETATM   14  C16 UNL     1       2.293   1.445  11.613  1.00  0.00     0.036 A 
HETATM   15  C17 UNL     1       1.342   0.882  10.568  1.00  0.00     0.011 A 
HETATM   16  C18 UNL     1       0.982   0.923  12.039  1.00  0.00     0.011 A 
ENDBRANCH   9  14
BRANCH  10  17
HETATM   17  C19 UNL     1       4.632   2.016  10.170  1.00  0.00     0.093 A 
HETATM   18  C20 UNL     1       5.748   2.719   9.570  1.00  0.00     0.028 A 
HETATM   19  C21 UNL     1       5.014   3.431  10.707  1.00  0.00     0.028 A 
ENDBRANCH  10  17
BRANCH  13  20
HETATM   20  C24 UNL     1       7.127  -1.410  12.707  1.00  0.00     0.278 C 
BRANCH  20  21
HETATM   21  N5  UNL     1       8.145  -0.639  13.417  1.00  0.00    -0.069 N 
ATOM     22  H52 UNL     1       7.963   0.363  13.463  1.00  0.00     0.277 HD
ATOM     23  H51 UNL     1       8.163  -0.790  14.426  1.00  0.00     0.277 HD
BRANCH  21  24
HETATM   24  C25 UNL     1       9.403  -1.005  12.717  1.00  0.00     0.258 C 
BRANCH  24  25
HETATM   25  C26 UNL     1       9.935   0.206  11.977  1.00  0.00     0.191 C 
BRANCH  25  26
HETATM   26  O3  UNL     1       9.920   0.002  10.597  1.00  0.00    -0.399 OA
ATOM     27  H3  UNL     1       9.503   0.726  10.146  1.00  0.00     0.209 HD
ENDBRANCH  25  26
ENDBRANCH  24  25
ENDBRANCH  21  24
ENDBRANCH  20  21
ENDBRANCH  13  20
ENDBRANCH   4   7
BRANCH   1  28
HETATM   28  C10 UNL     1       5.022  -5.035  16.982  1.00  0.00     0.145 C 
BRANCH  28  29
HETATM   29  C2  UNL     1       5.772  -6.276  17.111  1.00  0.00     0.259 C 
BRANCH  29  30
HETATM   30  N1  UNL     1       4.855  -7.426  17.168  1.00  0.00    -0.067 N 
HETATM   31  C1  UNL     1       5.362  -8.513  17.944  1.00  0.00     0.267 C 
ATOM     32  H12 UNL     1       4.605  -7.737  16.230  1.00  0.00     0.277 HD
ATOM     33  H11 UNL     1       3.935  -7.141  17.501  1.00  0.00     0.277 HD
ENDBRANCH  29  30
BRANCH  29  34
HETATM   34  C3  UNL     1       6.820  -6.403  18.134  1.00  0.00     0.046 C 
BRANCH  34  35
HETATM   35  C4  UNL     1       8.075  -5.694  17.610  1.00  0.00    -0.012 C 
HETATM   36  C5  UNL     1       9.300  -6.073  18.382  1.00  0.00     0.005 C 
HETATM   37  C6  UNL     1      10.551  -5.933  17.498  1.00  0.00     0.000 C 
HETATM   38  C7  UNL     1      10.343  -4.753  16.556  1.00  0.00     0.000 C 
HETATM   39  C8  UNL     1       9.251  -5.047  15.567  1.00  0.00     0.000 C 
HETATM   40  C9  UNL     1       8.322  -6.080  16.159  1.00  0.00     0.005 C 
ENDBRANCH  34  35
ENDBRANCH  29  34
ENDBRANCH  28  29
BRANCH  28  41
HETATM   41  O1  UNL     1       4.174  -4.889  17.993  1.00  0.00    -0.348 OA
ATOM     42  H1  UNL     1       3.805  -4.014  18.000  1.00  0.00     0.219 HD
ENDBRANCH  28  41
ENDBRANCH   1  28
TORSDOF 14
ENDMDL
MODEL 5
REMARK VINA RESULT: -8.006911561      2.888      5.777
REMARK  14 active torsions:
REMARK  status: ('A' for Active; 'I' for Inactive)
REMARK    1  A    between atoms: N1_2  and  C2_5 
REMARK    2  A    between atoms: C2_5  and  C3_6 
REMARK    3  A    between atoms: C2_5  and  C10_13 
REMARK    4  A    between atoms: C3_6  and  C4_7 
REMARK    5  A    between atoms: C10_13  and  O1_14 
REMARK    6  A    between atoms: C10_13  and  N2_16 
REMARK    7  A    between atoms: N3_19  and  C13_20 
REMARK    8  A    between atoms: C15_22  and  C16_23 
REMARK    9  A    between atoms: N4_26  and  C19_27 
REMARK   10  A    between atoms: C23_32  and  C24_33 
REMARK   11  A    between atoms: C24_33  and  N5_34 
REMARK   12  A    between atoms: N5_34  and  C25_37 
REMARK   13  A    between atoms: C25_37  and  C26_38 
REMARK   14  A    between atoms: C26_38  and  O3_39 
ROOT
HETATM    1  N2  UNL     1       6.371  -5.252  17.062  1.00  0.00    -0.361 N 
HETATM    2  C11 UNL     1       5.592  -5.468  15.886  1.00  0.00     0.144 C 
HETATM    3  C12 UNL     1       6.328  -4.785  14.707  1.00  0.00     0.143 C 
HETATM    4  N3  UNL     1       6.275  -3.370  14.935  1.00  0.00    -0.377 N 
HETATM    5  C27 UNL     1       6.438  -2.886  16.322  1.00  0.00     0.143 C 
HETATM    6  C28 UNL     1       7.120  -3.981  17.120  1.00  0.00     0.144 C 
ENDROOT
BRANCH   4   7
HETATM    7  C13 UNL     1       6.080  -2.445  13.920  1.00  0.00     0.045 A 
HETATM    8  C14 UNL     1       7.174  -1.806  13.311  1.00  0.00     0.055 A 
HETATM    9  C15 UNL     1       7.029  -0.889  12.294  1.00  0.00     0.021 A 
HETATM   10  N4  UNL     1       5.784  -0.591  11.863  1.00  0.00    -0.312 N 
HETATM   11  C22 UNL     1       4.716  -1.205  12.448  1.00  0.00     0.258 A 
HETATM   12  O2  UNL     1       3.592  -0.888  12.004  1.00  0.00    -0.267 OA
HETATM   13  C23 UNL     1       4.822  -2.122  13.462  1.00  0.00     0.062 A 
BRANCH   9  14
HETATM   14  C16 UNL     1       8.248  -0.278  11.723  1.00  0.00     0.036 A 
HETATM   15  C17 UNL     1       8.997   0.749  12.558  1.00  0.00     0.011 A 
HETATM   16  C18 UNL     1       9.606  -0.590  12.199  1.00  0.00     0.011 A 
ENDBRANCH   9  14
BRANCH  10  17
HETATM   17  C19 UNL     1       5.674   0.368  10.807  1.00  0.00     0.093 A 
HETATM   18  C20 UNL     1       6.256   1.695  10.774  1.00  0.00     0.028 A 
HETATM   19  C21 UNL     1       4.787   1.596  11.184  1.00  0.00     0.028 A 
ENDBRANCH  10  17
BRANCH  13  20
HETATM   20  C24 UNL     1       3.649  -2.756  14.052  1.00  0.00     0.278 C 
BRANCH  20  21
HETATM   21  N5  UNL     1       2.998  -1.986  15.109  1.00  0.00    -0.069 N 
ATOM     22  H52 UNL     1       3.639  -1.499  15.735  1.00  0.00     0.277 HD
ATOM     23  H51 UNL     1       2.512  -1.150  14.785  1.00  0.00     0.277 HD
BRANCH  21  24
HETATM   24  C25 UNL     1       2.126  -2.986  15.775  1.00  0.00     0.258 C 
BRANCH  24  25
HETATM   25  C26 UNL     1       2.864  -3.590  16.953  1.00  0.00     0.191 C 
BRANCH  25  26
HETATM   26  O3  UNL     1       3.287  -2.604  17.845  1.00  0.00    -0.399 OA
ATOM     27  H3  UNL     1       3.174  -2.882  18.746  1.00  0.00     0.209 HD
ENDBRANCH  25  26
ENDBRANCH  24  25
ENDBRANCH  21  24
ENDBRANCH  20  21
ENDBRANCH  13  20
ENDBRANCH   4   7
BRANCH   1  28
HETATM   28  C10 UNL     1       6.478  -6.101  18.140  1.00  0.00     0.145 C 
BRANCH  28  29
HETATM   29  C2  UNL     1       6.370  -7.537  18.352  1.00  0.00     0.259 C 
BRANCH  29  30
HETATM   30  N1  UNL     1       5.496  -7.821  19.502  1.00  0.00    -0.067 N 
HETATM   31  C1  UNL     1       4.389  -8.662  19.173  1.00  0.00     0.267 C 
ATOM     32  H12 UNL     1       5.177  -6.956  19.937  1.00  0.00     0.277 HD
ATOM     33  H11 UNL     1       6.031  -8.213  20.277  1.00  0.00     0.277 HD
ENDBRANCH  29  30
BRANCH  29  34
HETATM   34  C3  UNL     1       7.582  -8.368  18.410  1.00  0.00     0.046 C 
BRANCH  34  35
HETATM   35  C4  UNL     1       8.794  -7.441  18.254  1.00  0.00    -0.012 C 
HETATM   36  C5  UNL     1       9.965  -7.905  19.062  1.00  0.00     0.005 C 
HETATM   37  C6  UNL     1      11.278  -7.429  18.417  1.00  0.00     0.000 C 
HETATM   38  C7  UNL     1      11.035  -6.064  17.785  1.00  0.00     0.000 C 
HETATM   39  C8  UNL     1      10.097  -6.177  16.617  1.00  0.00     0.000 C 
HETATM   40  C9  UNL     1       9.238  -7.406  16.799  1.00  0.00     0.005 C 
ENDBRANCH  34  35
ENDBRANCH  29  34
ENDBRANCH  28  29
BRANCH  28  41
HETATM   41  O1  UNL     1       6.747  -5.475  19.279  1.00  0.00    -0.348 OA
ATOM     42  H1  UNL     1       6.314  -4.629  19.310  1.00  0.00     0.219 HD
ENDBRANCH  28  41
ENDBRANCH   1  28
TORSDOF 14
ENDMDL
