MODEL 1
REMARK VINA RESULT: -8.603828762      0.000      0.000
REMARK  11 active torsions:
REMARK  status: ('A' for Active; 'I' for Inactive)
REMARK    1  A    between atoms: C1_2  and  C2_3 
REMARK       I    between atoms: C1_2  and  N4_27 
REMARK    2  A    between atoms: C2_3  and  C3_4 
REMARK    3  A    between atoms: N2_11  and  C7_12 
REMARK    4  A    between atoms: C7_12  and  C8_13 
REMARK    5  A    between atoms: C8_13  and  C9_14 
REMARK    6  A    between atoms: C9_14  and  C10_15 
REMARK    7  A    between atoms: C10_15  and  C11_16 
REMARK    8  A    between atoms: C11_16  and  C12_17 
REMARK    9  A    between atoms: C12_17  and  C13_18 
REMARK   10  A    between atoms: C13_18  and  C14_19 
REMARK       I    between atoms: C14_19  and  N3_21 
REMARK   11  A    between atoms: N4_27  and  C19_29 
ROOT
HETATM    1  C3  UNL     1       4.976   0.038  12.201  1.00  0.00     0.264 C 
HETATM    2  C4  UNL     1       4.655   1.403  11.687  1.00  0.00     0.252 A 
HETATM    3  N1  UNL     1       4.536   1.640  10.268  1.00  0.00    -0.059 N 
ATOM      4  H11 UNL     1       3.943   2.235   9.691  1.00  0.00     0.278 HD
ATOM      5  H12 UNL     1       4.193   1.092   9.478  1.00  0.00     0.278 HD
HETATM    6  C5  UNL     1       5.829   1.806  10.902  1.00  0.00     0.247 A 
HETATM    7  C6  UNL     1       6.778   0.644  10.945  1.00  0.00     0.308 C 
HETATM    8  N2  UNL     1       6.341  -0.273  11.936  1.00  0.00     0.097 N 
ENDROOT
BRANCH   1   9
HETATM    9  C2  UNL     1       4.080  -1.034  11.691  1.00  0.00     0.141 C 
BRANCH   9  10
HETATM   10  C1  UNL     1       4.161  -2.210  12.646  1.00  0.00     0.224 C 
HETATM   11  O1  UNL     1       4.643  -3.267  12.195  1.00  0.00    -0.273 OA
HETATM   12  N4  UNL     1       3.682  -1.969  13.939  1.00  0.00    -0.327 N 
ATOM     13  H4  UNL     1       3.321  -1.034  14.128  1.00  0.00     0.169 HD
BRANCH  12  14
HETATM   14  C19 UNL     1       3.648  -2.893  15.007  1.00  0.00     0.038 A 
HETATM   15  C20 UNL     1       2.511  -3.353  15.631  1.00  0.00     0.047 A 
HETATM   16  C21 UNL     1       2.616  -4.264  16.685  1.00  0.00     0.104 A 
HETATM   17  N5  UNL     1       3.769  -4.738  17.148  1.00  0.00    -0.273 N 
HETATM   18  C22 UNL     1       4.113  -5.608  18.136  1.00  0.00     0.331 A 
HETATM   19  C24 UNL     1       4.891  -4.305  16.556  1.00  0.00     0.061 A 
HETATM   20  O3  UNL     1       3.304  -6.207  18.897  1.00  0.00    -0.246 OA
HETATM   21  N6  UNL     1       5.448  -5.736  18.182  1.00  0.00    -0.316 N 
HETATM   22  C23 UNL     1       5.940  -4.947  17.225  1.00  0.00     0.123 A 
ATOM     23  H6  UNL     1       5.983  -6.321  18.823  1.00  0.00     0.170 HD
HETATM   24  C25 UNL     1       4.847  -3.410  15.518  1.00  0.00     0.061 A 
ENDBRANCH  12  14
ENDBRANCH   9  10
ENDBRANCH   1   9
BRANCH   8  25
HETATM   25  C7  UNL     1       7.082  -0.331  13.146  1.00  0.00     0.273 C 
BRANCH  25  26
HETATM   26  C8  UNL     1       7.704  -1.724  13.383  1.00  0.00     0.030 C 
BRANCH  26  27
HETATM   27  C9  UNL     1       8.354  -1.785  14.714  1.00  0.00     0.002 C 
BRANCH  27  28
HETATM   28  C10 UNL     1       9.792  -2.068  14.825  1.00  0.00     0.000 C 
BRANCH  28  29
HETATM   29  C11 UNL     1      10.336  -3.196  15.584  1.00  0.00     0.000 C 
BRANCH  29  30
HETATM   30  C12 UNL     1       9.448  -4.120  16.314  1.00  0.00     0.009 C 
BRANCH  30  31
HETATM   31  C13 UNL     1      10.135  -5.441  16.669  1.00  0.00     0.103 C 
BRANCH  31  32
HETATM   32  C14 UNL     1       9.244  -6.575  16.466  1.00  0.00     0.219 C 
HETATM   33  O2  UNL     1       8.803  -6.895  15.324  1.00  0.00    -0.273 OA
HETATM   34  N3  UNL     1       8.844  -7.360  17.604  1.00  0.00    -0.351 N 
HETATM   35  C15 UNL     1       9.331  -7.011  18.894  1.00  0.00     0.136 C 
HETATM   36  C18 UNL     1       7.961  -8.491  17.439  1.00  0.00     0.136 C 
HETATM   37  C16 UNL     1      10.404  -7.975  19.351  1.00  0.00     0.093 C 
HETATM   38  S1  UNL     1       9.984  -9.680  18.912  1.00  0.00    -0.166 SA
HETATM   39  C17 UNL     1       8.660  -9.783  17.707  1.00  0.00     0.093 C 
ENDBRANCH  31  32
ENDBRANCH  30  31
ENDBRANCH  29  30
ENDBRANCH  28  29
ENDBRANCH  27  28
ENDBRANCH  26  27
ENDBRANCH  25  26
ENDBRANCH   8  25
TORSDOF 11
ENDMDL
MODEL 2
REMARK VINA RESULT: -8.569626741      1.933      5.966
REMARK  11 active torsions:
REMARK  status: ('A' for Active; 'I' for Inactive)
REMARK    1  A    between atoms: C1_2  and  C2_3 
REMARK       I    between atoms: C1_2  and  N4_27 
REMARK    2  A    between atoms: C2_3  and  C3_4 
REMARK    3  A    between atoms: N2_11  and  C7_12 
REMARK    4  A    between atoms: C7_12  and  C8_13 
REMARK    5  A    between atoms: C8_13  and  C9_14 
REMARK    6  A    between atoms: C9_14  and  C10_15 
REMARK    7  A    between atoms: C10_15  and  C11_16 
REMARK    8  A    between atoms: C11_16  and  C12_17 
REMARK    9  A    between atoms: C12_17  and  C13_18 
REMARK   10  A    between atoms: C13_18  and  C14_19 
REMARK       I    between atoms: C14_19  and  N3_21 
REMARK   11  A    between atoms: N4_27  and  C19_29 
ROOT
HETATM    1  C3  UNL     1       4.510  -3.725  15.225  1.00  0.00     0.264 C 
HETATM    2  C4  UNL     1       4.552  -5.125  15.743  1.00  0.00     0.252 A 
HETATM    3  N1  UNL     1       3.328  -5.832  16.036  1.00  0.00    -0.059 N 
ATOM      4  H11 UNL     1       3.025  -6.802  15.948  1.00  0.00     0.278 HD
ATOM      5  H12 UNL     1       2.395  -5.847  15.623  1.00  0.00     0.278 HD
HETATM    6  C5  UNL     1       3.960  -5.058  17.086  1.00  0.00     0.247 A 
HETATM    7  C6  UNL     1       3.550  -3.629  17.290  1.00  0.00     0.308 C 
HETATM    8  N2  UNL     1       4.129  -2.832  16.269  1.00  0.00     0.097 N 
ENDROOT
BRANCH   1   9
HETATM    9  C2  UNL     1       3.647  -3.540  14.028  1.00  0.00     0.141 C 
BRANCH   9  10
HETATM   10  C1  UNL     1       4.350  -2.584  13.083  1.00  0.00     0.224 C 
HETATM   11  O1  UNL     1       5.058  -3.092  12.193  1.00  0.00    -0.273 OA
HETATM   12  N4  UNL     1       4.118  -1.224  13.322  1.00  0.00    -0.327 N 
ATOM     13  H4  UNL     1       3.504  -0.993  14.103  1.00  0.00     0.169 HD
BRANCH  12  14
HETATM   14  C19 UNL     1       4.650  -0.140  12.588  1.00  0.00     0.038 A 
HETATM   15  C20 UNL     1       4.028   0.495  11.538  1.00  0.00     0.047 A 
HETATM   16  C21 UNL     1       4.668   1.554  10.889  1.00  0.00     0.104 A 
HETATM   17  N5  UNL     1       5.872   2.013  11.219  1.00  0.00    -0.273 N 
HETATM   18  C22 UNL     1       6.676   3.003  10.748  1.00  0.00     0.331 A 
HETATM   19  C24 UNL     1       6.497   1.410  12.240  1.00  0.00     0.061 A 
HETATM   20  O3  UNL     1       6.401   3.774   9.788  1.00  0.00    -0.246 OA
HETATM   21  N6  UNL     1       7.814   3.040  11.460  1.00  0.00    -0.316 N 
HETATM   22  C23 UNL     1       7.722   2.074  12.375  1.00  0.00     0.123 A 
ATOM     23  H6  UNL     1       8.595   3.682  11.327  1.00  0.00     0.170 HD
HETATM   24  C25 UNL     1       5.917   0.365  12.913  1.00  0.00     0.061 A 
ENDBRANCH  12  14
ENDBRANCH   9  10
ENDBRANCH   1   9
BRANCH   8  25
HETATM   25  C7  UNL     1       5.219  -1.995  16.630  1.00  0.00     0.273 C 
BRANCH  25  26
HETATM   26  C8  UNL     1       6.580  -2.607  16.232  1.00  0.00     0.030 C 
BRANCH  26  27
HETATM   27  C9  UNL     1       7.434  -1.590  15.573  1.00  0.00     0.002 C 
BRANCH  27  28
HETATM   28  C10 UNL     1       8.334  -1.976  14.477  1.00  0.00     0.000 C 
BRANCH  28  29
HETATM   29  C11 UNL     1       9.735  -2.353  14.678  1.00  0.00     0.000 C 
BRANCH  29  30
HETATM   30  C12 UNL     1      10.157  -3.090  15.884  1.00  0.00     0.009 C 
BRANCH  30  31
HETATM   31  C13 UNL     1      10.322  -4.590  15.630  1.00  0.00     0.103 C 
BRANCH  31  32
HETATM   32  C14 UNL     1       9.081  -5.312  15.879  1.00  0.00     0.219 C 
HETATM   33  O2  UNL     1       8.194  -5.461  14.989  1.00  0.00    -0.273 OA
HETATM   34  N3  UNL     1       8.849  -5.872  17.184  1.00  0.00    -0.351 N 
HETATM   35  C15 UNL     1       9.836  -5.710  18.194  1.00  0.00     0.136 C 
HETATM   36  C18 UNL     1       7.629  -6.591  17.465  1.00  0.00     0.136 C 
HETATM   37  C16 UNL     1      10.596  -6.998  18.426  1.00  0.00     0.093 C 
HETATM   38  S1  UNL     1       9.487  -8.428  18.387  1.00  0.00    -0.166 SA
HETATM   39  C17 UNL     1       7.883  -8.047  17.683  1.00  0.00     0.093 C 
ENDBRANCH  31  32
ENDBRANCH  30  31
ENDBRANCH  29  30
ENDBRANCH  28  29
ENDBRANCH  27  28
ENDBRANCH  26  27
ENDBRANCH  25  26
ENDBRANCH   8  25
TORSDOF 11
ENDMDL
MODEL 3
REMARK VINA RESULT: -8.539354167      1.503      1.850
REMARK  11 active torsions:
REMARK  status: ('A' for Active; 'I' for Inactive)
REMARK    1  A    between atoms: C1_2  and  C2_3 
REMARK       I    between atoms: C1_2  and  N4_27 
REMARK    2  A    between atoms: C2_3  and  C3_4 
REMARK    3  A    between atoms: N2_11  and  C7_12 
REMARK    4  A    between atoms: C7_12  and  C8_13 
REMARK    5  A    between atoms: C8_13  and  C9_14 
REMARK    6  A    between atoms: C9_14  and  C10_15 
REMARK    7  A    between atoms: C10_15  and  C11_16 
REMARK    8  A    between atoms: C11_16  and  C12_17 
REMARK    9  A    between atoms: C12_17  and  C13_18 
REMARK   10  A    between atoms: C13_18  and  C14_19 
REMARK       I    between atoms: C14_19  and  N3_21 
REMARK   11  A    between atoms: N4_27  and  C19_29 
ROOT
HETATM    1  C3  UNL     1       4.126  -0.543  12.598  1.00  0.00     0.264 C 
HETATM    2  C4  UNL     1       3.002   0.287  12.068  1.00  0.00     0.252 A 
HETATM    3  N1  UNL     1       2.714   0.309  10.654  1.00  0.00    -0.059 N 
ATOM      4  H11 UNL     1       1.859   0.365  10.100  1.00  0.00     0.278 HD
ATOM      5  H12 UNL     1       2.765  -0.380   9.904  1.00  0.00     0.278 HD
HETATM    6  C5  UNL     1       3.636   1.286  11.199  1.00  0.00     0.247 A 
HETATM    7  C6  UNL     1       5.105   0.979  11.212  1.00  0.00     0.308 C 
HETATM    8  N2  UNL     1       5.374   0.054  12.253  1.00  0.00     0.097 N 
ENDROOT
BRANCH   1   9
HETATM    9  C2  UNL     1       4.085  -1.968  12.176  1.00  0.00     0.141 C 
BRANCH   9  10
HETATM   10  C1  UNL     1       4.368  -2.828  13.394  1.00  0.00     0.224 C 
HETATM   11  O1  UNL     1       5.523  -3.281  13.506  1.00  0.00    -0.273 OA
HETATM   12  N4  UNL     1       3.286  -3.014  14.262  1.00  0.00    -0.327 N 
ATOM     13  H4  UNL     1       2.408  -2.563  14.006  1.00  0.00     0.169 HD
BRANCH  12  14
HETATM   14  C19 UNL     1       3.289  -3.766  15.459  1.00  0.00     0.038 A 
HETATM   15  C20 UNL     1       3.028  -3.268  16.715  1.00  0.00     0.047 A 
HETATM   16  C21 UNL     1       3.071  -4.120  17.822  1.00  0.00     0.104 A 
HETATM   17  N5  UNL     1       3.353  -5.417  17.755  1.00  0.00    -0.273 N 
HETATM   18  C22 UNL     1       3.452  -6.420  18.668  1.00  0.00     0.331 A 
HETATM   19  C24 UNL     1       3.611  -5.925  16.541  1.00  0.00     0.061 A 
HETATM   20  O3  UNL     1       3.272  -6.296  19.911  1.00  0.00    -0.246 OA
HETATM   21  N6  UNL     1       3.771  -7.568  18.050  1.00  0.00    -0.316 N 
HETATM   22  C23 UNL     1       3.873  -7.284  16.750  1.00  0.00     0.123 A 
ATOM     23  H6  UNL     1       3.909  -8.478  18.487  1.00  0.00     0.170 HD
HETATM   24  C25 UNL     1       3.583  -5.136  15.419  1.00  0.00     0.061 A 
ENDBRANCH  12  14
ENDBRANCH   9  10
ENDBRANCH   1   9
BRANCH   8  25
HETATM   25  C7  UNL     1       6.027   0.547  13.415  1.00  0.00     0.273 C 
BRANCH  25  26
HETATM   26  C8  UNL     1       7.561   0.586  13.248  1.00  0.00     0.030 C 
BRANCH  26  27
HETATM   27  C9  UNL     1       8.105  -0.787  13.114  1.00  0.00     0.002 C 
BRANCH  27  28
HETATM   28  C10 UNL     1       8.480  -1.556  14.309  1.00  0.00     0.000 C 
BRANCH  28  29
HETATM   29  C11 UNL     1       9.800  -2.163  14.497  1.00  0.00     0.000 C 
BRANCH  29  30
HETATM   30  C12 UNL     1      10.139  -2.869  15.746  1.00  0.00     0.009 C 
BRANCH  30  31
HETATM   31  C13 UNL     1       9.891  -4.377  15.656  1.00  0.00     0.103 C 
BRANCH  31  32
HETATM   32  C14 UNL     1       8.645  -4.751  16.311  1.00  0.00     0.219 C 
HETATM   33  O2  UNL     1       7.514  -4.555  15.778  1.00  0.00    -0.273 OA
HETATM   34  N3  UNL     1       8.697  -5.363  17.613  1.00  0.00    -0.351 N 
HETATM   35  C15 UNL     1       9.960  -5.588  18.224  1.00  0.00     0.136 C 
HETATM   36  C18 UNL     1       7.480  -5.745  18.290  1.00  0.00     0.136 C 
HETATM   37  C16 UNL     1      10.338  -7.052  18.173  1.00  0.00     0.093 C 
HETATM   38  S1  UNL     1       8.907  -8.109  18.507  1.00  0.00    -0.166 SA
HETATM   39  C17 UNL     1       7.349  -7.229  18.398  1.00  0.00     0.093 C 
ENDBRANCH  31  32
ENDBRANCH  30  31
ENDBRANCH  29  30
ENDBRANCH  28  29
ENDBRANCH  27  28
ENDBRANCH  26  27
ENDBRANCH  25  26
ENDBRANCH   8  25
TORSDOF 11
ENDMDL
MODEL 4
REMARK VINA RESULT: -8.503816003      2.054      5.913
REMARK  11 active torsions:
REMARK  status: ('A' for Active; 'I' for Inactive)
REMARK    1  A    between atoms: C1_2  and  C2_3 
REMARK       I    between atoms: C1_2  and  N4_27 
REMARK    2  A    between atoms: C2_3  and  C3_4 
REMARK    3  A    between atoms: N2_11  and  C7_12 
REMARK    4  A    between atoms: C7_12  and  C8_13 
REMARK    5  A    between atoms: C8_13  and  C9_14 
REMARK    6  A    between atoms: C9_14  and  C10_15 
REMARK    7  A    between atoms: C10_15  and  C11_16 
REMARK    8  A    between atoms: C11_16  and  C12_17 
REMARK    9  A    between atoms: C12_17  and  C13_18 
REMARK   10  A    between atoms: C13_18  and  C14_19 
REMARK       I    between atoms: C14_19  and  N3_21 
REMARK   11  A    between atoms: N4_27  and  C19_29 
ROOT
HETATM    1  C3  UNL     1       4.360  -4.034  14.801  1.00  0.00     0.264 C 
HETATM    2  C4  UNL     1       3.697  -4.892  15.828  1.00  0.00     0.252 A 
HETATM    3  N1  UNL     1       2.571  -4.392  16.581  1.00  0.00    -0.059 N 
ATOM      4  H11 UNL     1       1.715  -4.809  16.946  1.00  0.00     0.278 HD
ATOM      5  H12 UNL     1       1.789  -3.771  16.369  1.00  0.00     0.278 HD
HETATM    6  C5  UNL     1       3.908  -4.197  17.106  1.00  0.00     0.247 A 
HETATM    7  C6  UNL     1       4.646  -2.933  16.776  1.00  0.00     0.308 C 
HETATM    8  N2  UNL     1       5.116  -3.008  15.439  1.00  0.00     0.097 N 
ENDROOT
BRANCH   1   9
HETATM    9  C2  UNL     1       3.430  -3.459  13.792  1.00  0.00     0.141 C 
BRANCH   9  10
HETATM   10  C1  UNL     1       4.223  -2.521  12.902  1.00  0.00     0.224 C 
HETATM   11  O1  UNL     1       4.930  -3.046  12.020  1.00  0.00    -0.273 OA
HETATM   12  N4  UNL     1       4.066  -1.157  13.175  1.00  0.00    -0.327 N 
ATOM     13  H4  UNL     1       3.440  -0.911  13.942  1.00  0.00     0.169 HD
BRANCH  12  14
HETATM   14  C19 UNL     1       4.689  -0.087  12.494  1.00  0.00     0.038 A 
HETATM   15  C20 UNL     1       4.209   0.524  11.358  1.00  0.00     0.047 A 
HETATM   16  C21 UNL     1       4.927   1.571  10.776  1.00  0.00     0.104 A 
HETATM   17  N5  UNL     1       6.078   2.040  11.249  1.00  0.00    -0.273 N 
HETATM   18  C22 UNL     1       6.936   3.023  10.866  1.00  0.00     0.331 A 
HETATM   19  C24 UNL     1       6.565   1.461  12.355  1.00  0.00     0.061 A 
HETATM   20  O3  UNL     1       6.788   3.772   9.861  1.00  0.00    -0.246 OA
HETATM   21  N6  UNL     1       7.972   3.078  11.718  1.00  0.00    -0.316 N 
HETATM   22  C23 UNL     1       7.762   2.131  12.634  1.00  0.00     0.123 A 
ATOM     23  H6  UNL     1       8.764   3.719  11.674  1.00  0.00     0.170 HD
HETATM   24  C25 UNL     1       5.903   0.429  12.969  1.00  0.00     0.061 A 
ENDBRANCH  12  14
ENDBRANCH   9  10
ENDBRANCH   1   9
BRANCH   8  25
HETATM   25  C7  UNL     1       6.507  -3.221  15.244  1.00  0.00     0.273 C 
BRANCH  25  26
HETATM   26  C8  UNL     1       7.367  -2.211  16.034  1.00  0.00     0.030 C 
BRANCH  26  27
HETATM   27  C9  UNL     1       8.556  -1.809  15.244  1.00  0.00     0.002 C 
BRANCH  27  28
HETATM   28  C10 UNL     1       9.719  -2.701  15.150  1.00  0.00     0.000 C 
BRANCH  28  29
HETATM   29  C11 UNL     1      10.060  -3.695  16.171  1.00  0.00     0.000 C 
BRANCH  29  30
HETATM   30  C12 UNL     1       9.707  -5.116  15.994  1.00  0.00     0.009 C 
BRANCH  30  31
HETATM   31  C13 UNL     1       8.814  -5.645  17.118  1.00  0.00     0.103 C 
BRANCH  31  32
HETATM   32  C14 UNL     1       9.582  -6.405  18.095  1.00  0.00     0.219 C 
HETATM   33  O2  UNL     1      10.257  -5.848  19.009  1.00  0.00    -0.273 OA
HETATM   34  N3  UNL     1       9.580  -7.843  18.019  1.00  0.00    -0.351 N 
HETATM   35  C15 UNL     1       8.828  -8.482  16.996  1.00  0.00     0.136 C 
HETATM   36  C18 UNL     1      10.332  -8.626  18.970  1.00  0.00     0.136 C 
HETATM   37  C16 UNL     1       7.565  -9.101  17.554  1.00  0.00     0.093 C 
HETATM   38  S1  UNL     1       7.873  -9.887  19.155  1.00  0.00    -0.166 SA
HETATM   39  C17 UNL     1       9.437  -9.398  19.882  1.00  0.00     0.093 C 
ENDBRANCH  31  32
ENDBRANCH  30  31
ENDBRANCH  29  30
ENDBRANCH  28  29
ENDBRANCH  27  28
ENDBRANCH  26  27
ENDBRANCH  25  26
ENDBRANCH   8  25
TORSDOF 11
ENDMDL
MODEL 5
REMARK VINA RESULT: -8.503102576      0.944      1.134
REMARK  11 active torsions:
REMARK  status: ('A' for Active; 'I' for Inactive)
REMARK    1  A    between atoms: C1_2  and  C2_3 
REMARK       I    between atoms: C1_2  and  N4_27 
REMARK    2  A    between atoms: C2_3  and  C3_4 
REMARK    3  A    between atoms: N2_11  and  C7_12 
REMARK    4  A    between atoms: C7_12  and  C8_13 
REMARK    5  A    between atoms: C8_13  and  C9_14 
REMARK    6  A    between atoms: C9_14  and  C10_15 
REMARK    7  A    between atoms: C10_15  and  C11_16 
REMARK    8  A    between atoms: C11_16  and  C12_17 
REMARK    9  A    between atoms: C12_17  and  C13_18 
REMARK   10  A    between atoms: C13_18  and  C14_19 
REMARK       I    between atoms: C14_19  and  N3_21 
REMARK   11  A    between atoms: N4_27  and  C19_29 
ROOT
HETATM    1  C3  UNL     1       4.293   0.445  12.237  1.00  0.00     0.264 C 
HETATM    2  C4  UNL     1       3.539   1.652  11.783  1.00  0.00     0.252 A 
HETATM    3  N1  UNL     1       3.536   2.030  10.390  1.00  0.00    -0.059 N 
ATOM      4  H11 UNL     1       2.844   2.439   9.763  1.00  0.00     0.278 HD
ATOM      5  H12 UNL     1       3.548   1.514   9.510  1.00  0.00     0.278 HD
HETATM    6  C5  UNL     1       4.560   2.571  11.262  1.00  0.00     0.247 A 
HETATM    7  C6  UNL     1       5.871   1.852  11.386  1.00  0.00     0.308 C 
HETATM    8  N2  UNL     1       5.694   0.706  12.204  1.00  0.00     0.097 N 
ENDROOT
BRANCH   1   9
HETATM    9  C2  UNL     1       3.966  -0.797  11.488  1.00  0.00     0.141 C 
BRANCH   9  10
HETATM   10  C1  UNL     1       4.072  -1.968  12.447  1.00  0.00     0.224 C 
HETATM   11  O1  UNL     1       4.648  -2.989  12.026  1.00  0.00    -0.273 OA
HETATM   12  N4  UNL     1       3.506  -1.762  13.711  1.00  0.00    -0.327 N 
ATOM     13  H4  UNL     1       3.073  -0.854  13.878  1.00  0.00     0.169 HD
BRANCH  12  14
HETATM   14  C19 UNL     1       3.474  -2.689  14.777  1.00  0.00     0.038 A 
HETATM   15  C20 UNL     1       2.336  -3.216  15.344  1.00  0.00     0.047 A 
HETATM   16  C21 UNL     1       2.442  -4.122  16.403  1.00  0.00     0.104 A 
HETATM   17  N5  UNL     1       3.596  -4.529  16.923  1.00  0.00    -0.273 N 
HETATM   18  C22 UNL     1       3.942  -5.379  17.926  1.00  0.00     0.331 A 
HETATM   19  C24 UNL     1       4.719  -4.029  16.387  1.00  0.00     0.061 A 
HETATM   20  O3  UNL     1       3.133  -6.026  18.647  1.00  0.00    -0.246 OA
HETATM   21  N6  UNL     1       5.278  -5.429  18.039  1.00  0.00    -0.316 N 
HETATM   22  C23 UNL     1       5.769  -4.610  17.106  1.00  0.00     0.123 A 
ATOM     23  H6  UNL     1       5.814  -5.983  18.706  1.00  0.00     0.170 HD
HETATM   24  C25 UNL     1       4.674  -3.136  15.346  1.00  0.00     0.061 A 
ENDBRANCH  12  14
ENDBRANCH   9  10
ENDBRANCH   1   9
BRANCH   8  25
HETATM   25  C7  UNL     1       6.222   0.753  13.522  1.00  0.00     0.273 C 
BRANCH  25  26
HETATM   26  C8  UNL     1       6.881  -0.581  13.933  1.00  0.00     0.030 C 
BRANCH  26  27
HETATM   27  C9  UNL     1       7.900  -0.988  12.936  1.00  0.00     0.002 C 
BRANCH  27  28
HETATM   28  C10 UNL     1       9.235  -1.420  13.374  1.00  0.00     0.000 C 
BRANCH  28  29
HETATM   29  C11 UNL     1       9.479  -2.147  14.621  1.00  0.00     0.000 C 
BRANCH  29  30
HETATM   30  C12 UNL     1       8.766  -3.403  14.920  1.00  0.00     0.009 C 
BRANCH  30  31
HETATM   31  C13 UNL     1       9.670  -4.455  15.567  1.00  0.00     0.103 C 
BRANCH  31  32
HETATM   32  C14 UNL     1       9.008  -5.750  15.646  1.00  0.00     0.219 C 
HETATM   33  O2  UNL     1       8.622  -6.377  14.617  1.00  0.00    -0.273 OA
HETATM   34  N3  UNL     1       8.779  -6.339  16.939  1.00  0.00    -0.351 N 
HETATM   35  C15 UNL     1       9.205  -5.644  18.104  1.00  0.00     0.136 C 
HETATM   36  C18 UNL     1       8.124  -7.621  17.052  1.00  0.00     0.136 C 
HETATM   37  C16 UNL     1      10.447  -6.277  18.692  1.00  0.00     0.093 C 
HETATM   38  S1  UNL     1      10.353  -8.084  18.631  1.00  0.00    -0.166 SA
HETATM   39  C17 UNL     1       9.058  -8.678  17.542  1.00  0.00     0.093 C 
ENDBRANCH  31  32
ENDBRANCH  30  31
ENDBRANCH  29  30
ENDBRANCH  28  29
ENDBRANCH  27  28
ENDBRANCH  26  27
ENDBRANCH  25  26
ENDBRANCH   8  25
TORSDOF 11
ENDMDL
