MODEL 1
REMARK VINA RESULT: -8.123952341      0.000      0.000
REMARK  14 active torsions:
REMARK  status: ('A' for Active; 'I' for Inactive)
REMARK    1  A    between atoms: C2_2  and  C3_3 
REMARK    2  A    between atoms: C3_3  and  C5_5 
REMARK    3  A    between atoms: C5_5  and  N1_6 
REMARK    4  A    between atoms: C5_5  and  C6_10 
REMARK       I    between atoms: C6_10  and  N2_12 
REMARK    5  A    between atoms: N2_12  and  C7_14 
REMARK    6  A    between atoms: C8_19  and  C9_20 
REMARK    7  A    between atoms: C9_20  and  C10_21 
REMARK    8  A    between atoms: C10_21  and  C11_22 
REMARK    9  A    between atoms: C11_22  and  C12_23 
REMARK   10  A    between atoms: C12_23  and  C13_24 
REMARK       I    between atoms: N7_30  and  C15_32 
REMARK   11  A    between atoms: C15_32  and  C16_34 
REMARK   12  A    between atoms: C16_34  and  C17_35 
REMARK   13  A    between atoms: C17_35  and  C18_36 
REMARK   14  A    between atoms: C18_36  and  C19_38 
ROOT
HETATM    1  C10 UNL     1       5.496   2.912  10.856  1.00  0.00     0.007 C 
ENDROOT
BRANCH   1   2
HETATM    2  C9  UNL     1       5.178   1.483  10.535  1.00  0.00     0.066 C 
BRANCH   2   3
HETATM    3  C8  UNL     1       4.720   0.788  11.768  1.00  0.00     0.069 A 
HETATM    4  N4  UNL     1       4.315   1.255  12.935  1.00  0.00    -0.296 N 
HETATM    5  N3  UNL     1       3.962   0.482  13.871  1.00  0.00    -0.279 N 
ATOM      6  H4  UNL     1       4.287   2.264  13.086  1.00  0.00     0.187 HD
HETATM    7  C7  UNL     1       4.005  -0.838  13.660  1.00  0.00     0.167 A 
ATOM      8  H3  UNL     1       3.651   0.857  14.767  1.00  0.00     0.189 HD
HETATM    9  S2  UNL     1       4.576  -0.916  12.054  1.00  0.00    -0.038 SA
BRANCH   7  10
HETATM   10  N2  UNL     1       3.684  -1.797  14.497  1.00  0.00    -0.304 N 
HETATM   11  C6  UNL     1       4.591  -2.036  15.598  1.00  0.00     0.254 C 
HETATM   12  O1  UNL     1       5.570  -1.264  15.759  1.00  0.00    -0.271 OA
ATOM     13  H2  UNL     1       2.834  -2.348  14.377  1.00  0.00     0.171 HD
BRANCH  11  14
HETATM   14  C5  UNL     1       4.402  -3.151  16.526  1.00  0.00     0.278 C 
BRANCH  14  15
HETATM   15  C3  UNL     1       3.781  -4.383  15.978  1.00  0.00     0.021 C 
HETATM   16  C4  UNL     1       4.581  -5.643  16.216  1.00  0.00     0.012 C 
BRANCH  15  17
HETATM   17  C2  UNL     1       2.348  -4.511  16.362  1.00  0.00     0.002 C 
HETATM   18  C1  UNL     1       1.417  -4.313  15.172  1.00  0.00     0.005 C 
ENDBRANCH  15  17
ENDBRANCH  14  15
BRANCH  14  19
HETATM   19  N1  UNL     1       3.669  -2.647  17.688  1.00  0.00    -0.066 N 
ATOM     20  H13 UNL     1       2.759  -2.275  17.420  1.00  0.00     0.275 HD
ATOM     21  H12 UNL     1       3.359  -3.409  18.291  1.00  0.00     0.275 HD
ATOM     22  H11 UNL     1       4.214  -1.959  18.208  1.00  0.00     0.275 HD
ENDBRANCH  14  19
ENDBRANCH  11  14
ENDBRANCH   7  10
ENDBRANCH   2   3
ENDBRANCH   1   2
BRANCH   1  23
HETATM   23  C11 UNL     1       6.983   3.115  10.852  1.00  0.00     0.007 C 
BRANCH  23  24
HETATM   24  C12 UNL     1       7.581   3.319  12.228  1.00  0.00     0.066 C 
BRANCH  24  25
HETATM   25  C13 UNL     1       7.850   1.961  12.801  1.00  0.00     0.069 A 
HETATM   26  N5  UNL     1       7.557   1.465  13.990  1.00  0.00    -0.296 N 
HETATM   27  N6  UNL     1       7.872   0.276  14.296  1.00  0.00    -0.279 N 
ATOM     28  H5  UNL     1       7.070   2.047  14.672  1.00  0.00     0.187 HD
HETATM   29  C14 UNL     1       8.512  -0.474  13.391  1.00  0.00     0.167 A 
ATOM     30  H6  UNL     1       7.643  -0.103  15.215  1.00  0.00     0.189 HD
HETATM   31  N7  UNL     1       8.927  -1.714  13.503  1.00  0.00    -0.306 N 
HETATM   32  S1  UNL     1       8.641   0.607  12.073  1.00  0.00    -0.038 SA
HETATM   33  C15 UNL     1       8.702  -2.403  14.706  1.00  0.00     0.224 C 
ATOM     34  H7  UNL     1       9.407  -2.171  12.727  1.00  0.00     0.171 HD
HETATM   35  O2  UNL     1       9.237  -1.976  15.776  1.00  0.00    -0.273 OA
BRANCH  33  36
HETATM   36  C16 UNL     1       7.841  -3.605  14.658  1.00  0.00     0.110 C 
BRANCH  36  37
HETATM   37  C17 UNL     1       7.908  -4.329  15.960  1.00  0.00     0.088 C 
BRANCH  37  38
HETATM   38  C18 UNL     1       8.536  -5.657  15.763  1.00  0.00     0.135 C 
HETATM   39  O3  UNL     1       8.668  -6.093  14.641  1.00  0.00    -0.297 OA
BRANCH  38  40
HETATM   40  C19 UNL     1       8.983  -6.405  16.975  1.00  0.00     0.009 C 
HETATM   41  C20 UNL     1       8.227  -5.850  18.158  1.00  0.00     0.022 C 
HETATM   42  C21 UNL     1       8.675  -7.867  16.740  1.00  0.00     0.022 C 
HETATM   43  C22 UNL     1      10.458  -6.172  17.208  1.00  0.00     0.022 C 
ENDBRANCH  38  40
ENDBRANCH  37  38
ENDBRANCH  36  37
ENDBRANCH  33  36
ENDBRANCH  24  25
ENDBRANCH  23  24
ENDBRANCH   1  23
TORSDOF 14
ENDMDL
MODEL 2
REMARK VINA RESULT: -8.117301905      3.060      6.617
REMARK  14 active torsions:
REMARK  status: ('A' for Active; 'I' for Inactive)
REMARK    1  A    between atoms: C2_2  and  C3_3 
REMARK    2  A    between atoms: C3_3  and  C5_5 
REMARK    3  A    between atoms: C5_5  and  N1_6 
REMARK    4  A    between atoms: C5_5  and  C6_10 
REMARK       I    between atoms: C6_10  and  N2_12 
REMARK    5  A    between atoms: N2_12  and  C7_14 
REMARK    6  A    between atoms: C8_19  and  C9_20 
REMARK    7  A    between atoms: C9_20  and  C10_21 
REMARK    8  A    between atoms: C10_21  and  C11_22 
REMARK    9  A    between atoms: C11_22  and  C12_23 
REMARK   10  A    between atoms: C12_23  and  C13_24 
REMARK       I    between atoms: N7_30  and  C15_32 
REMARK   11  A    between atoms: C15_32  and  C16_34 
REMARK   12  A    between atoms: C16_34  and  C17_35 
REMARK   13  A    between atoms: C17_35  and  C18_36 
REMARK   14  A    between atoms: C18_36  and  C19_38 
ROOT
HETATM    1  C10 UNL     1       8.830  -2.086  14.469  1.00  0.00     0.007 C 
ENDROOT
BRANCH   1   2
HETATM    2  C9  UNL     1       9.304  -1.320  13.270  1.00  0.00     0.066 C 
BRANCH   2   3
HETATM    3  C8  UNL     1       8.184  -0.509  12.725  1.00  0.00     0.069 A 
HETATM    4  N4  UNL     1       7.759  -0.326  11.488  1.00  0.00    -0.296 N 
HETATM    5  N3  UNL     1       6.770   0.419  11.231  1.00  0.00    -0.279 N 
ATOM      6  H4  UNL     1       8.241  -0.796  10.721  1.00  0.00     0.187 HD
HETATM    7  C7  UNL     1       6.150   1.029  12.246  1.00  0.00     0.167 A 
ATOM      8  H3  UNL     1       6.453   0.550  10.271  1.00  0.00     0.189 HD
HETATM    9  S2  UNL     1       7.052   0.483  13.586  1.00  0.00    -0.038 SA
BRANCH   7  10
HETATM   10  N2  UNL     1       5.114   1.836  12.188  1.00  0.00    -0.304 N 
HETATM   11  C6  UNL     1       3.926   1.328  11.539  1.00  0.00     0.254 C 
HETATM   12  O1  UNL     1       3.902   0.129  11.161  1.00  0.00    -0.271 OA
ATOM     13  H2  UNL     1       5.147   2.775  12.582  1.00  0.00     0.171 HD
BRANCH  11  14
HETATM   14  C5  UNL     1       2.752   2.171  11.310  1.00  0.00     0.278 C 
BRANCH  14  15
HETATM   15  C3  UNL     1       1.511   1.487  10.867  1.00  0.00     0.021 C 
HETATM   16  C4  UNL     1       0.560   1.135  11.989  1.00  0.00     0.012 C 
BRANCH  15  17
HETATM   17  C2  UNL     1       0.852   2.192   9.733  1.00  0.00     0.002 C 
HETATM   18  C1  UNL     1      -0.611   2.505  10.026  1.00  0.00     0.005 C 
ENDBRANCH  15  17
ENDBRANCH  14  15
BRANCH  14  19
HETATM   19  N1  UNL     1       3.140   3.238  10.387  1.00  0.00    -0.066 N 
ATOM     20  H13 UNL     1       3.756   2.888   9.653  1.00  0.00     0.275 HD
ATOM     21  H12 UNL     1       2.354   3.533   9.809  1.00  0.00     0.275 HD
ATOM     22  H11 UNL     1       3.558   4.027  10.879  1.00  0.00     0.275 HD
ENDBRANCH  14  19
ENDBRANCH  11  14
ENDBRANCH   7  10
ENDBRANCH   2   3
ENDBRANCH   1   2
BRANCH   1  23
HETATM   23  C11 UNL     1       9.996  -2.427  15.349  1.00  0.00     0.007 C 
BRANCH  23  24
HETATM   24  C12 UNL     1      10.079  -3.891  15.723  1.00  0.00     0.066 C 
BRANCH  24  25
HETATM   25  C13 UNL     1       8.687  -4.354  16.022  1.00  0.00     0.069 A 
HETATM   26  N5  UNL     1       7.862  -4.001  16.992  1.00  0.00    -0.296 N 
HETATM   27  N6  UNL     1       6.705  -4.513  17.082  1.00  0.00    -0.279 N 
ATOM     28  H5  UNL     1       8.159  -3.308  17.679  1.00  0.00     0.187 HD
HETATM   29  C14 UNL     1       6.331  -5.422  16.174  1.00  0.00     0.167 A 
ATOM     30  H6  UNL     1       6.071  -4.237  17.832  1.00  0.00     0.189 HD
HETATM   31  N7  UNL     1       5.192  -6.069  16.086  1.00  0.00    -0.306 N 
HETATM   32  S1  UNL     1       7.717  -5.511  15.179  1.00  0.00    -0.038 SA
HETATM   33  C15 UNL     1       4.191  -5.821  17.040  1.00  0.00     0.224 C 
ATOM     34  H7  UNL     1       5.036  -6.743  15.336  1.00  0.00     0.171 HD
HETATM   35  O2  UNL     1       4.415  -6.091  18.261  1.00  0.00    -0.273 OA
BRANCH  33  36
HETATM   36  C16 UNL     1       2.913  -5.250  16.561  1.00  0.00     0.110 C 
BRANCH  36  37
HETATM   37  C17 UNL     1       3.089  -3.799  16.259  1.00  0.00     0.088 C 
BRANCH  37  38
HETATM   38  C18 UNL     1       3.360  -3.618  14.814  1.00  0.00     0.135 C 
HETATM   39  O3  UNL     1       3.025  -4.480  14.032  1.00  0.00    -0.297 OA
BRANCH  38  40
HETATM   40  C19 UNL     1       4.043  -2.363  14.383  1.00  0.00     0.009 C 
HETATM   41  C20 UNL     1       4.917  -1.904  15.526  1.00  0.00     0.022 C 
HETATM   42  C21 UNL     1       4.851  -2.691  13.148  1.00  0.00     0.022 C 
HETATM   43  C22 UNL     1       3.018  -1.286  14.114  1.00  0.00     0.022 C 
ENDBRANCH  38  40
ENDBRANCH  37  38
ENDBRANCH  36  37
ENDBRANCH  33  36
ENDBRANCH  24  25
ENDBRANCH  23  24
ENDBRANCH   1  23
TORSDOF 14
ENDMDL
MODEL 3
REMARK VINA RESULT: -8.093598116      3.102      6.944
REMARK  14 active torsions:
REMARK  status: ('A' for Active; 'I' for Inactive)
REMARK    1  A    between atoms: C2_2  and  C3_3 
REMARK    2  A    between atoms: C3_3  and  C5_5 
REMARK    3  A    between atoms: C5_5  and  N1_6 
REMARK    4  A    between atoms: C5_5  and  C6_10 
REMARK       I    between atoms: C6_10  and  N2_12 
REMARK    5  A    between atoms: N2_12  and  C7_14 
REMARK    6  A    between atoms: C8_19  and  C9_20 
REMARK    7  A    between atoms: C9_20  and  C10_21 
REMARK    8  A    between atoms: C10_21  and  C11_22 
REMARK    9  A    between atoms: C11_22  and  C12_23 
REMARK   10  A    between atoms: C12_23  and  C13_24 
REMARK       I    between atoms: N7_30  and  C15_32 
REMARK   11  A    between atoms: C15_32  and  C16_34 
REMARK   12  A    between atoms: C16_34  and  C17_35 
REMARK   13  A    between atoms: C17_35  and  C18_36 
REMARK   14  A    between atoms: C18_36  and  C19_38 
ROOT
HETATM    1  C10 UNL     1       2.414  -3.662  17.437  1.00  0.00     0.007 C 
ENDROOT
BRANCH   1   2
HETATM    2  C9  UNL     1       2.472  -3.796  15.945  1.00  0.00     0.066 C 
BRANCH   2   3
HETATM    3  C8  UNL     1       3.188  -2.627  15.369  1.00  0.00     0.069 A 
HETATM    4  N4  UNL     1       2.748  -1.567  14.716  1.00  0.00    -0.296 N 
HETATM    5  N3  UNL     1       3.537  -0.670  14.302  1.00  0.00    -0.279 N 
ATOM      6  H4  UNL     1       1.748  -1.470  14.541  1.00  0.00     0.187 HD
HETATM    7  C7  UNL     1       4.846  -0.812  14.537  1.00  0.00     0.167 A 
ATOM      8  H3  UNL     1       3.183   0.143  13.799  1.00  0.00     0.189 HD
HETATM    9  S2  UNL     1       4.890  -2.293  15.382  1.00  0.00    -0.038 SA
BRANCH   7  10
HETATM   10  N2  UNL     1       5.819   0.000  14.191  1.00  0.00    -0.304 N 
HETATM   11  C6  UNL     1       6.374  -0.171  12.867  1.00  0.00     0.254 C 
HETATM   12  O1  UNL     1       5.843  -1.002  12.086  1.00  0.00    -0.271 OA
ATOM     13  H2  UNL     1       6.166   0.718  14.826  1.00  0.00     0.171 HD
BRANCH  11  14
HETATM   14  C5  UNL     1       7.536   0.593  12.412  1.00  0.00     0.278 C 
BRANCH  14  15
HETATM   15  C3  UNL     1       8.851  -0.093  12.459  1.00  0.00     0.021 C 
HETATM   16  C4  UNL     1       8.912  -1.257  13.420  1.00  0.00     0.012 C 
BRANCH  15  17
HETATM   17  C2  UNL     1       9.364  -0.422  11.099  1.00  0.00     0.002 C 
HETATM   18  C1  UNL     1       8.530   0.228  10.002  1.00  0.00     0.005 C 
ENDBRANCH  15  17
ENDBRANCH  14  15
BRANCH  14  19
HETATM   19  N1  UNL     1       7.557   1.856  13.150  1.00  0.00    -0.066 N 
ATOM     20  H13 UNL     1       7.723   1.702  14.145  1.00  0.00     0.275 HD
ATOM     21  H12 UNL     1       8.392   2.400  12.932  1.00  0.00     0.275 HD
ATOM     22  H11 UNL     1       6.708   2.399  12.995  1.00  0.00     0.275 HD
ENDBRANCH  14  19
ENDBRANCH  11  14
ENDBRANCH   7  10
ENDBRANCH   2   3
ENDBRANCH   1   2
BRANCH   1  23
HETATM   23  C11 UNL     1       3.278  -4.709  18.076  1.00  0.00     0.007 C 
BRANCH  23  24
HETATM   24  C12 UNL     1       3.399  -5.984  17.270  1.00  0.00     0.066 C 
BRANCH  24  25
HETATM   25  C13 UNL     1       4.753  -6.560  17.550  1.00  0.00     0.069 A 
HETATM   26  N5  UNL     1       5.627  -7.120  16.732  1.00  0.00    -0.296 N 
HETATM   27  N6  UNL     1       6.737  -7.556  17.162  1.00  0.00    -0.279 N 
ATOM     28  H5  UNL     1       5.405  -7.202  15.739  1.00  0.00     0.187 HD
HETATM   29  C14 UNL     1       7.010  -7.442  18.467  1.00  0.00     0.167 A 
ATOM     30  H6  UNL     1       7.408  -7.987  16.526  1.00  0.00     0.189 HD
HETATM   31  N7  UNL     1       8.087  -7.826  19.113  1.00  0.00    -0.306 N 
HETATM   32  S1  UNL     1       5.599  -6.676  19.053  1.00  0.00    -0.038 SA
HETATM   33  C15 UNL     1       9.126  -8.446  18.400  1.00  0.00     0.224 C 
ATOM     34  H7  UNL     1       8.167  -7.677  20.120  1.00  0.00     0.171 HD
HETATM   35  O2  UNL     1       8.906  -9.553  17.818  1.00  0.00    -0.273 OA
BRANCH  33  36
HETATM   36  C16 UNL     1      10.438  -7.762  18.367  1.00  0.00     0.110 C 
BRANCH  36  37
HETATM   37  C17 UNL     1      10.510  -6.864  17.178  1.00  0.00     0.088 C 
BRANCH  37  38
HETATM   38  C18 UNL     1       9.890  -5.557  17.499  1.00  0.00     0.135 C 
HETATM   39  O3  UNL     1       9.908  -5.153  18.641  1.00  0.00    -0.297 OA
BRANCH  38  40
HETATM   40  C19 UNL     1       9.261  -4.788  16.385  1.00  0.00     0.009 C 
HETATM   41  C20 UNL     1       7.945  -4.247  16.890  1.00  0.00     0.022 C 
HETATM   42  C21 UNL     1      10.220  -3.684  16.003  1.00  0.00     0.022 C 
HETATM   43  C22 UNL     1       8.975  -5.711  15.223  1.00  0.00     0.022 C 
ENDBRANCH  38  40
ENDBRANCH  37  38
ENDBRANCH  36  37
ENDBRANCH  33  36
ENDBRANCH  24  25
ENDBRANCH  23  24
ENDBRANCH   1  23
TORSDOF 14
ENDMDL
MODEL 4
REMARK VINA RESULT: -8.031696622      2.971      6.763
REMARK  14 active torsions:
REMARK  status: ('A' for Active; 'I' for Inactive)
REMARK    1  A    between atoms: C2_2  and  C3_3 
REMARK    2  A    between atoms: C3_3  and  C5_5 
REMARK    3  A    between atoms: C5_5  and  N1_6 
REMARK    4  A    between atoms: C5_5  and  C6_10 
REMARK       I    between atoms: C6_10  and  N2_12 
REMARK    5  A    between atoms: N2_12  and  C7_14 
REMARK    6  A    between atoms: C8_19  and  C9_20 
REMARK    7  A    between atoms: C9_20  and  C10_21 
REMARK    8  A    between atoms: C10_21  and  C11_22 
REMARK    9  A    between atoms: C11_22  and  C12_23 
REMARK   10  A    between atoms: C12_23  and  C13_24 
REMARK       I    between atoms: N7_30  and  C15_32 
REMARK   11  A    between atoms: C15_32  and  C16_34 
REMARK   12  A    between atoms: C16_34  and  C17_35 
REMARK   13  A    between atoms: C17_35  and  C18_36 
REMARK   14  A    between atoms: C18_36  and  C19_38 
ROOT
HETATM    1  C10 UNL     1       9.290  -2.250  15.491  1.00  0.00     0.007 C 
ENDROOT
BRANCH   1   2
HETATM    2  C9  UNL     1       9.067  -1.770  14.088  1.00  0.00     0.066 C 
BRANCH   2   3
HETATM    3  C8  UNL     1       7.764  -1.059  14.009  1.00  0.00     0.069 A 
HETATM    4  N4  UNL     1       6.669  -1.155  14.741  1.00  0.00    -0.296 N 
HETATM    5  N3  UNL     1       5.649  -0.448  14.503  1.00  0.00    -0.279 N 
ATOM      6  H4  UNL     1       6.646  -1.816  15.518  1.00  0.00     0.187 HD
HETATM    7  C7  UNL     1       5.693   0.413  13.481  1.00  0.00     0.167 A 
ATOM      8  H3  UNL     1       4.811  -0.532  15.078  1.00  0.00     0.189 HD
HETATM    9  S2  UNL     1       7.268   0.160  12.879  1.00  0.00    -0.038 SA
BRANCH   7  10
HETATM   10  N2  UNL     1       4.746   1.228  13.075  1.00  0.00    -0.304 N 
HETATM   11  C6  UNL     1       3.811   0.710  12.101  1.00  0.00     0.254 C 
HETATM   12  O1  UNL     1       3.880  -0.502  11.773  1.00  0.00    -0.271 OA
ATOM     13  H2  UNL     1       4.674   2.182  13.429  1.00  0.00     0.171 HD
BRANCH  11  14
HETATM   14  C5  UNL     1       2.787   1.557  11.487  1.00  0.00     0.278 C 
BRANCH  14  15
HETATM   15  C3  UNL     1       1.490   0.913  11.163  1.00  0.00     0.021 C 
HETATM   16  C4  UNL     1       0.518   0.853  12.319  1.00  0.00     0.012 C 
BRANCH  15  17
HETATM   17  C2  UNL     1       0.889   1.455   9.912  1.00  0.00     0.002 C 
HETATM   18  C1  UNL     1      -0.302   2.362  10.197  1.00  0.00     0.005 C 
ENDBRANCH  15  17
ENDBRANCH  14  15
BRANCH  14  19
HETATM   19  N1  UNL     1       3.382   2.198  10.314  1.00  0.00    -0.066 N 
ATOM     20  H13 UNL     1       4.234   1.721  10.022  1.00  0.00     0.275 HD
ATOM     21  H12 UNL     1       2.818   2.042   9.479  1.00  0.00     0.275 HD
ATOM     22  H11 UNL     1       3.547   3.192  10.471  1.00  0.00     0.275 HD
ENDBRANCH  14  19
ENDBRANCH  11  14
ENDBRANCH   7  10
ENDBRANCH   2   3
ENDBRANCH   1   2
BRANCH   1  23
HETATM   23  C11 UNL     1      10.188  -3.452  15.480  1.00  0.00     0.007 C 
BRANCH  23  24
HETATM   24  C12 UNL     1      10.102  -4.297  16.733  1.00  0.00     0.066 C 
BRANCH  24  25
HETATM   25  C13 UNL     1       8.681  -4.754  16.864  1.00  0.00     0.069 A 
HETATM   26  N5  UNL     1       7.773  -4.459  17.777  1.00  0.00    -0.296 N 
HETATM   27  N6  UNL     1       6.606  -4.953  17.719  1.00  0.00    -0.279 N 
ATOM     28  H5  UNL     1       8.013  -3.824  18.539  1.00  0.00     0.187 HD
HETATM   29  C14 UNL     1       6.308  -5.784  16.714  1.00  0.00     0.167 A 
ATOM     30  H6  UNL     1       5.908  -4.721  18.425  1.00  0.00     0.189 HD
HETATM   31  N7  UNL     1       5.175  -6.401  16.471  1.00  0.00    -0.306 N 
HETATM   32  S1  UNL     1       7.782  -5.826  15.849  1.00  0.00    -0.038 SA
HETATM   33  C15 UNL     1       4.091  -6.205  17.343  1.00  0.00     0.224 C 
ATOM     34  H7  UNL     1       5.083  -7.014  15.661  1.00  0.00     0.171 HD
HETATM   35  O2  UNL     1       4.196  -6.569  18.555  1.00  0.00    -0.273 OA
BRANCH  33  36
HETATM   36  C16 UNL     1       2.872  -5.574  16.791  1.00  0.00     0.110 C 
BRANCH  36  37
HETATM   37  C17 UNL     1       2.815  -4.141  17.199  1.00  0.00     0.088 C 
BRANCH  37  38
HETATM   38  C18 UNL     1       3.439  -3.297  16.153  1.00  0.00     0.135 C 
HETATM   39  O3  UNL     1       4.526  -2.803  16.356  1.00  0.00    -0.297 OA
BRANCH  38  40
HETATM   40  C19 UNL     1       2.689  -3.093  14.879  1.00  0.00     0.009 C 
HETATM   41  C20 UNL     1       2.264  -1.644  14.828  1.00  0.00     0.022 C 
HETATM   42  C21 UNL     1       3.622  -3.450  13.744  1.00  0.00     0.022 C 
HETATM   43  C22 UNL     1       1.444  -3.949  14.873  1.00  0.00     0.022 C 
ENDBRANCH  38  40
ENDBRANCH  37  38
ENDBRANCH  36  37
ENDBRANCH  33  36
ENDBRANCH  24  25
ENDBRANCH  23  24
ENDBRANCH   1  23
TORSDOF 14
ENDMDL
MODEL 5
REMARK VINA RESULT: -8.028805434      3.128      6.521
REMARK  14 active torsions:
REMARK  status: ('A' for Active; 'I' for Inactive)
REMARK    1  A    between atoms: C2_2  and  C3_3 
REMARK    2  A    between atoms: C3_3  and  C5_5 
REMARK    3  A    between atoms: C5_5  and  N1_6 
REMARK    4  A    between atoms: C5_5  and  C6_10 
REMARK       I    between atoms: C6_10  and  N2_12 
REMARK    5  A    between atoms: N2_12  and  C7_14 
REMARK    6  A    between atoms: C8_19  and  C9_20 
REMARK    7  A    between atoms: C9_20  and  C10_21 
REMARK    8  A    between atoms: C10_21  and  C11_22 
REMARK    9  A    between atoms: C11_22  and  C12_23 
REMARK   10  A    between atoms: C12_23  and  C13_24 
REMARK       I    between atoms: N7_30  and  C15_32 
REMARK   11  A    between atoms: C15_32  and  C16_34 
REMARK   12  A    between atoms: C16_34  and  C17_35 
REMARK   13  A    between atoms: C17_35  and  C18_36 
REMARK   14  A    between atoms: C18_36  and  C19_38 
ROOT
HETATM    1  C10 UNL     1       8.017  -1.373  14.145  1.00  0.00     0.007 C 
ENDROOT
BRANCH   1   2
HETATM    2  C9  UNL     1       8.095   0.053  13.688  1.00  0.00     0.066 C 
BRANCH   2   3
HETATM    3  C8  UNL     1       6.792   0.456  13.097  1.00  0.00     0.069 A 
HETATM    4  N4  UNL     1       5.675   0.889  13.654  1.00  0.00    -0.296 N 
HETATM    5  N3  UNL     1       4.660   1.183  12.960  1.00  0.00    -0.279 N 
ATOM      6  H4  UNL     1       5.631   0.988  14.668  1.00  0.00     0.187 HD
HETATM    7  C7  UNL     1       4.732   1.046  11.632  1.00  0.00     0.167 A 
ATOM      8  H3  UNL     1       3.805   1.516  13.404  1.00  0.00     0.189 HD
HETATM    9  S2  UNL     1       6.327   0.477  11.426  1.00  0.00    -0.038 SA
BRANCH   7  10
HETATM   10  N2  UNL     1       3.795   1.295  10.746  1.00  0.00    -0.304 N 
HETATM   11  C6  UNL     1       3.127   2.574  10.843  1.00  0.00     0.254 C 
HETATM   12  O1  UNL     1       3.534   3.413  11.686  1.00  0.00    -0.271 OA
ATOM     13  H2  UNL     1       3.551   0.619  10.023  1.00  0.00     0.171 HD
BRANCH  11  14
HETATM   14  C5  UNL     1       1.990   2.918   9.987  1.00  0.00     0.278 C 
BRANCH  14  15
HETATM   15  C3  UNL     1       0.750   2.123  10.169  1.00  0.00     0.021 C 
HETATM   16  C4  UNL     1       0.866   0.680   9.735  1.00  0.00     0.012 C 
BRANCH  15  17
HETATM   17  C2  UNL     1       0.170   2.287  11.531  1.00  0.00     0.002 C 
HETATM   18  C1  UNL     1       0.267   1.006  12.351  1.00  0.00     0.005 C 
ENDBRANCH  15  17
ENDBRANCH  14  15
BRANCH  14  19
HETATM   19  N1  UNL     1       2.451   2.893   8.599  1.00  0.00    -0.066 N 
ATOM     20  H13 UNL     1       3.367   3.331   8.505  1.00  0.00     0.275 HD
ATOM     21  H12 UNL     1       2.695   1.947   8.306  1.00  0.00     0.275 HD
ATOM     22  H11 UNL     1       1.770   3.315   7.968  1.00  0.00     0.275 HD
ENDBRANCH  14  19
ENDBRANCH  11  14
ENDBRANCH   7  10
ENDBRANCH   2   3
ENDBRANCH   1   2
BRANCH   1  23
HETATM   23  C11 UNL     1       9.389  -1.980  14.155  1.00  0.00     0.007 C 
BRANCH  23  24
HETATM   24  C12 UNL     1       9.678  -2.833  15.371  1.00  0.00     0.066 C 
BRANCH  24  25
HETATM   25  C13 UNL     1       8.405  -3.535  15.734  1.00  0.00     0.069 A 
HETATM   26  N5  UNL     1       7.573  -3.325  16.739  1.00  0.00    -0.296 N 
HETATM   27  N6  UNL     1       6.533  -4.035  16.883  1.00  0.00    -0.279 N 
ATOM     28  H5  UNL     1       7.771  -2.581  17.409  1.00  0.00     0.187 HD
HETATM   29  C14 UNL     1       6.289  -5.007  15.997  1.00  0.00     0.167 A 
ATOM     30  H6  UNL     1       5.893  -3.868  17.660  1.00  0.00     0.189 HD
HETATM   31  N7  UNL     1       5.283  -5.850  15.963  1.00  0.00    -0.306 N 
HETATM   32  S1  UNL     1       7.625  -4.858  14.941  1.00  0.00    -0.038 SA
HETATM   33  C15 UNL     1       4.296  -5.774  16.960  1.00  0.00     0.224 C 
ATOM     34  H7  UNL     1       5.219  -6.549  15.223  1.00  0.00     0.171 HD
HETATM   35  O2  UNL     1       4.618  -5.984  18.170  1.00  0.00    -0.273 OA
BRANCH  33  36
HETATM   36  C16 UNL     1       2.917  -5.448  16.536  1.00  0.00     0.110 C 
BRANCH  36  37
HETATM   37  C17 UNL     1       2.807  -3.988  16.252  1.00  0.00     0.088 C 
BRANCH  37  38
HETATM   38  C18 UNL     1       3.009  -3.743  14.804  1.00  0.00     0.135 C 
HETATM   39  O3  UNL     1       2.820  -4.642  14.016  1.00  0.00    -0.297 OA
BRANCH  38  40
HETATM   40  C19 UNL     1       3.443  -2.379  14.379  1.00  0.00     0.009 C 
HETATM   41  C20 UNL     1       4.464  -1.893  15.381  1.00  0.00     0.022 C 
HETATM   42  C21 UNL     1       4.027  -2.505  12.991  1.00  0.00     0.022 C 
HETATM   43  C22 UNL     1       2.266  -1.433  14.411  1.00  0.00     0.022 C 
ENDBRANCH  38  40
ENDBRANCH  37  38
ENDBRANCH  36  37
ENDBRANCH  33  36
ENDBRANCH  24  25
ENDBRANCH  23  24
ENDBRANCH   1  23
TORSDOF 14
ENDMDL
