MODEL 1
REMARK VINA RESULT: -9.254060431      0.000      0.000
REMARK  12 active torsions:
REMARK  status: ('A' for Active; 'I' for Inactive)
REMARK    1  A    between atoms: C2_2  and  C3_3 
REMARK    2  A    between atoms: N2_12  and  C9_13 
REMARK    3  A    between atoms: C9_13  and  C10_14 
REMARK    4  A    between atoms: C10_14  and  C11_15 
REMARK    5  A    between atoms: C11_15  and  C12_16 
REMARK       I    between atoms: C12_16  and  N3_18 
REMARK    6  A    between atoms: C15_21  and  O2_22 
REMARK    7  A    between atoms: C15_21  and  C16_24 
REMARK    8  A    between atoms: C16_24  and  N4_25 
REMARK    9  A    between atoms: N4_25  and  C17_27 
REMARK   10  A    between atoms: C17_27  and  C18_28 
REMARK   11  A    between atoms: C18_28  and  C19_29 
REMARK   12  A    between atoms: C19_29  and  N5_30 
ROOT
HETATM    1  C12 UNL     1       3.546  -3.267  14.535  1.00  0.00     0.219 C 
HETATM    2  O1  UNL     1       3.932  -3.545  13.346  1.00  0.00    -0.273 OA
HETATM    3  N3  UNL     1       3.912  -4.094  15.630  1.00  0.00    -0.352 N 
HETATM    4  C13 UNL     1       4.716  -5.270  15.377  1.00  0.00     0.129 C 
HETATM    5  C14 UNL     1       5.574  -5.497  16.602  1.00  0.00     0.059 C 
HETATM    6  C15 UNL     1       4.711  -5.897  17.790  1.00  0.00     0.076 C 
HETATM    7  C24 UNL     1       3.414  -5.117  17.797  1.00  0.00     0.059 C 
HETATM    8  C25 UNL     1       3.535  -3.838  16.998  1.00  0.00     0.129 C 
ENDROOT
BRANCH   1   9
HETATM    9  C11 UNL     1       2.718  -2.073  14.709  1.00  0.00     0.104 C 
BRANCH   9  10
HETATM   10  C10 UNL     1       2.966  -0.937  13.820  1.00  0.00     0.029 C 
BRANCH  10  11
HETATM   11  C9  UNL     1       3.971   0.097  14.112  1.00  0.00     0.135 C 
BRANCH  11  12
HETATM   12  N2  UNL     1       5.101   0.199  13.241  1.00  0.00    -0.290 N 
HETATM   13  C8  UNL     1       5.099   0.774  12.064  1.00  0.00     0.181 A 
HETATM   14  N1  UNL     1       6.215   0.775  11.276  1.00  0.00    -0.332 N 
HETATM   15  S1  UNL     1       3.810   1.609  11.445  1.00  0.00    -0.040 SA
HETATM   16  C7  UNL     1       7.347   0.193  11.678  1.00  0.00     0.051 A 
ATOM     17  H1  UNL     1       6.183   1.228  10.363  1.00  0.00     0.168 HD
HETATM   18  C6  UNL     1       8.475   0.196  10.855  1.00  0.00     0.030 A 
HETATM   19  C27 UNL     1       7.415  -0.436  12.928  1.00  0.00     0.069 A 
HETATM   20  C5  UNL     1       9.610  -0.418  11.304  1.00  0.00     0.003 A 
HETATM   21  C4  UNL     1       9.682  -1.032  12.520  1.00  0.00     0.012 A 
HETATM   22  C3  UNL     1       8.565  -1.046  13.358  1.00  0.00    -0.019 A 
HETATM   23  C26 UNL     1       6.262  -0.406  13.670  1.00  0.00     0.263 A 
HETATM   24  O3  UNL     1       6.259  -0.959  14.800  1.00  0.00    -0.267 OA
BRANCH  22  25
HETATM   25  C2  UNL     1       8.717  -1.715  14.611  1.00  0.00     0.002 C 
HETATM   26  C1  UNL     1       9.889  -2.290  14.974  1.00  0.00     0.012 C 
ENDBRANCH  22  25
ENDBRANCH  11  12
ENDBRANCH  10  11
ENDBRANCH   9  10
ENDBRANCH   1   9
BRANCH   6  27
HETATM   27  O2  UNL     1       5.422  -5.531  18.919  1.00  0.00    -0.388 OA
ATOM     28  H2  UNL     1       4.854  -4.948  19.409  1.00  0.00     0.210 HD
ENDBRANCH   6  27
BRANCH   6  29
HETATM   29  C16 UNL     1       4.515  -7.362  17.729  1.00  0.00     0.151 C 
BRANCH  29  30
HETATM   30  N4  UNL     1       5.611  -8.183  17.362  1.00  0.00    -0.418 N 
ATOM     31  H4  UNL     1       5.969  -8.181  16.407  1.00  0.00     0.153 HD
BRANCH  30  32
HETATM   32  C17 UNL     1       6.196  -9.007  18.356  1.00  0.00     0.115 C 
BRANCH  32  33
HETATM   33  C18 UNL     1       7.708  -8.971  18.415  1.00  0.00     0.049 C 
BRANCH  33  34
HETATM   34  C19 UNL     1       8.325  -7.830  17.677  1.00  0.00     0.274 C 
BRANCH  34  35
HETATM   35  N5  UNL     1       8.955  -6.905  18.559  1.00  0.00     0.088 N 
HETATM   36  C20 UNL     1      10.297  -7.319  18.935  1.00  0.00     0.272 C 
HETATM   37  C21 UNL     1      11.226  -6.711  17.932  1.00  0.00     0.032 C 
HETATM   38  C22 UNL     1      10.530  -5.476  17.475  1.00  0.00     0.032 C 
HETATM   39  C23 UNL     1       9.115  -5.609  17.924  1.00  0.00     0.272 C 
ENDBRANCH  34  35
ENDBRANCH  33  34
ENDBRANCH  32  33
ENDBRANCH  30  32
ENDBRANCH  29  30
ENDBRANCH   6  29
TORSDOF 12
ENDMDL
MODEL 2
REMARK VINA RESULT: -8.827299045      3.105      9.568
REMARK  12 active torsions:
REMARK  status: ('A' for Active; 'I' for Inactive)
REMARK    1  A    between atoms: C2_2  and  C3_3 
REMARK    2  A    between atoms: N2_12  and  C9_13 
REMARK    3  A    between atoms: C9_13  and  C10_14 
REMARK    4  A    between atoms: C10_14  and  C11_15 
REMARK    5  A    between atoms: C11_15  and  C12_16 
REMARK       I    between atoms: C12_16  and  N3_18 
REMARK    6  A    between atoms: C15_21  and  O2_22 
REMARK    7  A    between atoms: C15_21  and  C16_24 
REMARK    8  A    between atoms: C16_24  and  N4_25 
REMARK    9  A    between atoms: N4_25  and  C17_27 
REMARK   10  A    between atoms: C17_27  and  C18_28 
REMARK   11  A    between atoms: C18_28  and  C19_29 
REMARK   12  A    between atoms: C19_29  and  N5_30 
ROOT
HETATM    1  C12 UNL     1       8.575  -1.684  15.120  1.00  0.00     0.219 C 
HETATM    2  O1  UNL     1       7.927  -1.597  16.222  1.00  0.00    -0.273 OA
HETATM    3  N3  UNL     1       8.238  -0.863  14.013  1.00  0.00    -0.352 N 
HETATM    4  C13 UNL     1       7.135   0.066  14.143  1.00  0.00     0.129 C 
HETATM    5  C14 UNL     1       7.450   1.260  13.269  1.00  0.00     0.059 C 
HETATM    6  C15 UNL     1       7.421   0.866  11.799  1.00  0.00     0.076 C 
HETATM    7  C24 UNL     1       8.020  -0.510  11.600  1.00  0.00     0.059 C 
HETATM    8  C25 UNL     1       8.930  -0.886  12.749  1.00  0.00     0.129 C 
ENDROOT
BRANCH   1   9
HETATM    9  C11 UNL     1       9.663  -2.661  15.058  1.00  0.00     0.104 C 
BRANCH   9  10
HETATM   10  C10 UNL     1       9.447  -3.963  15.690  1.00  0.00     0.029 C 
BRANCH  10  11
HETATM   11  C9  UNL     1       8.421  -4.912  15.226  1.00  0.00     0.135 C 
BRANCH  11  12
HETATM   12  N2  UNL     1       7.100  -4.784  15.759  1.00  0.00    -0.290 N 
HETATM   13  C8  UNL     1       6.723  -5.183  16.949  1.00  0.00     0.181 A 
HETATM   14  N1  UNL     1       5.423  -5.070  17.352  1.00  0.00    -0.332 N 
HETATM   15  S1  UNL     1       7.759  -5.779  18.095  1.00  0.00    -0.040 SA
HETATM   16  C7  UNL     1       4.492  -4.548  16.552  1.00  0.00     0.051 A 
ATOM     17  H1  UNL     1       5.158  -5.392  18.284  1.00  0.00     0.168 HD
HETATM   18  C6  UNL     1       3.166  -4.449  16.979  1.00  0.00     0.030 A 
HETATM   19  C27 UNL     1       4.832  -4.099  15.269  1.00  0.00     0.069 A 
HETATM   20  C5  UNL     1       2.245  -3.912  16.124  1.00  0.00     0.003 A 
HETATM   21  C4  UNL     1       2.570  -3.474  14.874  1.00  0.00     0.012 A 
HETATM   22  C3  UNL     1       3.890  -3.565  14.428  1.00  0.00    -0.019 A 
HETATM   23  C26 UNL     1       6.150  -4.242  14.921  1.00  0.00     0.263 A 
HETATM   24  O3  UNL     1       6.516  -3.863  13.779  1.00  0.00    -0.267 OA
BRANCH  22  25
HETATM   25  C2  UNL     1       4.149  -3.093  13.105  1.00  0.00     0.002 C 
HETATM   26  C1  UNL     1       3.953  -1.797  12.759  1.00  0.00     0.012 C 
ENDBRANCH  22  25
ENDBRANCH  11  12
ENDBRANCH  10  11
ENDBRANCH   9  10
ENDBRANCH   1   9
BRANCH   6  27
HETATM   27  O2  UNL     1       8.237   1.773  11.146  1.00  0.00    -0.388 OA
ATOM     28  H2  UNL     1       8.848   1.254  10.636  1.00  0.00     0.210 HD
ENDBRANCH   6  27
BRANCH   6  29
HETATM   29  C16 UNL     1       6.021   0.971  11.334  1.00  0.00     0.151 C 
BRANCH  29  30
HETATM   30  N4  UNL     1       5.761   1.575  10.078  1.00  0.00    -0.418 N 
ATOM     31  H4  UNL     1       6.024   1.110   9.210  1.00  0.00     0.153 HD
BRANCH  30  32
HETATM   32  C17 UNL     1       5.126   2.843  10.061  1.00  0.00     0.115 C 
BRANCH  32  33
HETATM   33  C18 UNL     1       4.193   3.112  11.223  1.00  0.00     0.049 C 
BRANCH  33  34
HETATM   34  C19 UNL     1       2.749   3.184  10.850  1.00  0.00     0.274 C 
BRANCH  34  35
HETATM   35  N5  UNL     1       1.969   2.227  11.558  1.00  0.00     0.088 N 
HETATM   36  C20 UNL     1       0.549   2.545  11.545  1.00  0.00     0.272 C 
HETATM   37  C21 UNL     1      -0.028   1.857  10.348  1.00  0.00     0.032 C 
HETATM   38  C22 UNL     1       0.848   0.671  10.136  1.00  0.00     0.032 C 
HETATM   39  C23 UNL     1       2.076   0.914  10.945  1.00  0.00     0.272 C 
ENDBRANCH  34  35
ENDBRANCH  33  34
ENDBRANCH  32  33
ENDBRANCH  30  32
ENDBRANCH  29  30
ENDBRANCH   6  29
TORSDOF 12
ENDMDL
MODEL 3
REMARK VINA RESULT: -8.816727479      3.171      9.558
REMARK  12 active torsions:
REMARK  status: ('A' for Active; 'I' for Inactive)
REMARK    1  A    between atoms: C2_2  and  C3_3 
REMARK    2  A    between atoms: N2_12  and  C9_13 
REMARK    3  A    between atoms: C9_13  and  C10_14 
REMARK    4  A    between atoms: C10_14  and  C11_15 
REMARK    5  A    between atoms: C11_15  and  C12_16 
REMARK       I    between atoms: C12_16  and  N3_18 
REMARK    6  A    between atoms: C15_21  and  O2_22 
REMARK    7  A    between atoms: C15_21  and  C16_24 
REMARK    8  A    between atoms: C16_24  and  N4_25 
REMARK    9  A    between atoms: N4_25  and  C17_27 
REMARK   10  A    between atoms: C17_27  and  C18_28 
REMARK   11  A    between atoms: C18_28  and  C19_29 
REMARK   12  A    between atoms: C19_29  and  N5_30 
ROOT
HETATM    1  C12 UNL     1       9.896  -2.137  14.546  1.00  0.00     0.219 C 
HETATM    2  O1  UNL     1      11.170  -2.148  14.412  1.00  0.00    -0.273 OA
HETATM    3  N3  UNL     1       9.080  -1.384  13.662  1.00  0.00    -0.352 N 
HETATM    4  C13 UNL     1       9.712  -0.611  12.615  1.00  0.00     0.129 C 
HETATM    5  C14 UNL     1       8.756  -0.577  11.443  1.00  0.00     0.059 C 
HETATM    6  C15 UNL     1       7.515   0.233  11.793  1.00  0.00     0.076 C 
HETATM    7  C24 UNL     1       7.093  -0.022  13.224  1.00  0.00     0.059 C 
HETATM    8  C25 UNL     1       7.640  -1.337  13.733  1.00  0.00     0.129 C 
ENDROOT
BRANCH   1   9
HETATM    9  C11 UNL     1       9.331  -2.926  15.641  1.00  0.00     0.104 C 
BRANCH   9  10
HETATM   10  C10 UNL     1       9.489  -4.380  15.584  1.00  0.00     0.029 C 
BRANCH  10  11
HETATM   11  C9  UNL     1       8.369  -5.292  15.295  1.00  0.00     0.135 C 
BRANCH  11  12
HETATM   12  N2  UNL     1       7.093  -4.988  15.865  1.00  0.00    -0.290 N 
HETATM   13  C8  UNL     1       6.728  -5.265  17.092  1.00  0.00     0.181 A 
HETATM   14  N1  UNL     1       5.466  -4.986  17.534  1.00  0.00    -0.332 N 
HETATM   15  S1  UNL     1       7.744  -5.892  18.240  1.00  0.00    -0.040 SA
HETATM   16  C7  UNL     1       4.561  -4.420  16.733  1.00  0.00     0.051 A 
ATOM     17  H1  UNL     1       5.209  -5.215  18.494  1.00  0.00     0.168 HD
HETATM   18  C6  UNL     1       3.273  -4.151  17.199  1.00  0.00     0.030 A 
HETATM   19  C27 UNL     1       4.891  -4.096  15.410  1.00  0.00     0.069 A 
HETATM   20  C5  UNL     1       2.377  -3.576  16.342  1.00  0.00     0.003 A 
HETATM   21  C4  UNL     1       2.692  -3.258  15.054  1.00  0.00     0.012 A 
HETATM   22  C3  UNL     1       3.975  -3.519  14.568  1.00  0.00    -0.019 A 
HETATM   23  C26 UNL     1       6.170  -4.403  15.026  1.00  0.00     0.263 A 
HETATM   24  O3  UNL     1       6.525  -4.141  13.848  1.00  0.00    -0.267 OA
BRANCH  22  25
HETATM   25  C2  UNL     1       4.225  -3.166  13.207  1.00  0.00     0.002 C 
HETATM   26  C1  UNL     1       3.895  -1.947  12.714  1.00  0.00     0.012 C 
ENDBRANCH  22  25
ENDBRANCH  11  12
ENDBRANCH  10  11
ENDBRANCH   9  10
ENDBRANCH   1   9
BRANCH   6  27
HETATM   27  O2  UNL     1       6.507  -0.239  10.971  1.00  0.00    -0.388 OA
ATOM     28  H2  UNL     1       5.695  -0.081  11.437  1.00  0.00     0.210 HD
ENDBRANCH   6  27
BRANCH   6  29
HETATM   29  C16 UNL     1       7.815   1.654  11.513  1.00  0.00     0.151 C 
BRANCH  29  30
HETATM   30  N4  UNL     1       6.927   2.648  11.996  1.00  0.00    -0.418 N 
ATOM     31  H4  UNL     1       7.064   3.071  12.914  1.00  0.00     0.153 HD
BRANCH  30  32
HETATM   32  C17 UNL     1       5.842   3.039  11.170  1.00  0.00     0.115 C 
BRANCH  32  33
HETATM   33  C18 UNL     1       4.506   2.425  11.529  1.00  0.00     0.049 C 
BRANCH  33  34
HETATM   34  C19 UNL     1       3.340   3.030  10.820  1.00  0.00     0.274 C 
BRANCH  34  35
HETATM   35  N5  UNL     1       2.102   2.651  11.415  1.00  0.00     0.088 N 
HETATM   36  C20 UNL     1       0.953   3.157  10.681  1.00  0.00     0.272 C 
HETATM   37  C21 UNL     1       0.587   2.100   9.687  1.00  0.00     0.032 C 
HETATM   38  C22 UNL     1       1.033   0.824  10.312  1.00  0.00     0.032 C 
HETATM   39  C23 UNL     1       1.950   1.207  11.423  1.00  0.00     0.272 C 
ENDBRANCH  34  35
ENDBRANCH  33  34
ENDBRANCH  32  33
ENDBRANCH  30  32
ENDBRANCH  29  30
ENDBRANCH   6  29
TORSDOF 12
ENDMDL
MODEL 4
REMARK VINA RESULT: -8.815034787      1.682      2.510
REMARK  12 active torsions:
REMARK  status: ('A' for Active; 'I' for Inactive)
REMARK    1  A    between atoms: C2_2  and  C3_3 
REMARK    2  A    between atoms: N2_12  and  C9_13 
REMARK    3  A    between atoms: C9_13  and  C10_14 
REMARK    4  A    between atoms: C10_14  and  C11_15 
REMARK    5  A    between atoms: C11_15  and  C12_16 
REMARK       I    between atoms: C12_16  and  N3_18 
REMARK    6  A    between atoms: C15_21  and  O2_22 
REMARK    7  A    between atoms: C15_21  and  C16_24 
REMARK    8  A    between atoms: C16_24  and  N4_25 
REMARK    9  A    between atoms: N4_25  and  C17_27 
REMARK   10  A    between atoms: C17_27  and  C18_28 
REMARK   11  A    between atoms: C18_28  and  C19_29 
REMARK   12  A    between atoms: C19_29  and  N5_30 
ROOT
HETATM    1  C12 UNL     1       4.216  -2.474  12.563  1.00  0.00     0.219 C 
HETATM    2  O1  UNL     1       5.041  -3.180  11.884  1.00  0.00    -0.273 OA
HETATM    3  N3  UNL     1       3.899  -2.818  13.903  1.00  0.00    -0.352 N 
HETATM    4  C13 UNL     1       4.511  -3.993  14.486  1.00  0.00     0.129 C 
HETATM    5  C14 UNL     1       4.671  -3.728  15.967  1.00  0.00     0.059 C 
HETATM    6  C15 UNL     1       3.309  -3.654  16.644  1.00  0.00     0.076 C 
HETATM    7  C24 UNL     1       2.308  -2.944  15.760  1.00  0.00     0.059 C 
HETATM    8  C25 UNL     1       2.999  -2.065  14.740  1.00  0.00     0.129 C 
ENDROOT
BRANCH   1   9
HETATM    9  C11 UNL     1       3.623  -1.313  11.900  1.00  0.00     0.104 C 
BRANCH   9  10
HETATM   10  C10 UNL     1       4.501  -0.185  11.586  1.00  0.00     0.029 C 
BRANCH  10  11
HETATM   11  C9  UNL     1       5.381   0.441  12.586  1.00  0.00     0.135 C 
BRANCH  11  12
HETATM   12  N2  UNL     1       6.766   0.082  12.579  1.00  0.00    -0.290 N 
HETATM   13  C8  UNL     1       7.615   0.366  11.623  1.00  0.00     0.181 A 
HETATM   14  N1  UNL     1       8.910  -0.067  11.677  1.00  0.00    -0.332 N 
HETATM   15  S1  UNL     1       7.254   1.319  10.318  1.00  0.00    -0.040 SA
HETATM   16  C7  UNL     1       9.356  -0.791  12.705  1.00  0.00     0.051 A 
ATOM     17  H1  UNL     1       9.548   0.168  10.917  1.00  0.00     0.168 HD
HETATM   18  C6  UNL     1      10.680  -1.232  12.738  1.00  0.00     0.030 A 
HETATM   19  C27 UNL     1       8.497  -1.125  13.761  1.00  0.00     0.069 A 
HETATM   20  C5  UNL     1      11.091  -1.977  13.808  1.00  0.00     0.003 A 
HETATM   21  C4  UNL     1      10.261  -2.305  14.838  1.00  0.00     0.012 A 
HETATM   22  C3  UNL     1       8.932  -1.874  14.824  1.00  0.00    -0.019 A 
HETATM   23  C26 UNL     1       7.211  -0.665  13.648  1.00  0.00     0.263 A 
HETATM   24  O3  UNL     1       6.391  -0.937  14.562  1.00  0.00    -0.267 OA
BRANCH  22  25
HETATM   25  C2  UNL     1       8.124  -2.265  15.934  1.00  0.00     0.002 C 
HETATM   26  C1  UNL     1       8.122  -3.537  16.403  1.00  0.00     0.012 C 
ENDBRANCH  22  25
ENDBRANCH  11  12
ENDBRANCH  10  11
ENDBRANCH   9  10
ENDBRANCH   1   9
BRANCH   6  27
HETATM   27  O2  UNL     1       3.488  -2.878  17.776  1.00  0.00    -0.388 OA
ATOM     28  H2  UNL     1       3.089  -2.038  17.583  1.00  0.00     0.210 HD
ENDBRANCH   6  27
BRANCH   6  29
HETATM   29  C16 UNL     1       2.909  -5.034  16.996  1.00  0.00     0.151 C 
BRANCH  29  30
HETATM   30  N4  UNL     1       3.325  -5.570  18.240  1.00  0.00    -0.418 N 
ATOM     31  H4  UNL     1       2.994  -5.172  19.119  1.00  0.00     0.153 HD
BRANCH  30  32
HETATM   32  C17 UNL     1       4.215  -6.674  18.232  1.00  0.00     0.115 C 
BRANCH  32  33
HETATM   33  C18 UNL     1       5.658  -6.341  18.546  1.00  0.00     0.049 C 
BRANCH  33  34
HETATM   34  C19 UNL     1       6.620  -6.677  17.455  1.00  0.00     0.274 C 
BRANCH  34  35
HETATM   35  N5  UNL     1       7.670  -7.521  17.914  1.00  0.00     0.088 N 
HETATM   36  C20 UNL     1       8.576  -7.917  16.847  1.00  0.00     0.272 C 
HETATM   37  C21 UNL     1       9.664  -6.890  16.812  1.00  0.00     0.032 C 
HETATM   38  C22 UNL     1       9.748  -6.383  18.209  1.00  0.00     0.032 C 
HETATM   39  C23 UNL     1       8.500  -6.834  18.888  1.00  0.00     0.272 C 
ENDBRANCH  34  35
ENDBRANCH  33  34
ENDBRANCH  32  33
ENDBRANCH  30  32
ENDBRANCH  29  30
ENDBRANCH   6  29
TORSDOF 12
ENDMDL
MODEL 5
REMARK VINA RESULT: -8.789439958      1.581      2.295
REMARK  12 active torsions:
REMARK  status: ('A' for Active; 'I' for Inactive)
REMARK    1  A    between atoms: C2_2  and  C3_3 
REMARK    2  A    between atoms: N2_12  and  C9_13 
REMARK    3  A    between atoms: C9_13  and  C10_14 
REMARK    4  A    between atoms: C10_14  and  C11_15 
REMARK    5  A    between atoms: C11_15  and  C12_16 
REMARK       I    between atoms: C12_16  and  N3_18 
REMARK    6  A    between atoms: C15_21  and  O2_22 
REMARK    7  A    between atoms: C15_21  and  C16_24 
REMARK    8  A    between atoms: C16_24  and  N4_25 
REMARK    9  A    between atoms: N4_25  and  C17_27 
REMARK   10  A    between atoms: C17_27  and  C18_28 
REMARK   11  A    between atoms: C18_28  and  C19_29 
REMARK   12  A    between atoms: C19_29  and  N5_30 
ROOT
HETATM    1  C12 UNL     1       3.042  -3.626  16.844  1.00  0.00     0.219 C 
HETATM    2  O1  UNL     1       3.225  -2.737  17.748  1.00  0.00    -0.273 OA
HETATM    3  N3  UNL     1       3.318  -4.994  17.105  1.00  0.00    -0.352 N 
HETATM    4  C13 UNL     1       3.830  -5.367  18.407  1.00  0.00     0.129 C 
HETATM    5  C14 UNL     1       3.321  -6.760  18.706  1.00  0.00     0.059 C 
HETATM    6  C15 UNL     1       3.957  -7.772  17.763  1.00  0.00     0.076 C 
HETATM    7  C24 UNL     1       4.086  -7.198  16.368  1.00  0.00     0.059 C 
HETATM    8  C25 UNL     1       3.120  -6.055  16.150  1.00  0.00     0.129 C 
ENDROOT
BRANCH   1   9
HETATM    9  C11 UNL     1       2.543  -3.170  15.547  1.00  0.00     0.104 C 
BRANCH   9  10
HETATM   10  C10 UNL     1       3.523  -2.697  14.568  1.00  0.00     0.029 C 
BRANCH  10  11
HETATM   11  C9  UNL     1       3.962  -1.294  14.495  1.00  0.00     0.135 C 
BRANCH  11  12
HETATM   12  N2  UNL     1       5.010  -0.966  13.579  1.00  0.00    -0.290 N 
HETATM   13  C8  UNL     1       4.836  -0.496  12.368  1.00  0.00     0.181 A 
HETATM   14  N1  UNL     1       5.899  -0.263  11.542  1.00  0.00    -0.332 N 
HETATM   15  S1  UNL     1       3.363  -0.070  11.745  1.00  0.00    -0.040 SA
HETATM   16  C7  UNL     1       7.150  -0.502  11.939  1.00  0.00     0.051 A 
ATOM     17  H1  UNL     1       5.733   0.100  10.603  1.00  0.00     0.168 HD
HETATM   18  C6  UNL     1       8.223  -0.266  11.077  1.00  0.00     0.030 A 
HETATM   19  C27 UNL     1       7.403  -1.001  13.223  1.00  0.00     0.069 A 
HETATM   20  C5  UNL     1       9.488  -0.531  11.523  1.00  0.00     0.003 A 
HETATM   21  C4  UNL     1       9.739  -1.016  12.772  1.00  0.00     0.012 A 
HETATM   22  C3  UNL     1       8.680  -1.259  13.650  1.00  0.00    -0.019 A 
HETATM   23  C26 UNL     1       6.297  -1.217  14.004  1.00  0.00     0.263 A 
HETATM   24  O3  UNL     1       6.458  -1.670  15.166  1.00  0.00    -0.267 OA
BRANCH  22  25
HETATM   25  C2  UNL     1       9.024  -1.774  14.936  1.00  0.00     0.002 C 
HETATM   26  C1  UNL     1      10.179  -2.452  15.148  1.00  0.00     0.012 C 
ENDBRANCH  22  25
ENDBRANCH  11  12
ENDBRANCH  10  11
ENDBRANCH   9  10
ENDBRANCH   1   9
BRANCH   6  27
HETATM   27  O2  UNL     1       3.075  -8.836  17.695  1.00  0.00    -0.388 OA
ATOM     28  H2  UNL     1       2.306  -8.569  18.186  1.00  0.00     0.210 HD
ENDBRANCH   6  27
BRANCH   6  29
HETATM   29  C16 UNL     1       5.250  -8.182  18.352  1.00  0.00     0.151 C 
BRANCH  29  30
HETATM   30  N4  UNL     1       6.334  -8.474  17.486  1.00  0.00    -0.418 N 
ATOM     31  H4  UNL     1       6.194  -8.544  16.479  1.00  0.00     0.153 HD
BRANCH  30  32
HETATM   32  C17 UNL     1       7.617  -8.668  18.058  1.00  0.00     0.115 C 
BRANCH  32  33
HETATM   33  C18 UNL     1       8.619  -7.568  17.777  1.00  0.00     0.049 C 
BRANCH  33  34
HETATM   34  C19 UNL     1       8.849  -7.301  16.327  1.00  0.00     0.274 C 
BRANCH  34  35
HETATM   35  N5  UNL     1       8.947  -5.906  16.052  1.00  0.00     0.088 N 
HETATM   36  C20 UNL     1       8.221  -5.522  14.852  1.00  0.00     0.272 C 
HETATM   37  C21 UNL     1       6.839  -5.151  15.294  1.00  0.00     0.032 C 
HETATM   38  C22 UNL     1       7.008  -4.671  16.693  1.00  0.00     0.032 C 
HETATM   39  C23 UNL     1       8.360  -5.124  17.126  1.00  0.00     0.272 C 
ENDBRANCH  34  35
ENDBRANCH  33  34
ENDBRANCH  32  33
ENDBRANCH  30  32
ENDBRANCH  29  30
ENDBRANCH   6  29
TORSDOF 12
ENDMDL
