MODEL 1
REMARK VINA RESULT: -8.675045339      0.000      0.000
REMARK  13 active torsions:
REMARK  status: ('A' for Active; 'I' for Inactive)
REMARK    1  A    between atoms: C4_4  and  O1_5 
REMARK    2  A    between atoms: C7_9  and  O2_10 
REMARK    3  A    between atoms: O2_10  and  C8_11 
REMARK    4  A    between atoms: C8_11  and  C9_13 
REMARK    5  A    between atoms: C9_13  and  C10_14 
REMARK    6  A    between atoms: C11_15  and  C12_16 
REMARK    7  A    between atoms: C13_17  and  N1_18 
REMARK    8  A    between atoms: N1_18  and  C14_20 
REMARK    9  A    between atoms: C14_20  and  C15_21 
REMARK   10  A    between atoms: C15_21  and  O4_22 
REMARK   11  A    between atoms: C17_24  and  C18_25 
REMARK   12  A    between atoms: C22_30  and  O6_31 
REMARK   13  A    between atoms: C26_36  and  C27_37 
ROOT
HETATM    1  C12 UNL     1       5.962  -0.004  13.939  1.00  0.00     0.037 C 
HETATM    2  C13 UNL     1       4.494   0.324  13.812  1.00  0.00     0.100 C 
HETATM    3  C17 UNL     1       3.817  -0.878  14.455  1.00  0.00     0.079 C 
HETATM    4  C19 UNL     1       4.813  -1.997  14.398  1.00  0.00    -0.025 C 
HETATM    5  C20 UNL     1       4.246  -3.034  13.436  1.00  0.00     0.016 C 
HETATM    6  C21 UNL     1       4.947  -2.600  15.765  1.00  0.00     0.042 C 
HETATM    7  C22 UNL     1       6.400  -2.569  16.119  1.00  0.00     0.128 C 
HETATM    8  C23 UNL     1       7.129  -2.048  14.935  1.00  0.00    -0.002 C 
HETATM    9  C24 UNL     1       8.333  -1.196  15.253  1.00  0.00     0.014 C 
HETATM   10  C25 UNL     1       9.228  -2.047  14.385  1.00  0.00     0.011 C 
HETATM   11  C26 UNL     1       8.061  -3.028  14.298  1.00  0.00     0.025 C 
HETATM   12  C30 UNL     1       6.138  -1.474  13.942  1.00  0.00     0.016 C 
ENDROOT
BRANCH   1  13
HETATM   13  C11 UNL     1       6.745   0.790  12.982  1.00  0.00    -0.023 C 
HETATM   14  C10 UNL     1       7.337   1.948  13.125  1.00  0.00    -0.020 C 
BRANCH  14  15
HETATM   15  C9  UNL     1       8.086   2.563  12.001  1.00  0.00     0.138 C 
BRANCH  15  16
HETATM   16  C8  UNL     1       7.317   3.409  11.104  1.00  0.00     0.262 C 
HETATM   17  O3  UNL     1       6.371   4.141  11.489  1.00  0.00    -0.265 OA
BRANCH  16  18
HETATM   18  O2  UNL     1       7.570   3.479   9.718  1.00  0.00    -0.311 OA
BRANCH  18  19
HETATM   19  C7  UNL     1       6.727   2.845   8.784  1.00  0.00     0.166 C 
HETATM   20  C2  UNL     1       7.270   1.510   8.377  1.00  0.00    -0.057 C 
HETATM   21  C1  UNL     1       8.009   0.670   9.043  1.00  0.00     0.017 C 
HETATM   22  C3  UNL     1       6.783   1.295   6.978  1.00  0.00     0.068 C 
HETATM   23  C4  UNL     1       6.341   2.634   6.472  1.00  0.00     0.128 C 
HETATM   24  C5  UNL     1       6.862   3.618   7.483  1.00  0.00     0.044 C 
HETATM   25  C6  UNL     1       8.338   3.827   7.211  1.00  0.00     0.015 C 
BRANCH  23  26
HETATM   26  O1  UNL     1       6.991   2.922   5.260  1.00  0.00    -0.395 OA
ATOM     27  H1  UNL     1       7.655   3.585   5.402  1.00  0.00     0.210 HD
ENDBRANCH  23  26
ENDBRANCH  18  19
ENDBRANCH  16  18
ENDBRANCH  15  16
ENDBRANCH  14  15
ENDBRANCH   1  13
BRANCH   2  28
HETATM   28  N1  UNL     1       3.904   0.683  12.617  1.00  0.00    -0.394 N 
ATOM     29  H1  UNL     1       3.701  -0.085  11.979  1.00  0.00     0.159 HD
BRANCH  28  30
HETATM   30  C14 UNL     1       3.550   1.935  12.167  1.00  0.00     0.082 C 
BRANCH  30  31
HETATM   31  C15 UNL     1       2.210   2.005  11.441  1.00  0.00     0.211 C 
BRANCH  31  32
HETATM   32  O4  UNL     1       1.764   3.319  11.428  1.00  0.00    -0.391 OA
HETATM   33  C16 UNL     1       1.041   3.644  10.307  1.00  0.00     0.201 C 
ENDBRANCH  31  32
ENDBRANCH  30  31
ENDBRANCH  28  30
ENDBRANCH   2  28
BRANCH   3  34
HETATM   34  C18 UNL     1       2.528  -1.221  13.774  1.00  0.00     0.238 C 
HETATM   35  O5  UNL     1       1.474  -0.641  14.037  1.00  0.00    -0.306 OA
ENDBRANCH   3  34
BRANCH   7  36
HETATM   36  O6  UNL     1       6.648  -1.839  17.283  1.00  0.00    -0.395 OA
ATOM     37  H6  UNL     1       7.557  -1.574  17.356  1.00  0.00     0.210 HD
ENDBRANCH   7  36
BRANCH  11  38
HETATM   38  C27 UNL     1       8.459  -4.278  14.934  1.00  0.00    -0.088 C 
HETATM   39  C28 UNL     1       7.816  -5.389  14.612  1.00  0.00     0.014 C 
HETATM   40  C29 UNL     1       9.593  -4.458  15.898  1.00  0.00     0.043 C 
ENDBRANCH  11  38
TORSDOF 13
ENDMDL
MODEL 2
REMARK VINA RESULT: -8.468429094      1.150      1.875
REMARK  13 active torsions:
REMARK  status: ('A' for Active; 'I' for Inactive)
REMARK    1  A    between atoms: C4_4  and  O1_5 
REMARK    2  A    between atoms: C7_9  and  O2_10 
REMARK    3  A    between atoms: O2_10  and  C8_11 
REMARK    4  A    between atoms: C8_11  and  C9_13 
REMARK    5  A    between atoms: C9_13  and  C10_14 
REMARK    6  A    between atoms: C11_15  and  C12_16 
REMARK    7  A    between atoms: C13_17  and  N1_18 
REMARK    8  A    between atoms: N1_18  and  C14_20 
REMARK    9  A    between atoms: C14_20  and  C15_21 
REMARK   10  A    between atoms: C15_21  and  O4_22 
REMARK   11  A    between atoms: C17_24  and  C18_25 
REMARK   12  A    between atoms: C22_30  and  O6_31 
REMARK   13  A    between atoms: C26_36  and  C27_37 
ROOT
HETATM    1  C12 UNL     1       6.316  -0.187  13.941  1.00  0.00     0.037 C 
HETATM    2  C13 UNL     1       4.884   0.247  13.741  1.00  0.00     0.100 C 
HETATM    3  C17 UNL     1       4.093  -0.859  14.424  1.00  0.00     0.079 C 
HETATM    4  C19 UNL     1       4.997  -2.054  14.466  1.00  0.00    -0.025 C 
HETATM    5  C20 UNL     1       4.381  -3.097  13.542  1.00  0.00     0.016 C 
HETATM    6  C21 UNL     1       5.038  -2.585  15.868  1.00  0.00     0.042 C 
HETATM    7  C22 UNL     1       6.476  -2.647  16.274  1.00  0.00     0.128 C 
HETATM    8  C23 UNL     1       7.283  -2.254  15.090  1.00  0.00    -0.002 C 
HETATM    9  C24 UNL     1       8.540  -1.482  15.406  1.00  0.00     0.014 C 
HETATM   10  C25 UNL     1       9.392  -2.448  14.620  1.00  0.00     0.011 C 
HETATM   11  C26 UNL     1       8.154  -3.338  14.543  1.00  0.00     0.025 C 
HETATM   12  C30 UNL     1       6.374  -1.663  14.031  1.00  0.00     0.016 C 
ENDROOT
BRANCH   1  13
HETATM   13  C11 UNL     1       7.190   0.487  12.971  1.00  0.00    -0.023 C 
HETATM   14  C10 UNL     1       8.123   0.005  12.191  1.00  0.00    -0.020 C 
BRANCH  14  15
HETATM   15  C9  UNL     1       8.884   0.892  11.277  1.00  0.00     0.138 C 
BRANCH  15  16
HETATM   16  C8  UNL     1       8.525   0.825   9.871  1.00  0.00     0.262 C 
HETATM   17  O3  UNL     1       8.302  -0.254   9.267  1.00  0.00    -0.265 OA
BRANCH  16  18
HETATM   18  O2  UNL     1       8.396   1.973   9.062  1.00  0.00    -0.311 OA
BRANCH  18  19
HETATM   19  C7  UNL     1       7.241   2.202   8.288  1.00  0.00     0.166 C 
HETATM   20  C2  UNL     1       7.325   3.504   7.553  1.00  0.00    -0.057 C 
HETATM   21  C1  UNL     1       8.367   4.146   7.108  1.00  0.00     0.017 C 
HETATM   22  C3  UNL     1       5.910   3.969   7.407  1.00  0.00     0.068 C 
HETATM   23  C4  UNL     1       5.100   3.176   8.386  1.00  0.00     0.128 C 
HETATM   24  C5  UNL     1       6.115   2.497   9.265  1.00  0.00     0.044 C 
HETATM   25  C6  UNL     1       6.618   3.518  10.267  1.00  0.00     0.015 C 
BRANCH  23  26
HETATM   26  O1  UNL     1       4.370   4.046   9.214  1.00  0.00    -0.395 OA
ATOM     27  H1  UNL     1       3.441   3.884   9.108  1.00  0.00     0.210 HD
ENDBRANCH  23  26
ENDBRANCH  18  19
ENDBRANCH  16  18
ENDBRANCH  15  16
ENDBRANCH  14  15
ENDBRANCH   1  13
BRANCH   2  28
HETATM   28  N1  UNL     1       4.363   0.581  12.508  1.00  0.00    -0.394 N 
ATOM     29  H1  UNL     1       4.216  -0.198  11.868  1.00  0.00     0.159 HD
BRANCH  28  30
HETATM   30  C14 UNL     1       4.015   1.821  12.021  1.00  0.00     0.082 C 
BRANCH  30  31
HETATM   31  C15 UNL     1       2.590   1.926  11.484  1.00  0.00     0.211 C 
BRANCH  31  32
HETATM   32  O4  UNL     1       2.275   3.263  11.285  1.00  0.00    -0.391 OA
HETATM   33  C16 UNL     1       1.110   3.454  10.582  1.00  0.00     0.201 C 
ENDBRANCH  31  32
ENDBRANCH  30  31
ENDBRANCH  28  30
ENDBRANCH   2  28
BRANCH   3  34
HETATM   34  C18 UNL     1       2.803  -1.140  13.716  1.00  0.00     0.238 C 
HETATM   35  O5  UNL     1       1.761  -0.544  13.991  1.00  0.00    -0.306 OA
ENDBRANCH   3  34
BRANCH   7  36
HETATM   36  O6  UNL     1       6.744  -1.872  17.404  1.00  0.00    -0.395 OA
ATOM     37  H6  UNL     1       6.716  -2.381  18.206  1.00  0.00     0.210 HD
ENDBRANCH   7  36
BRANCH  11  38
HETATM   38  C27 UNL     1       8.430  -4.577  15.262  1.00  0.00    -0.088 C 
HETATM   39  C28 UNL     1       7.878  -5.700  14.830  1.00  0.00     0.014 C 
HETATM   40  C29 UNL     1       9.347  -4.733  16.437  1.00  0.00     0.043 C 
ENDBRANCH  11  38
TORSDOF 13
ENDMDL
MODEL 3
REMARK VINA RESULT: -8.429418406      0.838      1.338
REMARK  13 active torsions:
REMARK  status: ('A' for Active; 'I' for Inactive)
REMARK    1  A    between atoms: C4_4  and  O1_5 
REMARK    2  A    between atoms: C7_9  and  O2_10 
REMARK    3  A    between atoms: O2_10  and  C8_11 
REMARK    4  A    between atoms: C8_11  and  C9_13 
REMARK    5  A    between atoms: C9_13  and  C10_14 
REMARK    6  A    between atoms: C11_15  and  C12_16 
REMARK    7  A    between atoms: C13_17  and  N1_18 
REMARK    8  A    between atoms: N1_18  and  C14_20 
REMARK    9  A    between atoms: C14_20  and  C15_21 
REMARK   10  A    between atoms: C15_21  and  O4_22 
REMARK   11  A    between atoms: C17_24  and  C18_25 
REMARK   12  A    between atoms: C22_30  and  O6_31 
REMARK   13  A    between atoms: C26_36  and  C27_37 
ROOT
HETATM    1  C12 UNL     1       6.059  -0.035  13.839  1.00  0.00     0.037 C 
HETATM    2  C13 UNL     1       4.606   0.346  13.695  1.00  0.00     0.100 C 
HETATM    3  C17 UNL     1       3.882  -0.793  14.398  1.00  0.00     0.079 C 
HETATM    4  C19 UNL     1       4.830  -1.953  14.398  1.00  0.00    -0.025 C 
HETATM    5  C20 UNL     1       4.218  -3.012  13.490  1.00  0.00     0.016 C 
HETATM    6  C21 UNL     1       4.943  -2.492  15.793  1.00  0.00     0.042 C 
HETATM    7  C22 UNL     1       6.396  -2.503  16.145  1.00  0.00     0.128 C 
HETATM    8  C23 UNL     1       7.144  -2.073  14.935  1.00  0.00    -0.002 C 
HETATM    9  C24 UNL     1       8.382  -1.257  15.210  1.00  0.00     0.014 C 
HETATM   10  C25 UNL     1       9.239  -2.187  14.386  1.00  0.00     0.011 C 
HETATM   11  C26 UNL     1       8.032  -3.121  14.348  1.00  0.00     0.025 C 
HETATM   12  C30 UNL     1       6.175  -1.509  13.915  1.00  0.00     0.016 C 
ENDROOT
BRANCH   1  13
HETATM   13  C11 UNL     1       6.872   0.677  12.843  1.00  0.00    -0.023 C 
HETATM   14  C10 UNL     1       7.502   0.231  11.786  1.00  0.00    -0.020 C 
BRANCH  14  15
HETATM   15  C9  UNL     1       8.267   1.154  10.911  1.00  0.00     0.138 C 
BRANCH  15  16
HETATM   16  C8  UNL     1       7.595   2.385  10.534  1.00  0.00     0.262 C 
HETATM   17  O3  UNL     1       7.793   3.484  11.113  1.00  0.00    -0.265 OA
BRANCH  16  18
HETATM   18  O2  UNL     1       6.659   2.452   9.482  1.00  0.00    -0.311 OA
BRANCH  18  19
HETATM   19  C7  UNL     1       6.811   3.363   8.418  1.00  0.00     0.166 C 
HETATM   20  C2  UNL     1       5.506   3.626   7.733  1.00  0.00    -0.057 C 
HETATM   21  C1  UNL     1       4.294   3.601   8.208  1.00  0.00     0.017 C 
HETATM   22  C3  UNL     1       5.860   3.945   6.314  1.00  0.00     0.068 C 
HETATM   23  C4  UNL     1       7.266   3.469   6.111  1.00  0.00     0.128 C 
HETATM   24  C5  UNL     1       7.567   2.630   7.323  1.00  0.00     0.044 C 
HETATM   25  C6  UNL     1       6.913   1.277   7.125  1.00  0.00     0.015 C 
BRANCH  23  26
HETATM   26  O1  UNL     1       7.320   2.607   5.002  1.00  0.00    -0.395 OA
ATOM     27  H1  UNL     1       7.914   2.959   4.351  1.00  0.00     0.210 HD
ENDBRANCH  23  26
ENDBRANCH  18  19
ENDBRANCH  16  18
ENDBRANCH  15  16
ENDBRANCH  14  15
ENDBRANCH   1  13
BRANCH   2  28
HETATM   28  N1  UNL     1       4.028   0.669  12.485  1.00  0.00    -0.394 N 
ATOM     29  H1  UNL     1       3.807  -0.120  11.880  1.00  0.00     0.159 HD
BRANCH  28  30
HETATM   30  C14 UNL     1       3.709   1.910  11.980  1.00  0.00     0.082 C 
BRANCH  30  31
HETATM   31  C15 UNL     1       2.296   2.032  11.416  1.00  0.00     0.211 C 
BRANCH  31  32
HETATM   32  O4  UNL     1       1.938   3.372  11.366  1.00  0.00    -0.391 OA
HETATM   33  C16 UNL     1       1.158   3.693  10.282  1.00  0.00     0.201 C 
ENDBRANCH  31  32
ENDBRANCH  30  31
ENDBRANCH  28  30
ENDBRANCH   2  28
BRANCH   3  34
HETATM   34  C18 UNL     1       2.577  -1.116  13.736  1.00  0.00     0.238 C 
HETATM   35  O5  UNL     1       1.537  -0.516  14.009  1.00  0.00    -0.306 OA
ENDBRANCH   3  34
BRANCH   7  36
HETATM   36  O6  UNL     1       6.677  -1.726  17.270  1.00  0.00    -0.395 OA
ATOM     37  H6  UNL     1       7.258  -1.001  17.073  1.00  0.00     0.210 HD
ENDBRANCH   7  36
BRANCH  11  38
HETATM   38  C27 UNL     1       8.380  -4.353  15.046  1.00  0.00    -0.088 C 
HETATM   39  C28 UNL     1       7.762  -5.474  14.707  1.00  0.00     0.014 C 
HETATM   40  C29 UNL     1       9.438  -4.506  16.098  1.00  0.00     0.043 C 
ENDBRANCH  11  38
TORSDOF 13
ENDMDL
MODEL 4
REMARK VINA RESULT: -8.117523063      2.313      3.584
REMARK  13 active torsions:
REMARK  status: ('A' for Active; 'I' for Inactive)
REMARK    1  A    between atoms: C4_4  and  O1_5 
REMARK    2  A    between atoms: C7_9  and  O2_10 
REMARK    3  A    between atoms: O2_10  and  C8_11 
REMARK    4  A    between atoms: C8_11  and  C9_13 
REMARK    5  A    between atoms: C9_13  and  C10_14 
REMARK    6  A    between atoms: C11_15  and  C12_16 
REMARK    7  A    between atoms: C13_17  and  N1_18 
REMARK    8  A    between atoms: N1_18  and  C14_20 
REMARK    9  A    between atoms: C14_20  and  C15_21 
REMARK   10  A    between atoms: C15_21  and  O4_22 
REMARK   11  A    between atoms: C17_24  and  C18_25 
REMARK   12  A    between atoms: C22_30  and  O6_31 
REMARK   13  A    between atoms: C26_36  and  C27_37 
ROOT
HETATM    1  C12 UNL     1       5.521   1.754  11.314  1.00  0.00     0.037 C 
HETATM    2  C13 UNL     1       4.018   1.800  11.443  1.00  0.00     0.100 C 
HETATM    3  C17 UNL     1       3.747   0.880  12.625  1.00  0.00     0.079 C 
HETATM    4  C19 UNL     1       4.940  -0.020  12.734  1.00  0.00    -0.025 C 
HETATM    5  C20 UNL     1       4.458  -1.423  12.386  1.00  0.00     0.016 C 
HETATM    6  C21 UNL     1       5.441   0.003  14.148  1.00  0.00     0.042 C 
HETATM    7  C22 UNL     1       6.889   0.371  14.096  1.00  0.00     0.128 C 
HETATM    8  C23 UNL     1       7.267   0.463  12.663  1.00  0.00    -0.002 C 
HETATM    9  C24 UNL     1       8.289   1.526  12.342  1.00  0.00     0.014 C 
HETATM   10  C25 UNL     1       9.185   0.528  11.650  1.00  0.00     0.011 C 
HETATM   11  C26 UNL     1       8.267  -0.553  12.216  1.00  0.00     0.025 C 
HETATM   12  C30 UNL     1       6.016   0.449  11.807  1.00  0.00     0.016 C 
ENDROOT
BRANCH   1  13
HETATM   13  C11 UNL     1       5.930   2.193   9.973  1.00  0.00    -0.023 C 
HETATM   14  C10 UNL     1       6.661   1.592   9.069  1.00  0.00    -0.020 C 
BRANCH  14  15
HETATM   15  C9  UNL     1       6.941   2.240   7.764  1.00  0.00     0.138 C 
BRANCH  15  16
HETATM   16  C8  UNL     1       6.872   3.691   7.739  1.00  0.00     0.262 C 
HETATM   17  O3  UNL     1       7.780   4.432   8.194  1.00  0.00    -0.265 OA
BRANCH  16  18
HETATM   18  O2  UNL     1       5.774   4.393   7.201  1.00  0.00    -0.311 OA
BRANCH  18  19
HETATM   19  C7  UNL     1       4.626   3.720   6.737  1.00  0.00     0.166 C 
HETATM   20  C2  UNL     1       4.590   3.670   5.241  1.00  0.00    -0.057 C 
HETATM   21  C1  UNL     1       5.568   3.653   4.382  1.00  0.00     0.017 C 
HETATM   22  C3  UNL     1       3.137   3.640   4.881  1.00  0.00     0.068 C 
HETATM   23  C4  UNL     1       2.389   4.080   6.101  1.00  0.00     0.128 C 
HETATM   24  C5  UNL     1       3.444   4.630   7.022  1.00  0.00     0.044 C 
HETATM   25  C6  UNL     1       3.797   6.024   6.543  1.00  0.00     0.015 C 
BRANCH  23  26
HETATM   26  O1  UNL     1       1.540   5.153   5.777  1.00  0.00    -0.395 OA
ATOM     27  H1  UNL     1       1.253   5.073   4.876  1.00  0.00     0.210 HD
ENDBRANCH  23  26
ENDBRANCH  18  19
ENDBRANCH  16  18
ENDBRANCH  15  16
ENDBRANCH  14  15
ENDBRANCH   1  13
BRANCH   2  28
HETATM   28  N1  UNL     1       3.164   1.564  10.386  1.00  0.00    -0.394 N 
ATOM     29  H1  UNL     1       3.260   0.652   9.940  1.00  0.00     0.159 HD
BRANCH  28  30
HETATM   30  C14 UNL     1       2.201   2.388   9.848  1.00  0.00     0.082 C 
BRANCH  30  31
HETATM   31  C15 UNL     1       1.807   3.575  10.723  1.00  0.00     0.211 C 
BRANCH  31  32
HETATM   32  O4  UNL     1       0.568   3.328  11.299  1.00  0.00    -0.391 OA
HETATM   33  C16 UNL     1      -0.244   2.526  10.534  1.00  0.00     0.201 C 
ENDBRANCH  31  32
ENDBRANCH  30  31
ENDBRANCH  28  30
ENDBRANCH   2  28
BRANCH   3  34
HETATM   34  C18 UNL     1       2.467   0.120  12.456  1.00  0.00     0.238 C 
HETATM   35  O5  UNL     1       1.388   0.556  12.860  1.00  0.00    -0.306 OA
ENDBRANCH   3  34
BRANCH   7  36
HETATM   36  O6  UNL     1       7.169   1.534  14.815  1.00  0.00    -0.395 OA
ATOM     37  H6  UNL     1       6.821   1.505  15.699  1.00  0.00     0.210 HD
ENDBRANCH   7  36
BRANCH  11  38
HETATM   38  C27 UNL     1       9.037  -1.374  13.143  1.00  0.00    -0.088 C 
HETATM   39  C28 UNL     1      10.356  -1.268  13.144  1.00  0.00     0.014 C 
HETATM   40  C29 UNL     1       8.475  -2.311  14.171  1.00  0.00     0.043 C 
ENDBRANCH  11  38
TORSDOF 13
ENDMDL
MODEL 5
REMARK VINA RESULT: -8.111269279      2.511      5.582
REMARK  13 active torsions:
REMARK  status: ('A' for Active; 'I' for Inactive)
REMARK    1  A    between atoms: C4_4  and  O1_5 
REMARK    2  A    between atoms: C7_9  and  O2_10 
REMARK    3  A    between atoms: O2_10  and  C8_11 
REMARK    4  A    between atoms: C8_11  and  C9_13 
REMARK    5  A    between atoms: C9_13  and  C10_14 
REMARK    6  A    between atoms: C11_15  and  C12_16 
REMARK    7  A    between atoms: C13_17  and  N1_18 
REMARK    8  A    between atoms: N1_18  and  C14_20 
REMARK    9  A    between atoms: C14_20  and  C15_21 
REMARK   10  A    between atoms: C15_21  and  O4_22 
REMARK   11  A    between atoms: C17_24  and  C18_25 
REMARK   12  A    between atoms: C22_30  and  O6_31 
REMARK   13  A    between atoms: C26_36  and  C27_37 
ROOT
HETATM    1  C12 UNL     1       6.203  -0.828  13.110  1.00  0.00     0.037 C 
HETATM    2  C13 UNL     1       7.706  -0.847  12.973  1.00  0.00     0.100 C 
HETATM    3  C17 UNL     1       8.106  -2.090  13.753  1.00  0.00     0.079 C 
HETATM    4  C19 UNL     1       6.977  -2.370  14.699  1.00  0.00    -0.025 C 
HETATM    5  C20 UNL     1       7.517  -2.128  16.103  1.00  0.00     0.016 C 
HETATM    6  C21 UNL     1       6.568  -3.806  14.558  1.00  0.00     0.042 C 
HETATM    7  C22 UNL     1       5.099  -3.820  14.273  1.00  0.00     0.128 C 
HETATM    8  C23 UNL     1       4.625  -2.414  14.346  1.00  0.00    -0.002 C 
HETATM    9  C24 UNL     1       3.525  -2.063  13.375  1.00  0.00     0.014 C 
HETATM   10  C25 UNL     1       2.647  -1.536  14.484  1.00  0.00     0.011 C 
HETATM   11  C26 UNL     1       3.660  -2.139  15.453  1.00  0.00     0.025 C 
HETATM   12  C30 UNL     1       5.818  -1.479  14.382  1.00  0.00     0.016 C 
ENDROOT
BRANCH   1  13
HETATM   13  C11 UNL     1       5.684   0.518  12.830  1.00  0.00    -0.023 C 
HETATM   14  C10 UNL     1       5.737   1.239  11.739  1.00  0.00    -0.020 C 
BRANCH  14  15
HETATM   15  C9  UNL     1       5.129   2.591  11.690  1.00  0.00     0.138 C 
BRANCH  15  16
HETATM   16  C8  UNL     1       4.633   3.026  10.396  1.00  0.00     0.262 C 
HETATM   17  O3  UNL     1       5.327   3.679   9.576  1.00  0.00    -0.265 OA
BRANCH  16  18
HETATM   18  O2  UNL     1       3.324   2.750   9.949  1.00  0.00    -0.311 OA
BRANCH  18  19
HETATM   19  C7  UNL     1       2.259   2.582  10.855  1.00  0.00     0.166 C 
HETATM   20  C2  UNL     1       1.816   1.153  10.917  1.00  0.00    -0.057 C 
HETATM   21  C1  UNL     1       2.496   0.059  10.727  1.00  0.00     0.017 C 
HETATM   22  C3  UNL     1       0.360   1.203  11.259  1.00  0.00     0.068 C 
HETATM   23  C4  UNL     1      -0.092   2.605  10.985  1.00  0.00     0.128 C 
HETATM   24  C5  UNL     1       1.041   3.231  10.218  1.00  0.00     0.044 C 
HETATM   25  C6  UNL     1       0.950   2.753   8.783  1.00  0.00     0.015 C 
BRANCH  23  26
HETATM   26  O1  UNL     1      -1.200   2.587  10.122  1.00  0.00    -0.395 OA
ATOM     27  H1  UNL     1      -1.747   3.345  10.286  1.00  0.00     0.210 HD
ENDBRANCH  23  26
ENDBRANCH  18  19
ENDBRANCH  16  18
ENDBRANCH  15  16
ENDBRANCH  14  15
ENDBRANCH   1  13
BRANCH   2  28
HETATM   28  N1  UNL     1       8.503   0.240  13.270  1.00  0.00    -0.394 N 
ATOM     29  H1  UNL     1       8.455   0.568  14.234  1.00  0.00     0.159 HD
BRANCH  28  30
HETATM   30  C14 UNL     1       9.354   0.943  12.447  1.00  0.00     0.082 C 
BRANCH  30  31
HETATM   31  C15 UNL     1       9.818   0.188  11.204  1.00  0.00     0.211 C 
BRANCH  31  32
HETATM   32  O4  UNL     1       9.397   0.870  10.071  1.00  0.00    -0.391 OA
HETATM   33  C16 UNL     1       8.231   0.378   9.535  1.00  0.00     0.201 C 
ENDBRANCH  31  32
ENDBRANCH  30  31
ENDBRANCH  28  30
ENDBRANCH   2  28
BRANCH   3  34
HETATM   34  C18 UNL     1       9.415  -1.908  14.459  1.00  0.00     0.238 C 
HETATM   35  O5  UNL     1      10.494  -2.016  13.876  1.00  0.00    -0.306 OA
ENDBRANCH   3  34
BRANCH   7  36
HETATM   36  O6  UNL     1       4.799  -4.440  13.059  1.00  0.00    -0.395 OA
ATOM     37  H6  UNL     1       3.877  -4.375  12.838  1.00  0.00     0.210 HD
ENDBRANCH   7  36
BRANCH  11  38
HETATM   38  C27 UNL     1       3.001  -3.194  16.215  1.00  0.00    -0.088 C 
HETATM   39  C28 UNL     1       3.295  -3.331  17.498  1.00  0.00     0.014 C 
HETATM   40  C29 UNL     1       1.948  -4.130  15.702  1.00  0.00     0.043 C 
ENDBRANCH  11  38
TORSDOF 13
ENDMDL
