MODEL 1
REMARK VINA RESULT: -8.458677973      0.000      0.000
REMARK  11 active torsions:
REMARK  status: ('A' for Active; 'I' for Inactive)
REMARK    1  A    between atoms: N1_6  and  C5_8 
REMARK    2  A    between atoms: C5_8  and  C6_9 
REMARK    3  A    between atoms: C6_9  and  C7_10 
REMARK    4  A    between atoms: C7_10  and  C8_11 
REMARK    5  A    between atoms: C8_11  and  C9_12 
REMARK    6  A    between atoms: C9_12  and  C10_13 
REMARK    7  A    between atoms: C17_28  and  O2_29 
REMARK    8  A    between atoms: O2_29  and  C18_30 
REMARK    9  A    between atoms: C18_30  and  C19_31 
REMARK   10  A    between atoms: C19_31  and  C20_32 
REMARK   11  A    between atoms: C20_32  and  C21_33 
REMARK       I    between atoms: C21_33  and  N5_35 
ROOT
HETATM    1  C1  UNL     1       3.521  -2.128  14.321  1.00  0.00     0.030 C 
HETATM    2  C2  UNL     1       4.981  -1.928  13.894  1.00  0.00     0.035 C 
HETATM    3  C3  UNL     1       5.191  -2.913  12.736  1.00  0.00     0.030 C 
HETATM    4  S1  UNL     1       6.022  -2.432  15.240  1.00  0.00    -0.082 SA
HETATM    5  C4  UNL     1       7.708  -1.878  14.913  1.00  0.00     0.143 C 
HETATM    6  N1  UNL     1       8.669  -2.686  15.119  1.00  0.00    -0.371 N 
ATOM      7  H1  UNL     1       9.610  -2.346  14.924  1.00  0.00     0.161 HD
HETATM    8  N4  UNL     1       8.021  -0.575  14.432  1.00  0.00    -0.308 N 
ATOM      9  H4  UNL     1       8.992  -0.436  14.151  1.00  0.00     0.171 HD
HETATM   10  C15 UNL     1       7.164   0.579  14.284  1.00  0.00     0.226 C 
HETATM   11  O1  UNL     1       7.698   1.700  14.125  1.00  0.00    -0.273 OA
HETATM   12  C16 UNL     1       5.671   0.466  14.318  1.00  0.00     0.136 C 
HETATM   13  C17 UNL     1       5.170  -0.559  13.344  1.00  0.00     0.148 C 
ENDROOT
BRANCH   6  14
HETATM   14  C5  UNL     1       8.549  -4.024  15.599  1.00  0.00     0.121 C 
BRANCH  14  15
HETATM   15  C6  UNL     1       9.910  -4.694  15.760  1.00  0.00     0.020 C 
BRANCH  15  16
HETATM   16  C7  UNL     1      10.267  -4.816  17.217  1.00  0.00     0.002 C 
BRANCH  16  17
HETATM   17  C8  UNL     1      10.536  -6.230  17.655  1.00  0.00     0.002 C 
BRANCH  17  18
HETATM   18  C9  UNL     1       9.301  -7.048  17.447  1.00  0.00     0.024 C 
BRANCH  18  19
HETATM   19  C10 UNL     1       8.431  -7.063  18.715  1.00  0.00     0.078 C 
HETATM   20  C11 UNL     1       7.283  -6.167  18.507  1.00  0.00     0.052 C 
HETATM   21  C12 UNL     1       5.942  -6.825  18.425  1.00  0.00     0.234 C 
HETATM   22  N2  UNL     1       5.698  -7.818  19.416  1.00  0.00    -0.074 N 
HETATM   23  C13 UNL     1       5.879  -9.121  18.803  1.00  0.00     0.251 C 
ATOM     24  H22 UNL     1       6.273  -7.693  20.249  1.00  0.00     0.277 HD
ATOM     25  H21 UNL     1       4.786  -7.715  19.860  1.00  0.00     0.277 HD
HETATM   26  C14 UNL     1       7.253  -9.083  18.133  1.00  0.00     0.141 C 
HETATM   27  N3  UNL     1       8.142  -8.421  19.019  1.00  0.00    -0.415 N 
ATOM     28  H3  UNL     1       8.548  -8.892  19.827  1.00  0.00     0.153 HD
ENDBRANCH  18  19
ENDBRANCH  17  18
ENDBRANCH  16  17
ENDBRANCH  15  16
ENDBRANCH  14  15
ENDBRANCH   6  14
BRANCH  13  29
HETATM   29  O2  UNL     1       6.036  -0.554  12.260  1.00  0.00    -0.384 OA
BRANCH  29  30
HETATM   30  C18 UNL     1       5.568   0.121  11.146  1.00  0.00     0.168 C 
BRANCH  30  31
HETATM   31  C19 UNL     1       6.305   1.388  10.828  1.00  0.00     0.035 C 
BRANCH  31  32
HETATM   32  C20 UNL     1       5.559   2.640  11.131  1.00  0.00     0.105 C 
BRANCH  32  33
HETATM   33  C21 UNL     1       4.584   3.079  10.143  1.00  0.00     0.220 C 
HETATM   34  O3  UNL     1       4.946   3.630   9.081  1.00  0.00    -0.273 OA
HETATM   35  N5  UNL     1       3.199   2.895  10.352  1.00  0.00    -0.348 N 
HETATM   36  C22 UNL     1       2.209   3.320   9.390  1.00  0.00     0.152 C 
HETATM   37  C25 UNL     1       2.749   2.261  11.570  1.00  0.00     0.152 C 
HETATM   38  C23 UNL     1       1.092   4.044  10.079  1.00  0.00     0.187 C 
HETATM   39  O4  UNL     1       0.700   3.488  11.270  1.00  0.00    -0.388 OA
HETATM   40  C24 UNL     1       1.217   2.241  11.529  1.00  0.00     0.187 C 
ENDBRANCH  32  33
ENDBRANCH  31  32
ENDBRANCH  30  31
ENDBRANCH  29  30
ENDBRANCH  13  29
TORSDOF 11
ENDMDL
MODEL 2
REMARK VINA RESULT: -8.405964011      3.926     10.464
REMARK  11 active torsions:
REMARK  status: ('A' for Active; 'I' for Inactive)
REMARK    1  A    between atoms: N1_6  and  C5_8 
REMARK    2  A    between atoms: C5_8  and  C6_9 
REMARK    3  A    between atoms: C6_9  and  C7_10 
REMARK    4  A    between atoms: C7_10  and  C8_11 
REMARK    5  A    between atoms: C8_11  and  C9_12 
REMARK    6  A    between atoms: C9_12  and  C10_13 
REMARK    7  A    between atoms: C17_28  and  O2_29 
REMARK    8  A    between atoms: O2_29  and  C18_30 
REMARK    9  A    between atoms: C18_30  and  C19_31 
REMARK   10  A    between atoms: C19_31  and  C20_32 
REMARK   11  A    between atoms: C20_32  and  C21_33 
REMARK       I    between atoms: C21_33  and  N5_35 
ROOT
HETATM    1  C1  UNL     1       4.498  -6.410  20.671  1.00  0.00     0.030 C 
HETATM    2  C2  UNL     1       4.856  -6.635  19.196  1.00  0.00     0.035 C 
HETATM    3  C3  UNL     1       6.183  -5.890  18.993  1.00  0.00     0.030 C 
HETATM    4  S1  UNL     1       3.621  -5.837  18.202  1.00  0.00    -0.082 SA
HETATM    5  C4  UNL     1       3.808  -6.381  16.491  1.00  0.00     0.143 C 
HETATM    6  N1  UNL     1       3.752  -5.513  15.563  1.00  0.00    -0.371 N 
ATOM      7  H1  UNL     1       3.862  -5.849  14.606  1.00  0.00     0.161 HD
HETATM    8  N4  UNL     1       4.018  -7.741  16.124  1.00  0.00    -0.308 N 
ATOM      9  H4  UNL     1       4.252  -7.896  15.143  1.00  0.00     0.171 HD
HETATM   10  C15 UNL     1       3.947  -8.932  16.937  1.00  0.00     0.226 C 
HETATM   11  O1  UNL     1       3.875 -10.042  16.363  1.00  0.00    -0.273 OA
HETATM   12  C16 UNL     1       3.959  -8.872  18.434  1.00  0.00     0.136 C 
HETATM   13  C17 UNL     1       5.122  -8.077  18.948  1.00  0.00     0.148 C 
ENDROOT
BRANCH   6  14
HETATM   14  C5  UNL     1       3.548  -4.112  15.738  1.00  0.00     0.121 C 
BRANCH  14  15
HETATM   15  C6  UNL     1       2.124  -3.696  15.382  1.00  0.00     0.020 C 
BRANCH  15  16
HETATM   16  C7  UNL     1       2.113  -2.310  14.796  1.00  0.00     0.002 C 
BRANCH  16  17
HETATM   17  C8  UNL     1       3.408  -1.925  14.133  1.00  0.00     0.002 C 
BRANCH  17  18
HETATM   18  C9  UNL     1       3.209  -0.649  13.379  1.00  0.00     0.024 C 
BRANCH  18  19
HETATM   19  C10 UNL     1       4.082   0.476  13.961  1.00  0.00     0.078 C 
HETATM   20  C11 UNL     1       5.151  -0.130  14.769  1.00  0.00     0.052 C 
HETATM   21  C12 UNL     1       6.542   0.018  14.238  1.00  0.00     0.234 C 
HETATM   22  N2  UNL     1       6.871   1.323  13.772  1.00  0.00    -0.074 N 
HETATM   23  C13 UNL     1       6.797   1.317  12.323  1.00  0.00     0.251 C 
ATOM     24  H22 UNL     1       6.291   2.049  14.193  1.00  0.00     0.277 HD
ATOM     25  H21 UNL     1       7.773   1.649  14.119  1.00  0.00     0.277 HD
HETATM   26  C14 UNL     1       5.422   0.745  11.975  1.00  0.00     0.141 C 
HETATM   27  N3  UNL     1       4.484   1.307  12.881  1.00  0.00    -0.415 N 
ATOM     28  H3  UNL     1       4.121   2.253  12.763  1.00  0.00     0.153 HD
ENDBRANCH  18  19
ENDBRANCH  17  18
ENDBRANCH  16  17
ENDBRANCH  15  16
ENDBRANCH  14  15
ENDBRANCH   6  14
BRANCH  13  29
HETATM   29  O2  UNL     1       6.171  -8.264  18.059  1.00  0.00    -0.384 OA
BRANCH  29  30
HETATM   30  C18 UNL     1       6.995  -9.337  18.350  1.00  0.00     0.168 C 
BRANCH  30  31
HETATM   31  C19 UNL     1       8.253  -8.976  19.084  1.00  0.00     0.035 C 
BRANCH  31  32
HETATM   32  C20 UNL     1       9.364  -8.487  18.222  1.00  0.00     0.105 C 
BRANCH  32  33
HETATM   33  C21 UNL     1       9.600  -7.052  18.208  1.00  0.00     0.220 C 
HETATM   34  O3  UNL     1      10.090  -6.469  19.200  1.00  0.00    -0.273 OA
HETATM   35  N5  UNL     1       9.284  -6.270  17.074  1.00  0.00    -0.348 N 
HETATM   36  C22 UNL     1       9.507  -4.844  17.032  1.00  0.00     0.152 C 
HETATM   37  C25 UNL     1       8.717  -6.913  15.912  1.00  0.00     0.152 C 
HETATM   38  C23 UNL     1       8.303  -4.145  16.474  1.00  0.00     0.187 C 
HETATM   39  O4  UNL     1       7.717  -4.782  15.411  1.00  0.00    -0.388 OA
HETATM   40  C24 UNL     1       8.446  -5.817  14.876  1.00  0.00     0.187 C 
ENDBRANCH  32  33
ENDBRANCH  31  32
ENDBRANCH  30  31
ENDBRANCH  29  30
ENDBRANCH  13  29
TORSDOF 11
ENDMDL
MODEL 3
REMARK VINA RESULT: -8.395786900      1.041      1.431
REMARK  11 active torsions:
REMARK  status: ('A' for Active; 'I' for Inactive)
REMARK    1  A    between atoms: N1_6  and  C5_8 
REMARK    2  A    between atoms: C5_8  and  C6_9 
REMARK    3  A    between atoms: C6_9  and  C7_10 
REMARK    4  A    between atoms: C7_10  and  C8_11 
REMARK    5  A    between atoms: C8_11  and  C9_12 
REMARK    6  A    between atoms: C9_12  and  C10_13 
REMARK    7  A    between atoms: C17_28  and  O2_29 
REMARK    8  A    between atoms: O2_29  and  C18_30 
REMARK    9  A    between atoms: C18_30  and  C19_31 
REMARK   10  A    between atoms: C19_31  and  C20_32 
REMARK   11  A    between atoms: C20_32  and  C21_33 
REMARK       I    between atoms: C21_33  and  N5_35 
ROOT
HETATM    1  C1  UNL     1       3.624  -2.148  14.324  1.00  0.00     0.030 C 
HETATM    2  C2  UNL     1       5.059  -1.939  13.826  1.00  0.00     0.035 C 
HETATM    3  C3  UNL     1       5.216  -2.915  12.652  1.00  0.00     0.030 C 
HETATM    4  S1  UNL     1       6.169  -2.446  15.114  1.00  0.00    -0.082 SA
HETATM    5  C4  UNL     1       7.834  -1.882  14.706  1.00  0.00     0.143 C 
HETATM    6  N1  UNL     1       8.808  -2.687  14.859  1.00  0.00    -0.371 N 
ATOM      7  H1  UNL     1       9.737  -2.341  14.619  1.00  0.00     0.161 HD
HETATM    8  N4  UNL     1       8.116  -0.574  14.219  1.00  0.00    -0.308 N 
ATOM      9  H4  UNL     1       9.071  -0.429  13.890  1.00  0.00     0.171 HD
HETATM   10  C15 UNL     1       7.249   0.576  14.122  1.00  0.00     0.226 C 
HETATM   11  O1  UNL     1       7.768   1.701  13.943  1.00  0.00    -0.273 OA
HETATM   12  C16 UNL     1       5.760   0.456  14.229  1.00  0.00     0.136 C 
HETATM   13  C17 UNL     1       5.215  -0.565  13.276  1.00  0.00     0.148 C 
ENDROOT
BRANCH   6  14
HETATM   14  C5  UNL     1       8.718  -4.029  15.335  1.00  0.00     0.121 C 
BRANCH  14  15
HETATM   15  C6  UNL     1       9.864  -4.374  16.280  1.00  0.00     0.020 C 
BRANCH  15  16
HETATM   16  C7  UNL     1       9.433  -5.424  17.268  1.00  0.00     0.002 C 
BRANCH  16  17
HETATM   17  C8  UNL     1       8.580  -6.507  16.662  1.00  0.00     0.002 C 
BRANCH  17  18
HETATM   18  C9  UNL     1       7.522  -6.899  17.643  1.00  0.00     0.024 C 
BRANCH  18  19
HETATM   19  C10 UNL     1       6.674  -5.683  18.053  1.00  0.00     0.078 C 
HETATM   20  C11 UNL     1       5.702  -5.407  16.985  1.00  0.00     0.052 C 
HETATM   21  C12 UNL     1       4.265  -5.642  17.326  1.00  0.00     0.234 C 
HETATM   22  N2  UNL     1       3.857  -5.134  18.592  1.00  0.00    -0.074 N 
HETATM   23  C13 UNL     1       3.797  -6.243  19.526  1.00  0.00     0.251 C 
ATOM     24  H22 UNL     1       4.452  -4.373  18.922  1.00  0.00     0.277 HD
ATOM     25  H21 UNL     1       2.981  -4.613  18.543  1.00  0.00     0.277 HD
HETATM   26  C14 UNL     1       5.150  -6.949  19.427  1.00  0.00     0.141 C 
HETATM   27  N3  UNL     1       6.150  -5.944  19.349  1.00  0.00    -0.415 N 
ATOM     28  H3  UNL     1       6.474  -5.440  20.174  1.00  0.00     0.153 HD
ENDBRANCH  18  19
ENDBRANCH  17  18
ENDBRANCH  16  17
ENDBRANCH  15  16
ENDBRANCH  14  15
ENDBRANCH   6  14
BRANCH  13  29
HETATM   29  O2  UNL     1       6.025  -0.549  12.150  1.00  0.00    -0.384 OA
BRANCH  29  30
HETATM   30  C18 UNL     1       5.506   0.146  11.071  1.00  0.00     0.168 C 
BRANCH  30  31
HETATM   31  C19 UNL     1       6.254   1.397  10.716  1.00  0.00     0.035 C 
BRANCH  31  32
HETATM   32  C20 UNL     1       5.534   2.665  11.013  1.00  0.00     0.105 C 
BRANCH  32  33
HETATM   33  C21 UNL     1       4.544   3.101  10.040  1.00  0.00     0.220 C 
HETATM   34  O3  UNL     1       4.890   3.638   8.965  1.00  0.00    -0.273 OA
HETATM   35  N5  UNL     1       3.162   2.931  10.277  1.00  0.00    -0.348 N 
HETATM   36  C22 UNL     1       2.157   3.354   9.329  1.00  0.00     0.152 C 
HETATM   37  C25 UNL     1       2.729   2.314  11.509  1.00  0.00     0.152 C 
HETATM   38  C23 UNL     1       1.059   4.096  10.031  1.00  0.00     0.187 C 
HETATM   39  O4  UNL     1       0.685   3.556  11.235  1.00  0.00    -0.388 OA
HETATM   40  C24 UNL     1       1.197   2.307  11.498  1.00  0.00     0.187 C 
ENDBRANCH  32  33
ENDBRANCH  31  32
ENDBRANCH  30  31
ENDBRANCH  29  30
ENDBRANCH  13  29
TORSDOF 11
ENDMDL
MODEL 4
REMARK VINA RESULT: -8.335886471      3.197      6.619
REMARK  11 active torsions:
REMARK  status: ('A' for Active; 'I' for Inactive)
REMARK    1  A    between atoms: N1_6  and  C5_8 
REMARK    2  A    between atoms: C5_8  and  C6_9 
REMARK    3  A    between atoms: C6_9  and  C7_10 
REMARK    4  A    between atoms: C7_10  and  C8_11 
REMARK    5  A    between atoms: C8_11  and  C9_12 
REMARK    6  A    between atoms: C9_12  and  C10_13 
REMARK    7  A    between atoms: C17_28  and  O2_29 
REMARK    8  A    between atoms: O2_29  and  C18_30 
REMARK    9  A    between atoms: C18_30  and  C19_31 
REMARK   10  A    between atoms: C19_31  and  C20_32 
REMARK   11  A    between atoms: C20_32  and  C21_33 
REMARK       I    between atoms: C21_33  and  N5_35 
ROOT
HETATM    1  C1  UNL     1       3.587  -8.210  16.363  1.00  0.00     0.030 C 
HETATM    2  C2  UNL     1       4.391  -7.137  17.110  1.00  0.00     0.035 C 
HETATM    3  C3  UNL     1       4.892  -6.185  16.014  1.00  0.00     0.030 C 
HETATM    4  S1  UNL     1       5.804  -7.921  17.844  1.00  0.00    -0.082 SA
HETATM    5  C4  UNL     1       6.564  -6.776  19.015  1.00  0.00     0.143 C 
HETATM    6  N1  UNL     1       7.829  -6.647  19.012  1.00  0.00    -0.371 N 
ATOM      7  H1  UNL     1       8.230  -5.992  19.683  1.00  0.00     0.161 HD
HETATM    8  N4  UNL     1       5.814  -6.003  19.947  1.00  0.00    -0.308 N 
ATOM      9  H4  UNL     1       6.345  -5.292  20.450  1.00  0.00     0.171 HD
HETATM   10  C15 UNL     1       4.412  -6.080  20.286  1.00  0.00     0.226 C 
HETATM   11  O1  UNL     1       4.020  -5.517  21.333  1.00  0.00    -0.273 OA
HETATM   12  C16 UNL     1       3.428  -6.809  19.424  1.00  0.00     0.136 C 
HETATM   13  C17 UNL     1       3.494  -6.350  17.997  1.00  0.00     0.148 C 
ENDROOT
BRANCH   6  14
HETATM   14  C5  UNL     1       8.739  -7.335  18.155  1.00  0.00     0.121 C 
BRANCH  14  15
HETATM   15  C6  UNL     1      10.192  -7.047  18.520  1.00  0.00     0.020 C 
BRANCH  15  16
HETATM   16  C7  UNL     1      10.801  -6.088  17.532  1.00  0.00     0.002 C 
BRANCH  16  17
HETATM   17  C8  UNL     1      10.013  -4.817  17.362  1.00  0.00     0.002 C 
BRANCH  17  18
HETATM   18  C9  UNL     1       9.982  -4.453  15.912  1.00  0.00     0.024 C 
BRANCH  18  19
HETATM   19  C10 UNL     1       8.536  -4.284  15.418  1.00  0.00     0.078 C 
HETATM   20  C11 UNL     1       7.679  -3.970  16.571  1.00  0.00     0.052 C 
HETATM   21  C12 UNL     1       7.090  -2.595  16.597  1.00  0.00     0.234 C 
HETATM   22  N2  UNL     1       6.538  -2.154  15.360  1.00  0.00    -0.074 N 
HETATM   23  C13 UNL     1       7.488  -1.251  14.738  1.00  0.00     0.251 C 
ATOM     24  H22 UNL     1       6.272  -2.927  14.750  1.00  0.00     0.277 HD
ATOM     25  H21 UNL     1       5.612  -1.739  15.467  1.00  0.00     0.277 HD
HETATM   26  C14 UNL     1       8.823  -1.997  14.716  1.00  0.00     0.141 C 
HETATM   27  N3  UNL     1       8.554  -3.343  14.353  1.00  0.00    -0.415 N 
ATOM     28  H3  UNL     1       8.384  -3.617  13.386  1.00  0.00     0.153 HD
ENDBRANCH  18  19
ENDBRANCH  17  18
ENDBRANCH  16  17
ENDBRANCH  15  16
ENDBRANCH  14  15
ENDBRANCH   6  14
BRANCH  13  29
HETATM   29  O2  UNL     1       3.834  -5.005  18.014  1.00  0.00    -0.384 OA
BRANCH  29  30
HETATM   30  C18 UNL     1       2.784  -4.138  17.767  1.00  0.00     0.168 C 
BRANCH  30  31
HETATM   31  C19 UNL     1       2.343  -4.084  16.334  1.00  0.00     0.035 C 
BRANCH  31  32
HETATM   32  C20 UNL     1       2.661  -2.813  15.627  1.00  0.00     0.105 C 
BRANCH  32  33
HETATM   33  C21 UNL     1       3.214  -2.930  14.286  1.00  0.00     0.220 C 
HETATM   34  O3  UNL     1       3.428  -4.050  13.772  1.00  0.00    -0.273 OA
HETATM   35  N5  UNL     1       3.527  -1.783  13.522  1.00  0.00    -0.348 N 
HETATM   36  C22 UNL     1       4.077  -1.869  12.190  1.00  0.00     0.152 C 
HETATM   37  C25 UNL     1       3.292  -0.475  14.088  1.00  0.00     0.152 C 
HETATM   38  C23 UNL     1       5.231  -0.923  12.042  1.00  0.00     0.187 C 
HETATM   39  O4  UNL     1       5.045   0.301  12.632  1.00  0.00    -0.388 OA
HETATM   40  C24 UNL     1       3.762   0.555  13.055  1.00  0.00     0.187 C 
ENDBRANCH  32  33
ENDBRANCH  31  32
ENDBRANCH  30  31
ENDBRANCH  29  30
ENDBRANCH  13  29
TORSDOF 11
ENDMDL
MODEL 5
REMARK VINA RESULT: -8.310749060      2.979      4.953
REMARK  11 active torsions:
REMARK  status: ('A' for Active; 'I' for Inactive)
REMARK    1  A    between atoms: N1_6  and  C5_8 
REMARK    2  A    between atoms: C5_8  and  C6_9 
REMARK    3  A    between atoms: C6_9  and  C7_10 
REMARK    4  A    between atoms: C7_10  and  C8_11 
REMARK    5  A    between atoms: C8_11  and  C9_12 
REMARK    6  A    between atoms: C9_12  and  C10_13 
REMARK    7  A    between atoms: C17_28  and  O2_29 
REMARK    8  A    between atoms: O2_29  and  C18_30 
REMARK    9  A    between atoms: C18_30  and  C19_31 
REMARK   10  A    between atoms: C19_31  and  C20_32 
REMARK   11  A    between atoms: C20_32  and  C21_33 
REMARK       I    between atoms: C21_33  and  N5_35 
ROOT
HETATM    1  C1  UNL     1       1.733  -2.730  15.453  1.00  0.00     0.030 C 
HETATM    2  C2  UNL     1       3.055  -3.500  15.564  1.00  0.00     0.035 C 
HETATM    3  C3  UNL     1       2.874  -4.728  14.660  1.00  0.00     0.030 C 
HETATM    4  S1  UNL     1       3.221  -4.070  17.237  1.00  0.00    -0.082 SA
HETATM    5  C4  UNL     1       4.908  -4.659  17.489  1.00  0.00     0.143 C 
HETATM    6  N1  UNL     1       5.089  -5.757  18.104  1.00  0.00    -0.371 N 
ATOM      7  H1  UNL     1       6.052  -6.065  18.230  1.00  0.00     0.161 HD
HETATM    8  N4  UNL     1       6.057  -3.951  17.030  1.00  0.00    -0.308 N 
ATOM      9  H4  UNL     1       6.939  -4.458  17.106  1.00  0.00     0.171 HD
HETATM   10  C15 UNL     1       6.155  -2.622  16.474  1.00  0.00     0.226 C 
HETATM   11  O1  UNL     1       7.283  -2.085  16.410  1.00  0.00    -0.273 OA
HETATM   12  C16 UNL     1       4.952  -1.881  15.977  1.00  0.00     0.136 C 
HETATM   13  C17 UNL     1       4.166  -2.695  14.991  1.00  0.00     0.148 C 
ENDROOT
BRANCH   6  14
HETATM   14  C5  UNL     1       4.065  -6.598  18.634  1.00  0.00     0.121 C 
BRANCH  14  15
HETATM   15  C6  UNL     1       4.584  -7.998  18.943  1.00  0.00     0.020 C 
BRANCH  15  16
HETATM   16  C7  UNL     1       5.662  -8.388  17.968  1.00  0.00     0.002 C 
BRANCH  16  17
HETATM   17  C8  UNL     1       6.893  -8.952  18.625  1.00  0.00     0.002 C 
BRANCH  17  18
HETATM   18  C9  UNL     1       8.099  -8.515  17.856  1.00  0.00     0.024 C 
BRANCH  18  19
HETATM   19  C10 UNL     1       8.895  -7.457  18.636  1.00  0.00     0.078 C 
HETATM   20  C11 UNL     1      10.323  -7.803  18.574  1.00  0.00     0.052 C 
HETATM   21  C12 UNL     1      11.193  -6.869  17.793  1.00  0.00     0.234 C 
HETATM   22  N2  UNL     1      10.969  -5.486  18.046  1.00  0.00    -0.074 N 
HETATM   23  C13 UNL     1      10.179  -4.950  16.954  1.00  0.00     0.251 C 
ATOM     24  H22 UNL     1      10.546  -5.316  18.959  1.00  0.00     0.277 HD
ATOM     25  H21 UNL     1      11.835  -4.968  18.197  1.00  0.00     0.277 HD
HETATM   26  C14 UNL     1       8.966  -5.872  16.821  1.00  0.00     0.141 C 
HETATM   27  N3  UNL     1       8.520  -6.181  18.133  1.00  0.00    -0.415 N 
ATOM     28  H3  UNL     1       7.962  -5.527  18.681  1.00  0.00     0.153 HD
ENDBRANCH  18  19
ENDBRANCH  17  18
ENDBRANCH  16  17
ENDBRANCH  15  16
ENDBRANCH  14  15
ENDBRANCH   6  14
BRANCH  13  29
HETATM   29  O2  UNL     1       5.072  -3.485  14.298  1.00  0.00    -0.384 OA
BRANCH  29  30
HETATM   30  C18 UNL     1       5.432  -2.998  13.053  1.00  0.00     0.168 C 
BRANCH  30  31
HETATM   31  C19 UNL     1       4.342  -2.261  12.332  1.00  0.00     0.035 C 
BRANCH  31  32
HETATM   32  C20 UNL     1       4.737  -0.933  11.787  1.00  0.00     0.105 C 
BRANCH  32  33
HETATM   33  C21 UNL     1       5.345   0.004  12.720  1.00  0.00     0.220 C 
HETATM   34  O3  UNL     1       4.662   0.574  13.599  1.00  0.00    -0.273 OA
HETATM   35  N5  UNL     1       6.726   0.300  12.664  1.00  0.00    -0.348 N 
HETATM   36  C22 UNL     1       7.356   1.226  13.576  1.00  0.00     0.152 C 
HETATM   37  C25 UNL     1       7.543  -0.341  11.660  1.00  0.00     0.152 C 
HETATM   38  C23 UNL     1       8.253   2.165  12.826  1.00  0.00     0.187 C 
HETATM   39  O4  UNL     1       8.985   1.578  11.826  1.00  0.00    -0.388 OA
HETATM   40  C24 UNL     1       8.966   0.204  11.819  1.00  0.00     0.187 C 
ENDBRANCH  32  33
ENDBRANCH  31  32
ENDBRANCH  30  31
ENDBRANCH  29  30
ENDBRANCH  13  29
TORSDOF 11
ENDMDL
