MODEL 1
REMARK VINA RESULT: -9.100230884      0.000      0.000
REMARK  11 active torsions:
REMARK  status: ('A' for Active; 'I' for Inactive)
REMARK    1  A    between atoms: C6_7  and  C7_8 
REMARK    2  A    between atoms: C7_8  and  N2_9 
REMARK    3  A    between atoms: N2_9  and  C8_10 
REMARK       I    between atoms: N2_9  and  C12_19 
REMARK    4  A    between atoms: C8_10  and  C9_11 
REMARK    5  A    between atoms: C12_19  and  C13_21 
REMARK    6  A    between atoms: C13_21  and  C14_22 
REMARK    7  A    between atoms: C14_22  and  N5_25 
REMARK       I    between atoms: N5_25  and  C17_27 
REMARK    8  A    between atoms: C17_27  and  C18_29 
REMARK    9  A    between atoms: C18_29  and  N6_30 
REMARK   10  A    between atoms: C18_29  and  C19_34 
REMARK   11  A    between atoms: C19_34  and  C20_35 
ROOT
HETATM    1  C13 UNL     1      14.874 -15.670  20.064  1.00  0.00     0.133 C 
ENDROOT
BRANCH   1   2
HETATM    2  C12 UNL     1      14.013 -14.519  19.787  1.00  0.00     0.226 C 
HETATM    3  N2  UNL     1      14.413 -13.168  20.144  1.00  0.00    -0.320 N 
HETATM    4  O2  UNL     1      12.904 -14.653  19.236  1.00  0.00    -0.273 OA
BRANCH   3   5
HETATM    5  C7  UNL     1      15.634 -12.886  20.765  1.00  0.00     0.123 C 
BRANCH   5   6
HETATM    6  C6  UNL     1      16.933 -12.947  20.155  1.00  0.00     0.049 A 
HETATM    7  N1  UNL     1      17.301 -12.774  18.887  1.00  0.00    -0.360 N 
HETATM    8  C1  UNL     1      16.388 -12.457  17.820  1.00  0.00     0.155 C 
HETATM    9  C2  UNL     1      18.616 -12.877  18.504  1.00  0.00     0.090 A 
HETATM   10  C3  UNL     1      19.627 -13.158  19.379  1.00  0.00     0.017 A 
HETATM   11  C4  UNL     1      19.293 -13.342  20.694  1.00  0.00     0.004 A 
HETATM   12  C5  UNL     1      17.996 -13.237  21.048  1.00  0.00     0.031 A 
ENDBRANCH   5   6
ENDBRANCH   3   5
BRANCH   3  13
HETATM   13  C8  UNL     1      13.428 -12.094  19.906  1.00  0.00     0.189 C 
BRANCH  13  14
HETATM   14  C9  UNL     1      12.948 -11.603  21.252  1.00  0.00     0.047 A 
HETATM   15  C10 UNL     1      12.104 -12.236  22.125  1.00  0.00     0.119 A 
HETATM   16  N3  UNL     1      11.950 -11.445  23.187  1.00  0.00    -0.317 N 
HETATM   17  C11 UNL     1      12.684 -10.342  22.979  1.00  0.00     0.324 A 
ATOM     18  H3  UNL     1      11.379 -11.643  24.008  1.00  0.00     0.170 HD
HETATM   19  O1  UNL     1      12.750  -9.384  23.817  1.00  0.00    -0.247 OA
HETATM   20  N4  UNL     1      13.296 -10.438  21.793  1.00  0.00    -0.309 N 
ATOM     21  H4  UNL     1      13.917  -9.743  21.378  1.00  0.00     0.170 HD
ENDBRANCH  13  14
ENDBRANCH   3  13
ENDBRANCH   1   2
BRANCH   1  22
HETATM   22  C14 UNL     1      14.584 -16.312  21.397  1.00  0.00     0.034 C 
HETATM   23  C15 UNL     1      13.308 -15.719  21.997  1.00  0.00     0.038 C 
HETATM   24  C16 UNL     1      14.313 -17.775  21.146  1.00  0.00     0.038 C 
BRANCH  22  25
HETATM   25  N5  UNL     1      15.694 -16.184  22.329  1.00  0.00    -0.350 N 
HETATM   26  C17 UNL     1      16.985 -16.651  22.029  1.00  0.00     0.249 C 
HETATM   27  O3  UNL     1      17.213 -17.197  20.935  1.00  0.00    -0.271 OA
ATOM     28  H5  UNL     1      15.530 -15.739  23.232  1.00  0.00     0.163 HD
BRANCH  26  29
HETATM   29  C18 UNL     1      18.077 -16.500  23.002  1.00  0.00     0.278 C 
BRANCH  29  30
HETATM   30  N6  UNL     1      19.381 -16.655  22.449  1.00  0.00    -0.066 N 
ATOM     31  H63 UNL     1      19.592 -17.642  22.305  1.00  0.00     0.275 HD
ATOM     32  H62 UNL     1      19.399 -16.330  21.483  1.00  0.00     0.275 HD
ATOM     33  H61 UNL     1      20.122 -16.207  22.988  1.00  0.00     0.275 HD
ENDBRANCH  29  30
BRANCH  29  34
HETATM   34  C19 UNL     1      17.899 -15.166  23.711  1.00  0.00     0.081 C 
BRANCH  34  35
HETATM   35  C20 UNL     1      18.829 -15.067  24.876  1.00  0.00    -0.056 A 
HETATM   36  C21 UNL     1      19.760 -14.060  24.940  1.00  0.00     0.010 A 
HETATM   37  C22 UNL     1      20.596 -13.992  26.013  1.00  0.00     0.043 A 
HETATM   38  C23 UNL     1      20.551 -14.897  27.048  1.00  0.00     0.116 A 
HETATM   39  F1  UNL     1      21.422 -14.763  28.089  1.00  0.00    -0.206 F 
HETATM   40  C24 UNL     1      19.620 -15.916  26.998  1.00  0.00     0.043 A 
HETATM   41  C25 UNL     1      18.782 -15.976  25.912  1.00  0.00     0.010 A 
ENDBRANCH  34  35
ENDBRANCH  29  34
ENDBRANCH  26  29
ENDBRANCH  22  25
ENDBRANCH   1  22
TORSDOF 11
ENDMDL
MODEL 2
REMARK VINA RESULT: -9.074531401      0.777      1.210
REMARK  11 active torsions:
REMARK  status: ('A' for Active; 'I' for Inactive)
REMARK    1  A    between atoms: C6_7  and  C7_8 
REMARK    2  A    between atoms: C7_8  and  N2_9 
REMARK    3  A    between atoms: N2_9  and  C8_10 
REMARK       I    between atoms: N2_9  and  C12_19 
REMARK    4  A    between atoms: C8_10  and  C9_11 
REMARK    5  A    between atoms: C12_19  and  C13_21 
REMARK    6  A    between atoms: C13_21  and  C14_22 
REMARK    7  A    between atoms: C14_22  and  N5_25 
REMARK       I    between atoms: N5_25  and  C17_27 
REMARK    8  A    between atoms: C17_27  and  C18_29 
REMARK    9  A    between atoms: C18_29  and  N6_30 
REMARK   10  A    between atoms: C18_29  and  C19_34 
REMARK   11  A    between atoms: C19_34  and  C20_35 
ROOT
HETATM    1  C13 UNL     1      14.683 -15.456  20.188  1.00  0.00     0.133 C 
ENDROOT
BRANCH   1   2
HETATM    2  C12 UNL     1      13.860 -14.259  20.005  1.00  0.00     0.226 C 
HETATM    3  N2  UNL     1      14.333 -12.943  20.400  1.00  0.00    -0.320 N 
HETATM    4  O2  UNL     1      12.720 -14.324  19.505  1.00  0.00    -0.273 OA
BRANCH   3   5
HETATM    5  C7  UNL     1      15.594 -12.739  20.971  1.00  0.00     0.123 C 
BRANCH   5   6
HETATM    6  C6  UNL     1      16.860 -12.853  20.301  1.00  0.00     0.049 A 
HETATM    7  N1  UNL     1      17.165 -12.755  19.009  1.00  0.00    -0.360 N 
HETATM    8  C1  UNL     1      16.204 -12.483  17.973  1.00  0.00     0.155 C 
HETATM    9  C2  UNL     1      18.458 -12.899  18.568  1.00  0.00     0.090 A 
HETATM   10  C3  UNL     1      19.509 -13.146  19.406  1.00  0.00     0.017 A 
HETATM   11  C4  UNL     1      19.239 -13.253  20.744  1.00  0.00     0.004 A 
HETATM   12  C5  UNL     1      17.963 -13.109  21.155  1.00  0.00     0.031 A 
ENDBRANCH   5   6
ENDBRANCH   3   5
BRANCH   3  13
HETATM   13  C8  UNL     1      13.385 -11.821  20.259  1.00  0.00     0.189 C 
BRANCH  13  14
HETATM   14  C9  UNL     1      12.758 -11.574  21.612  1.00  0.00     0.047 A 
HETATM   15  C10 UNL     1      12.985 -10.528  22.464  1.00  0.00     0.119 A 
HETATM   16  N3  UNL     1      12.222 -10.710  23.543  1.00  0.00    -0.317 N 
HETATM   17  C11 UNL     1      11.536 -11.848  23.364  1.00  0.00     0.324 A 
ATOM     18  H3  UNL     1      12.171 -10.096  24.355  1.00  0.00     0.170 HD
HETATM   19  O1  UNL     1      10.713 -12.303  24.224  1.00  0.00    -0.247 OA
HETATM   20  N4  UNL     1      11.864 -12.379  22.181  1.00  0.00    -0.309 N 
ATOM     21  H4  UNL     1      11.495 -13.245  21.786  1.00  0.00     0.170 HD
ENDBRANCH  13  14
ENDBRANCH   3  13
ENDBRANCH   1   2
BRANCH   1  22
HETATM   22  C14 UNL     1      14.406 -16.165  21.490  1.00  0.00     0.034 C 
HETATM   23  C15 UNL     1      13.148 -15.590  22.141  1.00  0.00     0.038 C 
HETATM   24  C16 UNL     1      14.113 -17.609  21.164  1.00  0.00     0.038 C 
BRANCH  22  25
HETATM   25  N5  UNL     1      15.533 -16.101  22.409  1.00  0.00    -0.350 N 
HETATM   26  C17 UNL     1      16.829 -16.495  22.037  1.00  0.00     0.249 C 
HETATM   27  O3  UNL     1      17.048 -16.917  20.887  1.00  0.00    -0.271 OA
ATOM     28  H5  UNL     1      15.375 -15.757  23.356  1.00  0.00     0.163 HD
BRANCH  26  29
HETATM   29  C18 UNL     1      17.938 -16.413  22.999  1.00  0.00     0.278 C 
BRANCH  29  30
HETATM   30  N6  UNL     1      19.227 -16.616  22.429  1.00  0.00    -0.066 N 
ATOM     31  H63 UNL     1      19.190 -17.347  21.718  1.00  0.00     0.275 HD
ATOM     32  H62 UNL     1      19.488 -15.820  21.847  1.00  0.00     0.275 HD
ATOM     33  H61 UNL     1      19.960 -16.816  23.108  1.00  0.00     0.275 HD
ENDBRANCH  29  30
BRANCH  29  34
HETATM   34  C19 UNL     1      17.828 -15.086  23.736  1.00  0.00     0.081 C 
BRANCH  34  35
HETATM   35  C20 UNL     1      18.798 -15.040  24.872  1.00  0.00    -0.056 A 
HETATM   36  C21 UNL     1      18.721 -15.957  25.891  1.00  0.00     0.010 A 
HETATM   37  C22 UNL     1      19.617 -15.893  26.914  1.00  0.00     0.043 A 
HETATM   38  C23 UNL     1      20.607 -14.941  26.976  1.00  0.00     0.116 A 
HETATM   39  F1  UNL     1      21.467 -14.941  28.034  1.00  0.00    -0.206 F 
HETATM   40  C24 UNL     1      20.697 -14.011  25.958  1.00  0.00     0.043 A 
HETATM   41  C25 UNL     1      19.790 -14.084  24.931  1.00  0.00     0.010 A 
ENDBRANCH  34  35
ENDBRANCH  29  34
ENDBRANCH  26  29
ENDBRANCH  22  25
ENDBRANCH   1  22
TORSDOF 11
ENDMDL
MODEL 3
REMARK VINA RESULT: -8.831880086      1.778      3.818
REMARK  11 active torsions:
REMARK  status: ('A' for Active; 'I' for Inactive)
REMARK    1  A    between atoms: C6_7  and  C7_8 
REMARK    2  A    between atoms: C7_8  and  N2_9 
REMARK    3  A    between atoms: N2_9  and  C8_10 
REMARK       I    between atoms: N2_9  and  C12_19 
REMARK    4  A    between atoms: C8_10  and  C9_11 
REMARK    5  A    between atoms: C12_19  and  C13_21 
REMARK    6  A    between atoms: C13_21  and  C14_22 
REMARK    7  A    between atoms: C14_22  and  N5_25 
REMARK       I    between atoms: N5_25  and  C17_27 
REMARK    8  A    between atoms: C17_27  and  C18_29 
REMARK    9  A    between atoms: C18_29  and  N6_30 
REMARK   10  A    between atoms: C18_29  and  C19_34 
REMARK   11  A    between atoms: C19_34  and  C20_35 
ROOT
HETATM    1  C13 UNL     1      17.442 -13.729  19.559  1.00  0.00     0.133 C 
ENDROOT
BRANCH   1   2
HETATM    2  C12 UNL     1      16.273 -12.868  19.370  1.00  0.00     0.226 C 
HETATM    3  N2  UNL     1      14.937 -13.311  19.733  1.00  0.00    -0.320 N 
HETATM    4  O2  UNL     1      16.378 -11.724  18.889  1.00  0.00    -0.273 OA
BRANCH   3   5
HETATM    5  C7  UNL     1      14.688 -14.572  20.283  1.00  0.00     0.123 C 
BRANCH   5   6
HETATM    6  C6  UNL     1      13.966 -15.646  19.658  1.00  0.00     0.049 A 
HETATM    7  N1  UNL     1      12.963 -16.393  20.115  1.00  0.00    -0.360 N 
HETATM    8  C1  UNL     1      12.369 -16.235  21.417  1.00  0.00     0.155 C 
HETATM    9  C2  UNL     1      12.404 -17.385  19.348  1.00  0.00     0.090 A 
HETATM   10  C3  UNL     1      12.825 -17.674  18.080  1.00  0.00     0.017 A 
HETATM   11  C4  UNL     1      13.855 -16.929  17.571  1.00  0.00     0.004 A 
HETATM   12  C5  UNL     1      14.389 -15.960  18.342  1.00  0.00     0.031 A 
ENDBRANCH   5   6
ENDBRANCH   3   5
BRANCH   3  13
HETATM   13  C8  UNL     1      13.820 -12.400  19.411  1.00  0.00     0.189 C 
BRANCH  13  14
HETATM   14  C9  UNL     1      13.277 -11.860  20.713  1.00  0.00     0.047 A 
HETATM   15  C10 UNL     1      12.325 -12.418  21.523  1.00  0.00     0.119 A 
HETATM   16  N3  UNL     1      12.151 -11.605  22.566  1.00  0.00    -0.317 N 
HETATM   17  C11 UNL     1      12.978 -10.562  22.407  1.00  0.00     0.324 A 
ATOM     18  H3  UNL     1      11.506 -11.751  23.342  1.00  0.00     0.170 HD
HETATM   19  O1  UNL     1      13.051  -9.601  23.241  1.00  0.00    -0.247 OA
HETATM   20  N4  UNL     1      13.669 -10.716  21.271  1.00  0.00    -0.309 N 
ATOM     21  H4  UNL     1      14.370 -10.074  20.900  1.00  0.00     0.170 HD
ENDBRANCH  13  14
ENDBRANCH   3  13
ENDBRANCH   1   2
BRANCH   1  22
HETATM   22  C14 UNL     1      18.283 -13.324  20.744  1.00  0.00     0.034 C 
HETATM   23  C15 UNL     1      19.716 -13.036  20.295  1.00  0.00     0.038 C 
HETATM   24  C16 UNL     1      17.719 -12.029  21.277  1.00  0.00     0.038 C 
BRANCH  22  25
HETATM   25  N5  UNL     1      18.270 -14.324  21.802  1.00  0.00    -0.350 N 
HETATM   26  C17 UNL     1      18.939 -15.553  21.683  1.00  0.00     0.249 C 
HETATM   27  O3  UNL     1      19.574 -15.821  20.646  1.00  0.00    -0.271 OA
ATOM     28  H5  UNL     1      17.756 -14.124  22.660  1.00  0.00     0.163 HD
BRANCH  26  29
HETATM   29  C18 UNL     1      18.899 -16.533  22.777  1.00  0.00     0.278 C 
BRANCH  29  30
HETATM   30  N6  UNL     1      18.377 -17.806  22.407  1.00  0.00    -0.066 N 
ATOM     31  H63 UNL     1      18.187 -17.835  21.405  1.00  0.00     0.275 HD
ATOM     32  H62 UNL     1      19.102 -18.519  22.468  1.00  0.00     0.275 HD
ATOM     33  H61 UNL     1      17.552 -18.092  22.934  1.00  0.00     0.275 HD
ENDBRANCH  29  30
BRANCH  29  34
HETATM   34  C19 UNL     1      20.292 -16.628  23.381  1.00  0.00     0.081 C 
BRANCH  34  35
HETATM   35  C20 UNL     1      20.375 -15.812  24.629  1.00  0.00    -0.056 A 
HETATM   36  C21 UNL     1      20.871 -14.531  24.593  1.00  0.00     0.010 A 
HETATM   37  C22 UNL     1      20.935 -13.809  25.746  1.00  0.00     0.043 A 
HETATM   38  C23 UNL     1      20.522 -14.307  26.959  1.00  0.00     0.116 A 
HETATM   39  F1  UNL     1      20.619 -13.522  28.070  1.00  0.00    -0.206 F 
HETATM   40  C24 UNL     1      20.021 -15.593  27.011  1.00  0.00     0.043 A 
HETATM   41  C25 UNL     1      19.960 -16.314  25.845  1.00  0.00     0.010 A 
ENDBRANCH  34  35
ENDBRANCH  29  34
ENDBRANCH  26  29
ENDBRANCH  22  25
ENDBRANCH   1  22
TORSDOF 11
ENDMDL
MODEL 4
REMARK VINA RESULT: -8.732575818      1.379      1.629
REMARK  11 active torsions:
REMARK  status: ('A' for Active; 'I' for Inactive)
REMARK    1  A    between atoms: C6_7  and  C7_8 
REMARK    2  A    between atoms: C7_8  and  N2_9 
REMARK    3  A    between atoms: N2_9  and  C8_10 
REMARK       I    between atoms: N2_9  and  C12_19 
REMARK    4  A    between atoms: C8_10  and  C9_11 
REMARK    5  A    between atoms: C12_19  and  C13_21 
REMARK    6  A    between atoms: C13_21  and  C14_22 
REMARK    7  A    between atoms: C14_22  and  N5_25 
REMARK       I    between atoms: N5_25  and  C17_27 
REMARK    8  A    between atoms: C17_27  and  C18_29 
REMARK    9  A    between atoms: C18_29  and  N6_30 
REMARK   10  A    between atoms: C18_29  and  C19_34 
REMARK   11  A    between atoms: C19_34  and  C20_35 
ROOT
HETATM    1  C13 UNL     1      15.305 -15.621  22.192  1.00  0.00     0.133 C 
ENDROOT
BRANCH   1   2
HETATM    2  C12 UNL     1      14.261 -14.861  21.502  1.00  0.00     0.226 C 
HETATM    3  N2  UNL     1      14.459 -13.472  21.119  1.00  0.00    -0.320 N 
HETATM    4  O2  UNL     1      13.162 -15.374  21.217  1.00  0.00    -0.273 OA
BRANCH   3   5
HETATM    5  C7  UNL     1      15.648 -12.784  21.381  1.00  0.00     0.123 C 
BRANCH   5   6
HETATM    6  C6  UNL     1      16.889 -12.927  20.670  1.00  0.00     0.049 A 
HETATM    7  N1  UNL     1      17.156 -12.826  19.370  1.00  0.00    -0.360 N 
HETATM    8  C1  UNL     1      16.171 -12.515  18.367  1.00  0.00     0.155 C 
HETATM    9  C2  UNL     1      18.429 -13.002  18.885  1.00  0.00     0.090 A 
HETATM   10  C3  UNL     1      19.498 -13.289  19.687  1.00  0.00     0.017 A 
HETATM   11  C4  UNL     1      19.268 -13.402  21.032  1.00  0.00     0.004 A 
HETATM   12  C5  UNL     1      18.010 -13.225  21.485  1.00  0.00     0.031 A 
ENDBRANCH   5   6
ENDBRANCH   3   5
BRANCH   3  13
HETATM   13  C8  UNL     1      13.307 -12.774  20.515  1.00  0.00     0.189 C 
BRANCH  13  14
HETATM   14  C9  UNL     1      12.586 -12.036  21.618  1.00  0.00     0.047 A 
HETATM   15  C10 UNL     1      12.569 -10.687  21.854  1.00  0.00     0.119 A 
HETATM   16  N3  UNL     1      11.809 -10.473  22.929  1.00  0.00    -0.317 N 
HETATM   17  C11 UNL     1      11.363 -11.665  23.352  1.00  0.00     0.324 A 
ATOM     18  H3  UNL     1      11.604  -9.568  23.352  1.00  0.00     0.170 HD
HETATM   19  O1  UNL     1      10.606 -11.801  24.368  1.00  0.00    -0.247 OA
HETATM   20  N4  UNL     1      11.839 -12.624  22.549  1.00  0.00    -0.309 N 
ATOM     21  H4  UNL     1      11.661 -13.625  22.635  1.00  0.00     0.170 HD
ENDBRANCH  13  14
ENDBRANCH   3  13
ENDBRANCH   1   2
BRANCH   1  22
HETATM   22  C14 UNL     1      15.908 -16.702  21.331  1.00  0.00     0.034 C 
HETATM   23  C15 UNL     1      15.074 -17.980  21.435  1.00  0.00     0.038 C 
HETATM   24  C16 UNL     1      15.827 -16.238  19.898  1.00  0.00     0.038 C 
BRANCH  22  25
HETATM   25  N5  UNL     1      17.298 -16.971  21.669  1.00  0.00    -0.350 N 
HETATM   26  C17 UNL     1      17.693 -17.385  22.953  1.00  0.00     0.249 C 
HETATM   27  O3  UNL     1      16.843 -17.537  23.849  1.00  0.00    -0.271 OA
ATOM     28  H5  UNL     1      18.011 -16.854  20.950  1.00  0.00     0.163 HD
BRANCH  26  29
HETATM   29  C18 UNL     1      19.109 -17.645  23.249  1.00  0.00     0.278 C 
BRANCH  29  30
HETATM   30  N6  UNL     1      19.674 -18.726  22.514  1.00  0.00    -0.066 N 
ATOM     31  H63 UNL     1      20.012 -19.450  23.148  1.00  0.00     0.275 HD
ATOM     32  H62 UNL     1      18.944 -19.247  22.029  1.00  0.00     0.275 HD
ATOM     33  H61 UNL     1      20.409 -18.452  21.862  1.00  0.00     0.275 HD
ENDBRANCH  29  30
BRANCH  29  34
HETATM   34  C19 UNL     1      19.878 -16.346  23.061  1.00  0.00     0.081 C 
BRANCH  34  35
HETATM   35  C20 UNL     1      20.077 -15.664  24.375  1.00  0.00    -0.056 A 
HETATM   36  C21 UNL     1      20.327 -14.314  24.429  1.00  0.00     0.010 A 
HETATM   37  C22 UNL     1      20.503 -13.716  25.639  1.00  0.00     0.043 A 
HETATM   38  C23 UNL     1      20.443 -14.409  26.825  1.00  0.00     0.116 A 
HETATM   39  F1  UNL     1      20.631 -13.739  27.999  1.00  0.00    -0.206 F 
HETATM   40  C24 UNL     1      20.192 -15.766  26.788  1.00  0.00     0.043 A 
HETATM   41  C25 UNL     1      20.016 -16.361  25.563  1.00  0.00     0.010 A 
ENDBRANCH  34  35
ENDBRANCH  29  34
ENDBRANCH  26  29
ENDBRANCH  22  25
ENDBRANCH   1  22
TORSDOF 11
ENDMDL
MODEL 5
REMARK VINA RESULT: -8.711016111      1.557      3.835
REMARK  11 active torsions:
REMARK  status: ('A' for Active; 'I' for Inactive)
REMARK    1  A    between atoms: C6_7  and  C7_8 
REMARK    2  A    between atoms: C7_8  and  N2_9 
REMARK    3  A    between atoms: N2_9  and  C8_10 
REMARK       I    between atoms: N2_9  and  C12_19 
REMARK    4  A    between atoms: C8_10  and  C9_11 
REMARK    5  A    between atoms: C12_19  and  C13_21 
REMARK    6  A    between atoms: C13_21  and  C14_22 
REMARK    7  A    between atoms: C14_22  and  N5_25 
REMARK       I    between atoms: N5_25  and  C17_27 
REMARK    8  A    between atoms: C17_27  and  C18_29 
REMARK    9  A    between atoms: C18_29  and  N6_30 
REMARK   10  A    between atoms: C18_29  and  C19_34 
REMARK   11  A    between atoms: C19_34  and  C20_35 
ROOT
HETATM    1  C13 UNL     1      16.881 -14.042  19.874  1.00  0.00     0.133 C 
ENDROOT
BRANCH   1   2
HETATM    2  C12 UNL     1      15.893 -12.982  19.660  1.00  0.00     0.226 C 
HETATM    3  N2  UNL     1      14.580 -13.031  20.280  1.00  0.00    -0.320 N 
HETATM    4  O2  UNL     1      16.140 -11.999  18.935  1.00  0.00    -0.273 OA
BRANCH   3   5
HETATM    5  C7  UNL     1      14.183 -14.081  21.115  1.00  0.00     0.123 C 
BRANCH   5   6
HETATM    6  C6  UNL     1      13.646 -15.346  20.695  1.00  0.00     0.049 A 
HETATM    7  N1  UNL     1      14.072 -16.585  20.930  1.00  0.00    -0.360 N 
HETATM    8  C1  UNL     1      15.232 -16.902  21.721  1.00  0.00     0.155 C 
HETATM    9  C2  UNL     1      13.406 -17.677  20.429  1.00  0.00     0.090 A 
HETATM   10  C3  UNL     1      12.275 -17.575  19.668  1.00  0.00     0.017 A 
HETATM   11  C4  UNL     1      11.802 -16.318  19.402  1.00  0.00     0.004 A 
HETATM   12  C5  UNL     1      12.472 -15.261  19.904  1.00  0.00     0.031 A 
ENDBRANCH   5   6
ENDBRANCH   3   5
BRANCH   3  13
HETATM   13  C8  UNL     1      13.629 -11.960  19.920  1.00  0.00     0.189 C 
BRANCH  13  14
HETATM   14  C9  UNL     1      13.068 -11.392  21.202  1.00  0.00     0.047 A 
HETATM   15  C10 UNL     1      11.995 -11.845  21.923  1.00  0.00     0.119 A 
HETATM   16  N3  UNL     1      11.852 -11.047  22.982  1.00  0.00    -0.317 N 
HETATM   17  C11 UNL     1      12.816 -10.118  22.920  1.00  0.00     0.324 A 
ATOM     18  H3  UNL     1      11.139 -11.130  23.706  1.00  0.00     0.170 HD
HETATM   19  O1  UNL     1      12.952  -9.200  23.795  1.00  0.00    -0.247 OA
HETATM   20  N4  UNL     1      13.562 -10.327  21.830  1.00  0.00    -0.309 N 
ATOM     21  H4  UNL     1      14.365  -9.772  21.533  1.00  0.00     0.170 HD
ENDBRANCH  13  14
ENDBRANCH   3  13
ENDBRANCH   1   2
BRANCH   1  22
HETATM   22  C14 UNL     1      17.971 -13.640  20.836  1.00  0.00     0.034 C 
HETATM   23  C15 UNL     1      19.292 -13.466  20.086  1.00  0.00     0.038 C 
HETATM   24  C16 UNL     1      17.602 -12.290  21.399  1.00  0.00     0.038 C 
BRANCH  22  25
HETATM   25  N5  UNL     1      18.125 -14.590  21.929  1.00  0.00    -0.350 N 
HETATM   26  C17 UNL     1      18.870 -15.774  21.796  1.00  0.00     0.249 C 
HETATM   27  O3  UNL     1      19.427 -16.044  20.716  1.00  0.00    -0.271 OA
ATOM     28  H5  UNL     1      17.677 -14.388  22.822  1.00  0.00     0.163 HD
BRANCH  26  29
HETATM   29  C18 UNL     1      18.998 -16.704  22.927  1.00  0.00     0.278 C 
BRANCH  29  30
HETATM   30  N6  UNL     1      18.604 -18.041  22.635  1.00  0.00    -0.066 N 
ATOM     31  H63 UNL     1      17.720 -18.260  23.093  1.00  0.00     0.275 HD
ATOM     32  H62 UNL     1      18.320 -18.124  21.660  1.00  0.00     0.275 HD
ATOM     33  H61 UNL     1      19.306 -18.746  22.861  1.00  0.00     0.275 HD
ENDBRANCH  29  30
BRANCH  29  34
HETATM   34  C19 UNL     1      20.424 -16.618  23.451  1.00  0.00     0.081 C 
BRANCH  34  35
HETATM   35  C20 UNL     1      20.472 -15.787  24.692  1.00  0.00    -0.056 A 
HETATM   36  C21 UNL     1      20.182 -16.342  25.914  1.00  0.00     0.010 A 
HETATM   37  C22 UNL     1      20.234 -15.563  27.030  1.00  0.00     0.043 A 
HETATM   38  C23 UNL     1      20.567 -14.230  26.989  1.00  0.00     0.116 A 
HETATM   39  F1  UNL     1      20.597 -13.514  28.150  1.00  0.00    -0.206 F 
HETATM   40  C24 UNL     1      20.861 -13.656  25.768  1.00  0.00     0.043 A 
HETATM   41  C25 UNL     1      20.806 -14.450  24.648  1.00  0.00     0.010 A 
ENDBRANCH  34  35
ENDBRANCH  29  34
ENDBRANCH  26  29
ENDBRANCH  22  25
ENDBRANCH   1  22
TORSDOF 11
ENDMDL
