MODEL 1
REMARK VINA RESULT: -8.712496441      0.000      0.000
REMARK  10 active torsions:
REMARK  status: ('A' for Active; 'I' for Inactive)
REMARK    1  A    between atoms: N1_1  and  C1_5 
REMARK    2  A    between atoms: C2_8  and  C3_9 
REMARK    3  A    between atoms: C3_9  and  C4_10 
REMARK    4  A    between atoms: C12_18  and  C13_19 
REMARK    5  A    between atoms: C13_19  and  C14_20 
REMARK    6  A    between atoms: C14_20  and  C15_21 
REMARK    7  A    between atoms: C15_21  and  C16_22 
REMARK    8  A    between atoms: C16_22  and  C17_23 
REMARK    9  A    between atoms: C17_23  and  C18_24 
REMARK   10  A    between atoms: C18_24  and  N3_25 
ROOT
HETATM    1  C1  UNL     1      20.480 -17.996  22.390  1.00  0.00     0.387 A 
HETATM    2  N2  UNL     1      20.269 -16.701  22.947  1.00  0.00    -0.349 N 
ATOM      3  H2  UNL     1      20.988 -16.277  23.533  1.00  0.00     0.163 HD
HETATM    4  C2  UNL     1      19.056 -15.999  22.689  1.00  0.00     0.024 A 
HETATM    5  C10 UNL     1      18.077 -16.527  21.924  1.00  0.00     0.014 A 
HETATM    6  C11 UNL     1      16.913 -15.839  21.683  1.00  0.00     0.024 A 
HETATM    7  C12 UNL     1      15.934 -16.410  20.895  1.00  0.00    -0.035 A 
HETATM    8  C24 UNL     1      16.139 -17.657  20.363  1.00  0.00     0.042 A 
HETATM    9 CL1  UNL     1      14.904 -18.412  19.350  1.00  0.00    -0.084 Cl
HETATM   10  C25 UNL     1      17.292 -18.353  20.594  1.00  0.00     0.054 A 
HETATM   11  C26 UNL     1      18.304 -17.793  21.393  1.00  0.00     0.044 A 
HETATM   12  N7  UNL     1      19.374 -18.443  21.603  1.00  0.00    -0.346 N 
ATOM     13  H7  UNL     1      19.451 -19.365  21.173  1.00  0.00     0.163 HD
ENDROOT
BRANCH   7  14
HETATM   14  C13 UNL     1      14.688 -15.656  20.658  1.00  0.00     0.040 C 
BRANCH  14  15
HETATM   15  C14 UNL     1      13.667 -15.877  21.752  1.00  0.00     0.005 C 
BRANCH  15  16
HETATM   16  C15 UNL     1      12.549 -14.874  21.578  1.00  0.00     0.000 C 
BRANCH  16  17
HETATM   17  C16 UNL     1      12.808 -13.621  22.385  1.00  0.00     0.002 C 
BRANCH  17  18
HETATM   18  C17 UNL     1      12.653 -12.383  21.552  1.00  0.00     0.022 C 
BRANCH  18  19
HETATM   19  C18 UNL     1      13.934 -11.589  21.455  1.00  0.00     0.151 C 
BRANCH  19  20
HETATM   20  N3  UNL     1      14.631 -12.073  20.275  1.00  0.00    -0.275 N 
HETATM   21  N4  UNL     1      13.945 -12.310  19.173  1.00  0.00    -0.308 N 
HETATM   22  C19 UNL     1      14.502 -12.759  18.028  1.00  0.00     0.110 A 
ATOM     23  H4  UNL     1      12.938 -12.145  19.187  1.00  0.00     0.186 HD
HETATM   24  C20 UNL     1      15.858 -13.001  17.946  1.00  0.00     0.052 A 
HETATM   25  C21 UNL     1      16.588 -12.757  19.093  1.00  0.00     0.080 A 
HETATM   26  N5  UNL     1      17.908 -12.888  19.347  1.00  0.00    -0.349 N 
HETATM   27  C23 UNL     1      15.950 -12.292  20.247  1.00  0.00     0.150 A 
HETATM   28  C22 UNL     1      18.089 -12.519  20.620  1.00  0.00     0.182 A 
ATOM     29  H5  UNL     1      18.626 -13.207  18.696  1.00  0.00     0.166 HD
HETATM   30  N6  UNL     1      16.912 -12.155  21.175  1.00  0.00    -0.336 N 
ATOM     31  H6  UNL     1      16.777 -11.832  22.134  1.00  0.00     0.168 HD
ENDBRANCH  19  20
ENDBRANCH  18  19
ENDBRANCH  17  18
ENDBRANCH  16  17
ENDBRANCH  15  16
ENDBRANCH  14  15
ENDBRANCH   7  14
BRANCH   4  32
HETATM   32  C3  UNL     1      18.920 -14.668  23.301  1.00  0.00     0.096 C 
BRANCH  32  33
HETATM   33  C4  UNL     1      19.396 -14.804  24.736  1.00  0.00    -0.053 A 
HETATM   34  C5  UNL     1      20.313 -13.892  25.229  1.00  0.00     0.007 A 
HETATM   35  C6  UNL     1      20.775 -13.947  26.509  1.00  0.00     0.001 A 
HETATM   36  C7  UNL     1      20.303 -14.948  27.323  1.00  0.00     0.000 A 
HETATM   37  C8  UNL     1      19.393 -15.871  26.869  1.00  0.00     0.001 A 
HETATM   38  C9  UNL     1      18.948 -15.785  25.570  1.00  0.00     0.007 A 
ENDBRANCH  32  33
ENDBRANCH   4  32
BRANCH   1  39
HETATM   39  N1  UNL     1      20.552 -18.925  23.539  1.00  0.00    -0.041 N 
ATOM     40  H13 UNL     1      20.324 -18.488  24.432  1.00  0.00     0.279 HD
ATOM     41  H12 UNL     1      19.804 -19.620  23.548  1.00  0.00     0.279 HD
ATOM     42  H11 UNL     1      21.486 -19.333  23.511  1.00  0.00     0.279 HD
ENDBRANCH   1  39
TORSDOF 10
ENDMDL
MODEL 2
REMARK VINA RESULT: -8.698223134      3.737      6.823
REMARK  10 active torsions:
REMARK  status: ('A' for Active; 'I' for Inactive)
REMARK    1  A    between atoms: N1_1  and  C1_5 
REMARK    2  A    between atoms: C2_8  and  C3_9 
REMARK    3  A    between atoms: C3_9  and  C4_10 
REMARK    4  A    between atoms: C12_18  and  C13_19 
REMARK    5  A    between atoms: C13_19  and  C14_20 
REMARK    6  A    between atoms: C14_20  and  C15_21 
REMARK    7  A    between atoms: C15_21  and  C16_22 
REMARK    8  A    between atoms: C16_22  and  C17_23 
REMARK    9  A    between atoms: C17_23  and  C18_24 
REMARK   10  A    between atoms: C18_24  and  N3_25 
ROOT
HETATM    1  C1  UNL     1      17.427 -12.774  19.918  1.00  0.00     0.387 A 
HETATM    2  N2  UNL     1      16.413 -12.330  19.022  1.00  0.00    -0.349 N 
ATOM      3  H2  UNL     1      16.411 -11.365  18.694  1.00  0.00     0.163 HD
HETATM    4  C2  UNL     1      15.399 -13.231  18.583  1.00  0.00     0.024 A 
HETATM    5  C10 UNL     1      15.360 -14.516  18.998  1.00  0.00     0.014 A 
HETATM    6  C11 UNL     1      14.379 -15.373  18.568  1.00  0.00     0.024 A 
HETATM    7  C12 UNL     1      14.371 -16.681  19.012  1.00  0.00    -0.035 A 
HETATM    8  C24 UNL     1      15.348 -17.103  19.877  1.00  0.00     0.042 A 
HETATM    9 CL1  UNL     1      15.365 -18.771  20.460  1.00  0.00    -0.084 Cl
HETATM   10  C25 UNL     1      16.332 -16.261  20.313  1.00  0.00     0.054 A 
HETATM   11  C26 UNL     1      16.360 -14.926  19.875  1.00  0.00     0.044 A 
HETATM   12  N7  UNL     1      17.278 -14.148  20.282  1.00  0.00    -0.346 N 
ATOM     13  H7  UNL     1      17.968 -14.538  20.925  1.00  0.00     0.163 HD
ENDROOT
BRANCH   7  14
HETATM   14  C13 UNL     1      13.300 -17.581  18.543  1.00  0.00     0.040 C 
BRANCH  14  15
HETATM   15  C14 UNL     1      12.296 -17.891  19.631  1.00  0.00     0.005 C 
BRANCH  15  16
HETATM   16  C15 UNL     1      11.805 -16.587  20.219  1.00  0.00     0.000 C 
BRANCH  16  17
HETATM   17  C16 UNL     1      12.331 -16.389  21.625  1.00  0.00     0.002 C 
BRANCH  17  18
HETATM   18  C17 UNL     1      12.782 -14.978  21.855  1.00  0.00     0.022 C 
BRANCH  18  19
HETATM   19  C18 UNL     1      11.978 -13.977  21.059  1.00  0.00     0.151 C 
BRANCH  19  20
HETATM   20  N3  UNL     1      12.299 -12.667  21.600  1.00  0.00    -0.275 N 
HETATM   21  N4  UNL     1      13.098 -11.867  20.919  1.00  0.00    -0.308 N 
HETATM   22  C19 UNL     1      13.452 -10.632  21.337  1.00  0.00     0.110 A 
ATOM     23  H4  UNL     1      13.468 -12.200  20.028  1.00  0.00     0.186 HD
HETATM   24  C20 UNL     1      12.984 -10.126  22.532  1.00  0.00     0.052 A 
HETATM   25  C21 UNL     1      12.147 -10.954  23.255  1.00  0.00     0.080 A 
HETATM   26  N5  UNL     1      11.528 -10.770  24.440  1.00  0.00    -0.349 N 
HETATM   27  C23 UNL     1      11.819 -12.222  22.766  1.00  0.00     0.150 A 
HETATM   28  C22 UNL     1      10.836 -11.887  24.687  1.00  0.00     0.182 A 
ATOM     29  H5  UNL     1      11.579  -9.941  25.033  1.00  0.00     0.166 HD
HETATM   30  N6  UNL     1      11.003 -12.774  23.680  1.00  0.00    -0.336 N 
ATOM     31  H6  UNL     1      10.582 -13.702  23.624  1.00  0.00     0.168 HD
ENDBRANCH  19  20
ENDBRANCH  18  19
ENDBRANCH  17  18
ENDBRANCH  16  17
ENDBRANCH  15  16
ENDBRANCH  14  15
ENDBRANCH   7  14
BRANCH   4  32
HETATM   32  C3  UNL     1      14.391 -12.693  17.658  1.00  0.00     0.096 C 
BRANCH  32  33
HETATM   33  C4  UNL     1      15.075 -12.556  16.309  1.00  0.00    -0.053 A 
HETATM   34  C5  UNL     1      15.464 -11.299  15.878  1.00  0.00     0.007 A 
HETATM   35  C6  UNL     1      16.092 -11.104  14.685  1.00  0.00     0.001 A 
HETATM   36  C7  UNL     1      16.339 -12.203  13.898  1.00  0.00     0.000 A 
HETATM   37  C8  UNL     1      15.968 -13.465  14.293  1.00  0.00     0.001 A 
HETATM   38  C9  UNL     1      15.336 -13.625  15.504  1.00  0.00     0.007 A 
ENDBRANCH  32  33
ENDBRANCH   4  32
BRANCH   1  39
HETATM   39  N1  UNL     1      17.229 -12.008  21.168  1.00  0.00    -0.041 N 
ATOM     40  H13 UNL     1      17.592 -12.480  21.997  1.00  0.00     0.279 HD
ATOM     41  H12 UNL     1      17.815 -11.176  21.233  1.00  0.00     0.279 HD
ATOM     42  H11 UNL     1      16.230 -11.808  21.218  1.00  0.00     0.279 HD
ENDBRANCH   1  39
TORSDOF 10
ENDMDL
MODEL 3
REMARK VINA RESULT: -8.646925432      3.791      5.819
REMARK  10 active torsions:
REMARK  status: ('A' for Active; 'I' for Inactive)
REMARK    1  A    between atoms: N1_1  and  C1_5 
REMARK    2  A    between atoms: C2_8  and  C3_9 
REMARK    3  A    between atoms: C3_9  and  C4_10 
REMARK    4  A    between atoms: C12_18  and  C13_19 
REMARK    5  A    between atoms: C13_19  and  C14_20 
REMARK    6  A    between atoms: C14_20  and  C15_21 
REMARK    7  A    between atoms: C15_21  and  C16_22 
REMARK    8  A    between atoms: C16_22  and  C17_23 
REMARK    9  A    between atoms: C17_23  and  C18_24 
REMARK   10  A    between atoms: C18_24  and  N3_25 
ROOT
HETATM    1  C1  UNL     1      15.528 -12.159  16.244  1.00  0.00     0.387 A 
HETATM    2  N2  UNL     1      15.720 -11.883  17.628  1.00  0.00    -0.349 N 
ATOM      3  H2  UNL     1      15.992 -10.946  17.927  1.00  0.00     0.163 HD
HETATM    4  C2  UNL     1      15.533 -12.911  18.597  1.00  0.00     0.024 A 
HETATM    5  C10 UNL     1      15.177 -14.165  18.244  1.00  0.00     0.014 A 
HETATM    6  C11 UNL     1      15.001 -15.147  19.187  1.00  0.00     0.024 A 
HETATM    7  C12 UNL     1      14.636 -16.418  18.790  1.00  0.00    -0.035 A 
HETATM    8  C24 UNL     1      14.456 -16.680  17.456  1.00  0.00     0.042 A 
HETATM    9 CL1  UNL     1      13.988 -18.297  16.919  1.00  0.00    -0.084 Cl
HETATM   10  C25 UNL     1      14.628 -15.713  16.506  1.00  0.00     0.054 A 
HETATM   11  C26 UNL     1      14.999 -14.411  16.886  1.00  0.00     0.044 A 
HETATM   12  N7  UNL     1      15.156 -13.517  15.999  1.00  0.00    -0.346 N 
ATOM     13  H7  UNL     1      15.003 -13.791  15.028  1.00  0.00     0.163 HD
ENDROOT
BRANCH   7  14
HETATM   14  C13 UNL     1      14.461 -17.458  19.822  1.00  0.00     0.040 C 
BRANCH  14  15
HETATM   15  C14 UNL     1      14.989 -17.022  21.170  1.00  0.00     0.005 C 
BRANCH  15  16
HETATM   16  C15 UNL     1      13.884 -17.173  22.192  1.00  0.00     0.000 C 
BRANCH  16  17
HETATM   17  C16 UNL     1      12.673 -16.347  21.815  1.00  0.00     0.002 C 
BRANCH  17  18
HETATM   18  C17 UNL     1      12.918 -14.881  22.015  1.00  0.00     0.022 C 
BRANCH  18  19
HETATM   19  C18 UNL     1      11.919 -14.022  21.277  1.00  0.00     0.151 C 
BRANCH  19  20
HETATM   20  N3  UNL     1      12.120 -12.660  21.745  1.00  0.00    -0.275 N 
HETATM   21  N4  UNL     1      12.739 -11.796  20.963  1.00  0.00    -0.308 N 
HETATM   22  C19 UNL     1      12.971 -10.510  21.308  1.00  0.00     0.110 A 
ATOM     23  H4  UNL     1      13.060 -12.116  20.049  1.00  0.00     0.186 HD
HETATM   24  C20 UNL     1      12.561 -10.018  22.530  1.00  0.00     0.052 A 
HETATM   25  C21 UNL     1      11.911 -10.914  23.357  1.00  0.00     0.080 A 
HETATM   26  N5  UNL     1      11.392 -10.760  24.594  1.00  0.00    -0.349 N 
HETATM   27  C23 UNL     1      11.702 -12.232  22.940  1.00  0.00     0.150 A 
HETATM   28  C22 UNL     1      10.877 -11.944  24.941  1.00  0.00     0.182 A 
ATOM     29  H5  UNL     1      11.394  -9.907  25.155  1.00  0.00     0.166 HD
HETATM   30  N6  UNL     1      11.057 -12.844  23.948  1.00  0.00    -0.336 N 
ATOM     31  H6  UNL     1      10.756 -13.818  23.962  1.00  0.00     0.168 HD
ENDBRANCH  19  20
ENDBRANCH  18  19
ENDBRANCH  17  18
ENDBRANCH  16  17
ENDBRANCH  15  16
ENDBRANCH  14  15
ENDBRANCH   7  14
BRANCH   4  32
HETATM   32  C3  UNL     1      15.749 -12.541  20.004  1.00  0.00     0.096 C 
BRANCH  32  33
HETATM   33  C4  UNL     1      17.137 -13.037  20.370  1.00  0.00    -0.053 A 
HETATM   34  C5  UNL     1      17.319 -13.699  21.572  1.00  0.00     0.007 A 
HETATM   35  C6  UNL     1      18.533 -14.180  21.959  1.00  0.00     0.001 A 
HETATM   36  C7  UNL     1      19.601 -13.991  21.115  1.00  0.00     0.000 A 
HETATM   37  C8  UNL     1      19.459 -13.338  19.914  1.00  0.00     0.001 A 
HETATM   38  C9  UNL     1      18.218 -12.866  19.556  1.00  0.00     0.007 A 
ENDBRANCH  32  33
ENDBRANCH   4  32
BRANCH   1  39
HETATM   39  N1  UNL     1      16.854 -11.990  15.609  1.00  0.00    -0.041 N 
ATOM     40  H13 UNL     1      17.327 -11.126  15.875  1.00  0.00     0.279 HD
ATOM     41  H12 UNL     1      17.561 -12.632  15.966  1.00  0.00     0.279 HD
ATOM     42  H11 UNL     1      16.696 -12.075  14.605  1.00  0.00     0.279 HD
ENDBRANCH   1  39
TORSDOF 10
ENDMDL
MODEL 4
REMARK VINA RESULT: -8.467473840      1.759      6.860
REMARK  10 active torsions:
REMARK  status: ('A' for Active; 'I' for Inactive)
REMARK    1  A    between atoms: N1_1  and  C1_5 
REMARK    2  A    between atoms: C2_8  and  C3_9 
REMARK    3  A    between atoms: C3_9  and  C4_10 
REMARK    4  A    between atoms: C12_18  and  C13_19 
REMARK    5  A    between atoms: C13_19  and  C14_20 
REMARK    6  A    between atoms: C14_20  and  C15_21 
REMARK    7  A    between atoms: C15_21  and  C16_22 
REMARK    8  A    between atoms: C16_22  and  C17_23 
REMARK    9  A    between atoms: C17_23  and  C18_24 
REMARK   10  A    between atoms: C18_24  and  N3_25 
ROOT
HETATM    1  C1  UNL     1      13.399 -11.241  21.762  1.00  0.00     0.387 A 
HETATM    2  N2  UNL     1      14.448 -11.265  20.799  1.00  0.00    -0.349 N 
ATOM      3  H2  UNL     1      14.949 -10.406  20.570  1.00  0.00     0.163 HD
HETATM    4  C2  UNL     1      14.801 -12.486  20.153  1.00  0.00     0.024 A 
HETATM    5  C10 UNL     1      14.161 -13.645  20.423  1.00  0.00     0.014 A 
HETATM    6  C11 UNL     1      14.510 -14.814  19.794  1.00  0.00     0.024 A 
HETATM    7  C12 UNL     1      13.835 -15.979  20.096  1.00  0.00    -0.035 A 
HETATM    8  C24 UNL     1      12.823 -15.951  21.021  1.00  0.00     0.042 A 
HETATM    9 CL1  UNL     1      11.941 -17.427  21.428  1.00  0.00    -0.084 Cl
HETATM   10  C25 UNL     1      12.465 -14.795  21.655  1.00  0.00     0.054 A 
HETATM   11  C26 UNL     1      13.138 -13.595  21.365  1.00  0.00     0.044 A 
HETATM   12  N7  UNL     1      12.801 -12.524  21.958  1.00  0.00    -0.346 N 
ATOM     13  H7  UNL     1      12.039 -12.585  22.633  1.00  0.00     0.163 HD
ENDROOT
BRANCH   7  14
HETATM   14  C13 UNL     1      14.222 -17.222  19.401  1.00  0.00     0.040 C 
BRANCH  14  15
HETATM   15  C14 UNL     1      15.710 -17.483  19.483  1.00  0.00     0.005 C 
BRANCH  15  16
HETATM   16  C15 UNL     1      16.097 -17.609  20.939  1.00  0.00     0.000 C 
BRANCH  16  17
HETATM   17  C16 UNL     1      17.314 -16.766  21.256  1.00  0.00     0.002 C 
BRANCH  17  18
HETATM   18  C17 UNL     1      17.711 -16.885  22.697  1.00  0.00     0.022 C 
BRANCH  18  19
HETATM   19  C18 UNL     1      19.209 -16.892  22.885  1.00  0.00     0.151 C 
BRANCH  19  20
HETATM   20  N3  UNL     1      19.456 -16.444  24.246  1.00  0.00    -0.275 N 
HETATM   21  N4  UNL     1      18.671 -16.872  25.217  1.00  0.00    -0.308 N 
HETATM   22  C19 UNL     1      18.821 -16.515  26.511  1.00  0.00     0.110 A 
ATOM     23  H4  UNL     1      17.909 -17.506  24.977  1.00  0.00     0.186 HD
HETATM   24  C20 UNL     1      19.833 -15.660  26.899  1.00  0.00     0.052 A 
HETATM   25  C21 UNL     1      20.662 -15.206  25.891  1.00  0.00     0.080 A 
HETATM   26  N5  UNL     1      21.726 -14.376  25.928  1.00  0.00    -0.349 N 
HETATM   27  C23 UNL     1      20.453 -15.614  24.571  1.00  0.00     0.150 A 
HETATM   28  C22 UNL     1      22.167 -14.266  24.671  1.00  0.00     0.182 A 
ATOM     29  H5  UNL     1      22.116 -13.921  26.754  1.00  0.00     0.166 HD
HETATM   30  N6  UNL     1      21.405 -15.011  23.839  1.00  0.00    -0.336 N 
ATOM     31  H6  UNL     1      21.532 -15.101  22.831  1.00  0.00     0.168 HD
ENDBRANCH  19  20
ENDBRANCH  18  19
ENDBRANCH  17  18
ENDBRANCH  16  17
ENDBRANCH  15  16
ENDBRANCH  14  15
ENDBRANCH   7  14
BRANCH   4  32
HETATM   32  C3  UNL     1      15.897 -12.425  19.174  1.00  0.00     0.096 C 
BRANCH  32  33
HETATM   33  C4  UNL     1      17.155 -12.853  19.909  1.00  0.00    -0.053 A 
HETATM   34  C5  UNL     1      18.295 -13.140  19.178  1.00  0.00     0.007 A 
HETATM   35  C6  UNL     1      19.460 -13.520  19.772  1.00  0.00     0.001 A 
HETATM   36  C7  UNL     1      19.486 -13.615  21.142  1.00  0.00     0.000 A 
HETATM   37  C8  UNL     1      18.374 -13.337  21.900  1.00  0.00     0.001 A 
HETATM   38  C9  UNL     1      17.214 -12.957  21.267  1.00  0.00     0.007 A 
ENDBRANCH  32  33
ENDBRANCH   4  32
BRANCH   1  39
HETATM   39  N1  UNL     1      12.335 -10.392  21.181  1.00  0.00    -0.041 N 
ATOM     40  H13 UNL     1      12.668  -9.482  20.862  1.00  0.00     0.279 HD
ATOM     41  H12 UNL     1      11.997 -10.724  20.277  1.00  0.00     0.279 HD
ATOM     42  H11 UNL     1      11.606 -10.332  21.892  1.00  0.00     0.279 HD
ENDBRANCH   1  39
TORSDOF 10
ENDMDL
MODEL 5
REMARK VINA RESULT: -8.466055648      2.676      4.367
REMARK  10 active torsions:
REMARK  status: ('A' for Active; 'I' for Inactive)
REMARK    1  A    between atoms: N1_1  and  C1_5 
REMARK    2  A    between atoms: C2_8  and  C3_9 
REMARK    3  A    between atoms: C3_9  and  C4_10 
REMARK    4  A    between atoms: C12_18  and  C13_19 
REMARK    5  A    between atoms: C13_19  and  C14_20 
REMARK    6  A    between atoms: C14_20  and  C15_21 
REMARK    7  A    between atoms: C15_21  and  C16_22 
REMARK    8  A    between atoms: C16_22  and  C17_23 
REMARK    9  A    between atoms: C17_23  and  C18_24 
REMARK   10  A    between atoms: C18_24  and  N3_25 
ROOT
HETATM    1  C1  UNL     1      21.687 -14.783  24.554  1.00  0.00     0.387 A 
HETATM    2  N2  UNL     1      20.639 -15.241  25.403  1.00  0.00    -0.349 N 
ATOM      3  H2  UNL     1      20.857 -15.588  26.337  1.00  0.00     0.163 HD
HETATM    4  C2  UNL     1      19.288 -15.218  24.951  1.00  0.00     0.024 A 
HETATM    5  C10 UNL     1      18.956 -14.771  23.720  1.00  0.00     0.014 A 
HETATM    6  C11 UNL     1      17.651 -14.754  23.297  1.00  0.00     0.024 A 
HETATM    7  C12 UNL     1      17.349 -14.290  22.032  1.00  0.00    -0.035 A 
HETATM    8  C24 UNL     1      18.361 -13.853  21.217  1.00  0.00     0.042 A 
HETATM    9 CL1  UNL     1      18.004 -13.253  19.593  1.00  0.00    -0.084 Cl
HETATM   10  C25 UNL     1      19.665 -13.864  21.624  1.00  0.00     0.054 A 
HETATM   11  C26 UNL     1      19.997 -14.332  22.908  1.00  0.00     0.044 A 
HETATM   12  N7  UNL     1      21.210 -14.339  23.282  1.00  0.00    -0.346 N 
ATOM     13  H7  UNL     1      21.905 -13.997  22.617  1.00  0.00     0.163 HD
ENDROOT
BRANCH   7  14
HETATM   14  C13 UNL     1      15.939 -14.289  21.597  1.00  0.00     0.040 C 
BRANCH  14  15
HETATM   15  C14 UNL     1      15.431 -15.683  21.301  1.00  0.00     0.005 C 
BRANCH  15  16
HETATM   16  C15 UNL     1      14.953 -15.727  19.866  1.00  0.00     0.000 C 
BRANCH  16  17
HETATM   17  C16 UNL     1      13.452 -15.910  19.795  1.00  0.00     0.002 C 
BRANCH  17  18
HETATM   18  C17 UNL     1      12.733 -14.594  19.804  1.00  0.00     0.022 C 
BRANCH  18  19
HETATM   19  C18 UNL     1      11.980 -14.357  21.091  1.00  0.00     0.151 C 
BRANCH  19  20
HETATM   20  N3  UNL     1      12.314 -13.008  21.522  1.00  0.00    -0.275 N 
HETATM   21  N4  UNL     1      13.116 -12.275  20.774  1.00  0.00    -0.308 N 
HETATM   22  C19 UNL     1      13.483 -11.013  21.088  1.00  0.00     0.110 A 
ATOM     23  H4  UNL     1      13.480 -12.682  19.913  1.00  0.00     0.186 HD
HETATM   24  C20 UNL     1      13.024 -10.406  22.239  1.00  0.00     0.052 A 
HETATM   25  C21 UNL     1      12.182 -11.164  23.030  1.00  0.00     0.080 A 
HETATM   26  N5  UNL     1      11.570 -10.878  24.198  1.00  0.00    -0.349 N 
HETATM   27  C23 UNL     1      11.842 -12.465  22.648  1.00  0.00     0.150 A 
HETATM   28  C22 UNL     1      10.869 -11.965  24.538  1.00  0.00     0.182 A 
ATOM     29  H5  UNL     1      11.630 -10.003  24.720  1.00  0.00     0.166 HD
HETATM   30  N6  UNL     1      11.025 -12.933  23.607  1.00  0.00    -0.336 N 
ATOM     31  H6  UNL     1      10.596 -13.859  23.629  1.00  0.00     0.168 HD
ENDBRANCH  19  20
ENDBRANCH  18  19
ENDBRANCH  17  18
ENDBRANCH  16  17
ENDBRANCH  15  16
ENDBRANCH  14  15
ENDBRANCH   7  14
BRANCH   4  32
HETATM   32  C3  UNL     1      18.267 -15.707  25.891  1.00  0.00     0.096 C 
BRANCH  32  33
HETATM   33  C4  UNL     1      18.445 -17.213  25.973  1.00  0.00    -0.053 A 
HETATM   34  C5  UNL     1      18.936 -17.768  27.142  1.00  0.00     0.007 A 
HETATM   35  C6  UNL     1      19.111 -19.111  27.288  1.00  0.00     0.001 A 
HETATM   36  C7  UNL     1      18.784 -19.925  26.231  1.00  0.00     0.000 A 
HETATM   37  C8  UNL     1      18.294 -19.409  25.056  1.00  0.00     0.001 A 
HETATM   38  C9  UNL     1      18.130 -18.048  24.943  1.00  0.00     0.007 A 
ENDBRANCH  32  33
ENDBRANCH   4  32
BRANCH   1  39
HETATM   39  N1  UNL     1      22.528 -15.967  24.271  1.00  0.00    -0.041 N 
ATOM     40  H13 UNL     1      22.034 -16.853  24.381  1.00  0.00     0.279 HD
ATOM     41  H12 UNL     1      22.758 -16.076  23.283  1.00  0.00     0.279 HD
ATOM     42  H11 UNL     1      23.346 -15.879  24.872  1.00  0.00     0.279 HD
ENDBRANCH   1  39
TORSDOF 10
ENDMDL
