MODEL 1
REMARK VINA RESULT: -7.868466021      0.000      0.000
REMARK  10 active torsions:
REMARK  status: ('A' for Active; 'I' for Inactive)
REMARK    1  A    between atoms: C8_9  and  S1_10 
REMARK    2  A    between atoms: S1_10  and  N1_13 
REMARK    3  A    between atoms: N1_13  and  C9_15 
REMARK    4  A    between atoms: C9_15  and  C10_16 
REMARK    5  A    between atoms: C13_19  and  C14_20 
REMARK    6  A    between atoms: C14_20  and  C15_21 
REMARK    7  A    between atoms: C15_21  and  C16_22 
REMARK    8  A    between atoms: C16_22  and  N2_23 
REMARK    9  A    between atoms: N2_23  and  S2_25 
REMARK   10  A    between atoms: S2_25  and  N3_26 
ROOT
HETATM    1  C1  UNL     1      13.732 -16.107  21.313  1.00  0.00     0.018 C 
HETATM    2  C2  UNL     1      13.492 -14.925  21.384  1.00  0.00    -0.076 C 
HETATM    3  C3  UNL     1      13.215 -13.524  21.493  1.00  0.00     0.041 A 
HETATM    4  C4  UNL     1      12.463 -13.079  22.558  1.00  0.00     0.041 A 
HETATM    5  C5  UNL     1      12.189 -11.720  22.670  1.00  0.00     0.012 A 
HETATM    6 BR1  UNL     1      11.152 -11.034  24.124  1.00  0.00    -0.051 Br
HETATM    7  C6  UNL     1      12.677 -10.864  21.714  1.00  0.00     0.020 A 
HETATM    8  C7  UNL     1      13.441 -11.307  20.627  1.00  0.00     0.028 A 
HETATM    9  C8  UNL     1      13.704 -12.637  20.527  1.00  0.00     0.098 A 
ENDROOT
BRANCH   9  10
HETATM   10  S1  UNL     1      14.598 -13.316  19.230  1.00  0.00     0.260 S 
HETATM   11  O1  UNL     1      13.780 -14.272  18.396  1.00  0.00    -0.200 OA
HETATM   12  O2  UNL     1      14.984 -12.190  18.298  1.00  0.00    -0.200 OA
BRANCH  10  13
HETATM   13  N1  UNL     1      16.030 -14.125  19.666  1.00  0.00    -0.311 N 
ATOM     14  H1  UNL     1      16.091 -15.143  19.698  1.00  0.00     0.172 HD
BRANCH  13  15
HETATM   15  C9  UNL     1      17.143 -13.283  19.984  1.00  0.00     0.170 C 
BRANCH  15  16
HETATM   16  C10 UNL     1      17.795 -13.772  21.225  1.00  0.00    -0.040 A 
HETATM   17  C11 UNL     1      17.007 -14.252  22.279  1.00  0.00     0.009 A 
HETATM   18  C12 UNL     1      17.587 -14.713  23.438  1.00  0.00     0.007 A 
HETATM   19  C13 UNL     1      18.954 -14.724  23.616  1.00  0.00    -0.058 A 
HETATM   20  C17 UNL     1      19.722 -14.257  22.591  1.00  0.00     0.007 A 
HETATM   21  C18 UNL     1      19.150 -13.786  21.410  1.00  0.00     0.009 A 
BRANCH  19  22
HETATM   22  C14 UNL     1      19.597 -15.216  24.859  1.00  0.00     0.040 C 
BRANCH  22  23
HETATM   23  C15 UNL     1      20.199 -14.069  25.647  1.00  0.00     0.025 C 
BRANCH  23  24
HETATM   24  C16 UNL     1      21.705 -14.228  25.653  1.00  0.00     0.134 C 
BRANCH  24  25
HETATM   25  N2  UNL     1      22.078 -15.630  25.625  1.00  0.00    -0.303 N 
ATOM     26  H2  UNL     1      21.723 -16.331  26.275  1.00  0.00     0.173 HD
BRANCH  25  27
HETATM   27  S2  UNL     1      23.186 -15.963  24.365  1.00  0.00     0.312 S 
HETATM   28  O3  UNL     1      23.407 -14.702  23.575  1.00  0.00    -0.183 OA
HETATM   29  O4  UNL     1      22.718 -17.041  23.436  1.00  0.00    -0.183 OA
BRANCH  27  30
HETATM   30  N3  UNL     1      24.690 -16.480  25.068  1.00  0.00    -0.312 N 
ATOM     31  H32 UNL     1      25.494 -15.875  25.233  1.00  0.00     0.170 HD
ATOM     32  H31 UNL     1      24.626 -17.475  25.280  1.00  0.00     0.170 HD
ENDBRANCH  27  30
ENDBRANCH  25  27
ENDBRANCH  24  25
ENDBRANCH  23  24
ENDBRANCH  22  23
ENDBRANCH  19  22
ENDBRANCH  15  16
ENDBRANCH  13  15
ENDBRANCH  10  13
ENDBRANCH   9  10
TORSDOF 10
ENDMDL
MODEL 2
REMARK VINA RESULT: -7.687500099      2.014      2.992
REMARK  10 active torsions:
REMARK  status: ('A' for Active; 'I' for Inactive)
REMARK    1  A    between atoms: C8_9  and  S1_10 
REMARK    2  A    between atoms: S1_10  and  N1_13 
REMARK    3  A    between atoms: N1_13  and  C9_15 
REMARK    4  A    between atoms: C9_15  and  C10_16 
REMARK    5  A    between atoms: C13_19  and  C14_20 
REMARK    6  A    between atoms: C14_20  and  C15_21 
REMARK    7  A    between atoms: C15_21  and  C16_22 
REMARK    8  A    between atoms: C16_22  and  N2_23 
REMARK    9  A    between atoms: N2_23  and  S2_25 
REMARK   10  A    between atoms: S2_25  and  N3_26 
ROOT
HETATM    1  C1  UNL     1      13.322 -11.620  21.049  1.00  0.00     0.018 C 
HETATM    2  C2  UNL     1      13.328 -12.711  20.530  1.00  0.00    -0.076 C 
HETATM    3  C3  UNL     1      13.310 -14.006  19.918  1.00  0.00     0.041 A 
HETATM    4  C4  UNL     1      12.621 -15.023  20.541  1.00  0.00     0.041 A 
HETATM    5  C5  UNL     1      12.599 -16.283  19.953  1.00  0.00     0.012 A 
HETATM    6 BR1  UNL     1      11.662 -17.741  20.764  1.00  0.00    -0.051 Br
HETATM    7  C6  UNL     1      13.268 -16.474  18.769  1.00  0.00     0.020 A 
HETATM    8  C7  UNL     1      13.971 -15.446  18.128  1.00  0.00     0.028 A 
HETATM    9  C8  UNL     1      13.985 -14.218  18.710  1.00  0.00     0.098 A 
ENDROOT
BRANCH   9  10
HETATM   10  S1  UNL     1      14.836 -12.882  18.050  1.00  0.00     0.260 S 
HETATM   11  O1  UNL     1      15.459 -13.192  16.712  1.00  0.00    -0.200 OA
HETATM   12  O2  UNL     1      13.832 -11.783  17.788  1.00  0.00    -0.200 OA
BRANCH  10  13
HETATM   13  N1  UNL     1      16.057 -12.227  19.037  1.00  0.00    -0.311 N 
ATOM     14  H1  UNL     1      15.884 -11.445  19.669  1.00  0.00     0.172 HD
BRANCH  13  15
HETATM   15  C9  UNL     1      17.344 -12.844  18.922  1.00  0.00     0.170 C 
BRANCH  15  16
HETATM   16  C10 UNL     1      17.745 -13.402  20.238  1.00  0.00    -0.040 A 
HETATM   17  C11 UNL     1      19.102 -13.604  20.520  1.00  0.00     0.009 A 
HETATM   18  C12 UNL     1      19.499 -14.117  21.732  1.00  0.00     0.007 A 
HETATM   19  C13 UNL     1      18.592 -14.454  22.716  1.00  0.00    -0.058 A 
HETATM   20  C17 UNL     1      17.272 -14.257  22.442  1.00  0.00     0.007 A 
HETATM   21  C18 UNL     1      16.852 -13.738  21.218  1.00  0.00     0.009 A 
BRANCH  19  22
HETATM   22  C14 UNL     1      19.002 -15.009  24.029  1.00  0.00     0.040 C 
BRANCH  22  23
HETATM   23  C15 UNL     1      19.993 -14.092  24.719  1.00  0.00     0.025 C 
BRANCH  23  24
HETATM   24  C16 UNL     1      20.798 -14.909  25.706  1.00  0.00     0.134 C 
BRANCH  24  25
HETATM   25  N2  UNL     1      22.222 -14.742  25.479  1.00  0.00    -0.303 N 
ATOM     26  H2  UNL     1      22.736 -13.884  25.675  1.00  0.00     0.173 HD
BRANCH  25  27
HETATM   27  S2  UNL     1      22.930 -16.163  24.842  1.00  0.00     0.312 S 
HETATM   28  O3  UNL     1      22.245 -16.501  23.546  1.00  0.00    -0.183 OA
HETATM   29  O4  UNL     1      22.827 -17.339  25.766  1.00  0.00    -0.183 OA
BRANCH  27  30
HETATM   30  N3  UNL     1      24.617 -15.861  24.547  1.00  0.00    -0.312 N 
ATOM     31  H32 UNL     1      25.320 -16.583  24.392  1.00  0.00     0.170 HD
ATOM     32  H31 UNL     1      24.775 -14.854  24.558  1.00  0.00     0.170 HD
ENDBRANCH  27  30
ENDBRANCH  25  27
ENDBRANCH  24  25
ENDBRANCH  23  24
ENDBRANCH  22  23
ENDBRANCH  19  22
ENDBRANCH  15  16
ENDBRANCH  13  15
ENDBRANCH  10  13
ENDBRANCH   9  10
TORSDOF 10
ENDMDL
MODEL 3
REMARK VINA RESULT: -7.472733696      2.325      3.064
REMARK  10 active torsions:
REMARK  status: ('A' for Active; 'I' for Inactive)
REMARK    1  A    between atoms: C8_9  and  S1_10 
REMARK    2  A    between atoms: S1_10  and  N1_13 
REMARK    3  A    between atoms: N1_13  and  C9_15 
REMARK    4  A    between atoms: C9_15  and  C10_16 
REMARK    5  A    between atoms: C13_19  and  C14_20 
REMARK    6  A    between atoms: C14_20  and  C15_21 
REMARK    7  A    between atoms: C15_21  and  C16_22 
REMARK    8  A    between atoms: C16_22  and  N2_23 
REMARK    9  A    between atoms: N2_23  and  S2_25 
REMARK   10  A    between atoms: S2_25  and  N3_26 
ROOT
HETATM    1  C1  UNL     1      12.978 -12.823  21.651  1.00  0.00     0.018 C 
HETATM    2  C2  UNL     1      13.223 -13.603  20.761  1.00  0.00    -0.076 C 
HETATM    3  C3  UNL     1      13.489 -14.534  19.706  1.00  0.00     0.041 A 
HETATM    4  C4  UNL     1      12.981 -15.811  19.807  1.00  0.00     0.041 A 
HETATM    5  C5  UNL     1      13.236 -16.721  18.786  1.00  0.00     0.012 A 
HETATM    6 BR1  UNL     1      12.561 -18.510  18.861  1.00  0.00    -0.051 Br
HETATM    7  C6  UNL     1      13.987 -16.318  17.710  1.00  0.00     0.020 A 
HETATM    8  C7  UNL     1      14.508 -15.022  17.599  1.00  0.00     0.028 A 
HETATM    9  C8  UNL     1      14.253 -14.140  18.602  1.00  0.00     0.098 A 
ENDROOT
BRANCH   9  10
HETATM   10  S1  UNL     1      14.859 -12.535  18.608  1.00  0.00     0.260 S 
HETATM   11  O1  UNL     1      15.485 -12.143  17.293  1.00  0.00    -0.200 OA
HETATM   12  O2  UNL     1      13.685 -11.601  18.795  1.00  0.00    -0.200 OA
BRANCH  10  13
HETATM   13  N1  UNL     1      15.987 -12.179  19.831  1.00  0.00    -0.311 N 
ATOM     14  H1  UNL     1      15.750 -11.603  20.639  1.00  0.00     0.172 HD
BRANCH  13  15
HETATM   15  C9  UNL     1      17.292 -12.741  19.652  1.00  0.00     0.170 C 
BRANCH  15  16
HETATM   16  C10 UNL     1      17.707 -13.437  20.896  1.00  0.00    -0.040 A 
HETATM   17  C11 UNL     1      16.737 -13.830  21.827  1.00  0.00     0.009 A 
HETATM   18  C12 UNL     1      17.095 -14.479  22.985  1.00  0.00     0.007 A 
HETATM   19  C13 UNL     1      18.411 -14.769  23.283  1.00  0.00    -0.058 A 
HETATM   20  C17 UNL     1      19.355 -14.386  22.378  1.00  0.00     0.007 A 
HETATM   21  C18 UNL     1      19.009 -13.728  21.199  1.00  0.00     0.009 A 
BRANCH  19  22
HETATM   22  C14 UNL     1      18.816 -15.466  24.528  1.00  0.00     0.040 C 
BRANCH  22  23
HETATM   23  C15 UNL     1      19.781 -14.617  25.334  1.00  0.00     0.025 C 
BRANCH  23  24
HETATM   24  C16 UNL     1      20.799 -15.531  25.982  1.00  0.00     0.134 C 
BRANCH  24  25
HETATM   25  N2  UNL     1      22.134 -14.969  25.888  1.00  0.00    -0.303 N 
ATOM     26  H2  UNL     1      22.569 -14.402  26.615  1.00  0.00     0.173 HD
BRANCH  25  27
HETATM   27  S2  UNL     1      22.886 -15.375  24.407  1.00  0.00     0.312 S 
HETATM   28  O3  UNL     1      22.773 -14.201  23.473  1.00  0.00    -0.183 OA
HETATM   29  O4  UNL     1      22.283 -16.579  23.749  1.00  0.00    -0.183 OA
BRANCH  27  30
HETATM   30  N3  UNL     1      24.564 -15.717  24.710  1.00  0.00    -0.312 N 
ATOM     31  H32 UNL     1      24.952 -15.973  25.617  1.00  0.00     0.170 HD
ATOM     32  H31 UNL     1      25.081 -15.617  23.837  1.00  0.00     0.170 HD
ENDBRANCH  27  30
ENDBRANCH  25  27
ENDBRANCH  24  25
ENDBRANCH  23  24
ENDBRANCH  22  23
ENDBRANCH  19  22
ENDBRANCH  15  16
ENDBRANCH  13  15
ENDBRANCH  10  13
ENDBRANCH   9  10
TORSDOF 10
ENDMDL
MODEL 4
REMARK VINA RESULT: -7.397908041      1.704      2.791
REMARK  10 active torsions:
REMARK  status: ('A' for Active; 'I' for Inactive)
REMARK    1  A    between atoms: C8_9  and  S1_10 
REMARK    2  A    between atoms: S1_10  and  N1_13 
REMARK    3  A    between atoms: N1_13  and  C9_15 
REMARK    4  A    between atoms: C9_15  and  C10_16 
REMARK    5  A    between atoms: C13_19  and  C14_20 
REMARK    6  A    between atoms: C14_20  and  C15_21 
REMARK    7  A    between atoms: C15_21  and  C16_22 
REMARK    8  A    between atoms: C16_22  and  N2_23 
REMARK    9  A    between atoms: N2_23  and  S2_25 
REMARK   10  A    between atoms: S2_25  and  N3_26 
ROOT
HETATM    1  C1  UNL     1      17.093 -12.407  20.294  1.00  0.00     0.018 C 
HETATM    2  C2  UNL     1      16.009 -12.650  20.765  1.00  0.00    -0.076 C 
HETATM    3  C3  UNL     1      14.713 -12.918  21.313  1.00  0.00     0.041 A 
HETATM    4  C4  UNL     1      13.999 -11.878  21.866  1.00  0.00     0.041 A 
HETATM    5  C5  UNL     1      12.740 -12.131  22.400  1.00  0.00     0.012 A 
HETATM    6 BR1  UNL     1      11.695 -10.733  23.183  1.00  0.00    -0.051 Br
HETATM    7  C6  UNL     1      12.248 -13.412  22.360  1.00  0.00     0.020 A 
HETATM    8  C7  UNL     1      12.966 -14.477  21.801  1.00  0.00     0.028 A 
HETATM    9  C8  UNL     1      14.196 -14.219  21.281  1.00  0.00     0.098 A 
ENDROOT
BRANCH   9  10
HETATM   10  S1  UNL     1      15.194 -15.435  20.598  1.00  0.00     0.260 S 
HETATM   11  O1  UNL     1      14.552 -16.801  20.628  1.00  0.00    -0.200 OA
HETATM   12  O2  UNL     1      15.384 -15.107  19.135  1.00  0.00    -0.200 OA
BRANCH  10  13
HETATM   13  N1  UNL     1      16.742 -15.590  21.286  1.00  0.00    -0.311 N 
ATOM     14  H1  UNL     1      17.589 -15.326  20.782  1.00  0.00     0.172 HD
BRANCH  13  15
HETATM   15  C9  UNL     1      16.778 -16.115  22.617  1.00  0.00     0.170 C 
BRANCH  15  16
HETATM   16  C10 UNL     1      17.964 -15.575  23.330  1.00  0.00    -0.040 A 
HETATM   17  C11 UNL     1      18.962 -14.909  22.609  1.00  0.00     0.009 A 
HETATM   18  C12 UNL     1      20.069 -14.398  23.247  1.00  0.00     0.007 A 
HETATM   19  C13 UNL     1      20.245 -14.515  24.610  1.00  0.00    -0.058 A 
HETATM   20  C17 UNL     1      19.274 -15.163  25.313  1.00  0.00     0.007 A 
HETATM   21  C18 UNL     1      18.146 -15.688  24.682  1.00  0.00     0.009 A 
BRANCH  19  22
HETATM   22  C14 UNL     1      21.432 -13.971  25.315  1.00  0.00     0.040 C 
BRANCH  22  23
HETATM   23  C15 UNL     1      22.687 -14.161  24.485  1.00  0.00     0.025 C 
BRANCH  23  24
HETATM   24  C16 UNL     1      23.177 -15.581  24.673  1.00  0.00     0.134 C 
BRANCH  24  25
HETATM   25  N2  UNL     1      24.609 -15.669  24.450  1.00  0.00    -0.303 N 
ATOM     26  H2  UNL     1      25.281 -14.967  24.757  1.00  0.00     0.173 HD
BRANCH  25  27
HETATM   27  S2  UNL     1      25.028 -17.096  23.605  1.00  0.00     0.312 S 
HETATM   28  O3  UNL     1      23.995 -17.345  22.541  1.00  0.00    -0.183 OA
HETATM   29  O4  UNL     1      25.114 -18.302  24.490  1.00  0.00    -0.183 OA
BRANCH  27  30
HETATM   30  N3  UNL     1      26.584 -16.867  22.863  1.00  0.00    -0.312 N 
ATOM     31  H32 UNL     1      26.827 -16.094  22.245  1.00  0.00     0.170 HD
ATOM     32  H31 UNL     1      27.198 -17.630  23.150  1.00  0.00     0.170 HD
ENDBRANCH  27  30
ENDBRANCH  25  27
ENDBRANCH  24  25
ENDBRANCH  23  24
ENDBRANCH  22  23
ENDBRANCH  19  22
ENDBRANCH  15  16
ENDBRANCH  13  15
ENDBRANCH  10  13
ENDBRANCH   9  10
TORSDOF 10
ENDMDL
MODEL 5
REMARK VINA RESULT: -7.317761617      1.471      1.989
REMARK  10 active torsions:
REMARK  status: ('A' for Active; 'I' for Inactive)
REMARK    1  A    between atoms: C8_9  and  S1_10 
REMARK    2  A    between atoms: S1_10  and  N1_13 
REMARK    3  A    between atoms: N1_13  and  C9_15 
REMARK    4  A    between atoms: C9_15  and  C10_16 
REMARK    5  A    between atoms: C13_19  and  C14_20 
REMARK    6  A    between atoms: C14_20  and  C15_21 
REMARK    7  A    between atoms: C15_21  and  C16_22 
REMARK    8  A    between atoms: C16_22  and  N2_23 
REMARK    9  A    between atoms: N2_23  and  S2_25 
REMARK   10  A    between atoms: S2_25  and  N3_26 
ROOT
HETATM    1  C1  UNL     1      13.205 -15.838  21.709  1.00  0.00     0.018 C 
HETATM    2  C2  UNL     1      13.141 -14.636  21.806  1.00  0.00    -0.076 C 
HETATM    3  C3  UNL     1      13.068 -13.212  21.945  1.00  0.00     0.041 A 
HETATM    4  C4  UNL     1      12.239 -12.684  22.909  1.00  0.00     0.041 A 
HETATM    5  C5  UNL     1      12.163 -11.302  23.051  1.00  0.00     0.012 A 
HETATM    6 BR1  UNL     1      11.032 -10.500  24.369  1.00  0.00    -0.051 Br
HETATM    7  C6  UNL     1      12.917 -10.508  22.223  1.00  0.00     0.020 A 
HETATM    8  C7  UNL     1      13.763 -11.036  21.239  1.00  0.00     0.028 A 
HETATM    9  C8  UNL     1      13.831 -12.388  21.110  1.00  0.00     0.098 A 
ENDROOT
BRANCH   9  10
HETATM   10  S1  UNL     1      14.798 -13.164  19.925  1.00  0.00     0.260 S 
HETATM   11  O1  UNL     1      13.986 -13.991  18.959  1.00  0.00    -0.200 OA
HETATM   12  O2  UNL     1      15.453 -12.089  19.089  1.00  0.00    -0.200 OA
BRANCH  10  13
HETATM   13  N1  UNL     1      16.038 -14.162  20.526  1.00  0.00    -0.311 N 
ATOM     14  H1  UNL     1      16.092 -15.157  20.302  1.00  0.00     0.172 HD
BRANCH  13  15
HETATM   15  C9  UNL     1      17.002 -13.516  21.365  1.00  0.00     0.170 C 
BRANCH  15  16
HETATM   16  C10 UNL     1      17.784 -14.541  22.101  1.00  0.00    -0.040 A 
HETATM   17  C11 UNL     1      18.613 -15.420  21.394  1.00  0.00     0.009 A 
HETATM   18  C12 UNL     1      19.350 -16.376  22.054  1.00  0.00     0.007 A 
HETATM   19  C13 UNL     1      19.307 -16.513  23.426  1.00  0.00    -0.058 A 
HETATM   20  C17 UNL     1      18.500 -15.658  24.115  1.00  0.00     0.007 A 
HETATM   21  C18 UNL     1      17.747 -14.683  23.461  1.00  0.00     0.009 A 
BRANCH  19  22
HETATM   22  C14 UNL     1      20.094 -17.539  24.154  1.00  0.00     0.040 C 
BRANCH  22  23
HETATM   23  C15 UNL     1      21.480 -17.684  23.555  1.00  0.00     0.025 C 
BRANCH  23  24
HETATM   24  C16 UNL     1      22.495 -17.210  24.573  1.00  0.00     0.134 C 
BRANCH  24  25
HETATM   25  N2  UNL     1      23.286 -16.114  24.043  1.00  0.00    -0.303 N 
ATOM     26  H2  UNL     1      24.121 -16.236  23.470  1.00  0.00     0.173 HD
BRANCH  25  27
HETATM   27  S2  UNL     1      22.647 -14.595  24.500  1.00  0.00     0.312 S 
HETATM   28  O3  UNL     1      21.727 -14.115  23.410  1.00  0.00    -0.183 OA
HETATM   29  O4  UNL     1      23.701 -13.557  24.737  1.00  0.00    -0.183 OA
BRANCH  27  30
HETATM   30  N3  UNL     1      21.748 -14.790  25.976  1.00  0.00    -0.312 N 
ATOM     31  H32 UNL     1      21.484 -15.686  26.383  1.00  0.00     0.170 HD
ATOM     32  H31 UNL     1      21.536 -13.867  26.353  1.00  0.00     0.170 HD
ENDBRANCH  27  30
ENDBRANCH  25  27
ENDBRANCH  24  25
ENDBRANCH  23  24
ENDBRANCH  22  23
ENDBRANCH  19  22
ENDBRANCH  15  16
ENDBRANCH  13  15
ENDBRANCH  10  13
ENDBRANCH   9  10
TORSDOF 10
ENDMDL
