MODEL 1
REMARK VINA RESULT: -8.379342893      0.000      0.000
REMARK  14 active torsions:
REMARK  status: ('A' for Active; 'I' for Inactive)
REMARK    1  A    between atoms: C4_4  and  S1_5 
REMARK    2  A    between atoms: S1_5  and  N1_8 
REMARK    3  A    between atoms: N1_8  and  C5_10 
REMARK    4  A    between atoms: C5_10  and  C6_11 
REMARK    5  A    between atoms: C6_11  and  C7_12 
REMARK    6  A    between atoms: C7_12  and  C8_13 
REMARK    7  A    between atoms: C8_13  and  C9_14 
REMARK    8  A    between atoms: C16_23  and  N3_24 
REMARK    9  A    between atoms: N3_24  and  C17_26 
REMARK   10  A    between atoms: C17_26  and  N4_28 
REMARK   11  A    between atoms: N4_28  and  C18_30 
REMARK   12  A    between atoms: C18_30  and  C19_31 
REMARK   13  A    between atoms: C19_31  and  S3_32 
REMARK   14  A    between atoms: S3_32  and  C20_33 
ROOT
HETATM    1  C1  UNL     1      12.171  26.091   9.329  1.00  0.00     0.050 C 
HETATM    2  C2  UNL     1      11.337  25.869   8.133  1.00  0.00    -0.034 A 
HETATM    3  C3  UNL     1      10.372  26.790   7.788  1.00  0.00     0.034 A 
HETATM    4  C4  UNL     1       9.572  26.637   6.685  1.00  0.00     0.080 A 
HETATM    5  C14 UNL     1       9.770  25.515   5.923  1.00  0.00     0.027 A 
HETATM    6  C15 UNL     1      10.755  24.571   6.272  1.00  0.00     0.031 A 
HETATM    7  C16 UNL     1      11.555  24.715   7.368  1.00  0.00     0.040 A 
ENDROOT
BRANCH   4   8
HETATM    8  S1  UNL     1       8.362  27.837   6.277  1.00  0.00     0.258 S 
HETATM    9  O1  UNL     1       8.701  28.372   4.914  1.00  0.00    -0.201 OA
HETATM   10  O2  UNL     1       8.406  28.999   7.223  1.00  0.00    -0.201 OA
BRANCH   8  11
HETATM   11  N1  UNL     1       6.795  27.170   6.209  1.00  0.00    -0.315 N 
ATOM     12  H1  UNL     1       6.439  26.507   6.897  1.00  0.00     0.172 HD
BRANCH  11  13
HETATM   13  C5  UNL     1       6.033  27.629   5.101  1.00  0.00     0.132 C 
BRANCH  13  14
HETATM   14  C6  UNL     1       5.566  26.506   4.241  1.00  0.00     0.020 C 
BRANCH  14  15
HETATM   15  C7  UNL     1       6.562  25.513   3.770  1.00  0.00     0.004 C 
BRANCH  15  16
HETATM   16  C8  UNL     1       7.556  26.052   2.835  1.00  0.00     0.025 C 
BRANCH  16  17
HETATM   17  C9  UNL     1       8.410  24.924   2.196  1.00  0.00     0.080 C 
HETATM   18  C10 UNL     1       9.758  25.392   1.836  1.00  0.00     0.025 C 
HETATM   19  C11 UNL     1      10.894  24.656   2.494  1.00  0.00     0.007 C 
HETATM   20  C12 UNL     1      10.594  23.173   2.370  1.00  0.00     0.044 C 
HETATM   21  C13 UNL     1       9.382  22.919   3.204  1.00  0.00     0.056 C 
HETATM   22  N2  UNL     1       8.266  23.737   2.944  1.00  0.00    -0.398 N 
ATOM     23  H2  UNL     1       7.349  23.469   3.299  1.00  0.00     0.159 HD
ENDBRANCH  16  17
ENDBRANCH  15  16
ENDBRANCH  14  15
ENDBRANCH  13  14
ENDBRANCH  11  13
ENDBRANCH   8  11
ENDBRANCH   4   8
BRANCH   7  24
HETATM   24  N3  UNL     1      12.545  23.827   7.812  1.00  0.00    -0.333 N 
ATOM     25  H3  UNL     1      12.254  23.229   8.586  1.00  0.00     0.168 HD
BRANCH  24  26
HETATM   26  C17 UNL     1      13.859  23.613   7.388  1.00  0.00     0.172 C 
HETATM   27  S2  UNL     1      14.913  22.668   8.150  1.00  0.00    -0.041 SA
BRANCH  26  28
HETATM   28  N4  UNL     1      14.319  24.231   6.177  1.00  0.00    -0.366 N 
ATOM     29  H4  UNL     1      14.216  25.241   6.075  1.00  0.00     0.161 HD
BRANCH  28  30
HETATM   30  C18 UNL     1      14.917  23.493   5.105  1.00  0.00     0.132 C 
BRANCH  30  31
HETATM   31  C19 UNL     1      13.969  22.985   4.063  1.00  0.00     0.094 C 
BRANCH  31  32
HETATM   32  S3  UNL     1      13.320  21.349   4.590  1.00  0.00    -0.163 SA
BRANCH  32  33
HETATM   33  C20 UNL     1      14.284  20.025   3.811  1.00  0.00     0.047 C 
HETATM   34  C21 UNL     1      14.751  18.982   4.799  1.00  0.00     0.015 C 
HETATM   35  C22 UNL     1      15.283  17.809   3.987  1.00  0.00     0.001 C 
HETATM   36  C23 UNL     1      16.632  18.068   3.403  1.00  0.00     0.000 C 
HETATM   37  C24 UNL     1      16.623  18.630   2.010  1.00  0.00     0.000 C 
HETATM   38  C25 UNL     1      15.631  19.732   1.814  1.00  0.00     0.001 C 
HETATM   39  C26 UNL     1      15.488  20.532   3.091  1.00  0.00     0.015 C 
ENDBRANCH  32  33
ENDBRANCH  31  32
ENDBRANCH  30  31
ENDBRANCH  28  30
ENDBRANCH  26  28
ENDBRANCH  24  26
ENDBRANCH   7  24
TORSDOF 14
ENDMDL
MODEL 2
REMARK VINA RESULT: -8.367482846      0.906      1.757
REMARK  14 active torsions:
REMARK  status: ('A' for Active; 'I' for Inactive)
REMARK    1  A    between atoms: C4_4  and  S1_5 
REMARK    2  A    between atoms: S1_5  and  N1_8 
REMARK    3  A    between atoms: N1_8  and  C5_10 
REMARK    4  A    between atoms: C5_10  and  C6_11 
REMARK    5  A    between atoms: C6_11  and  C7_12 
REMARK    6  A    between atoms: C7_12  and  C8_13 
REMARK    7  A    between atoms: C8_13  and  C9_14 
REMARK    8  A    between atoms: C16_23  and  N3_24 
REMARK    9  A    between atoms: N3_24  and  C17_26 
REMARK   10  A    between atoms: C17_26  and  N4_28 
REMARK   11  A    between atoms: N4_28  and  C18_30 
REMARK   12  A    between atoms: C18_30  and  C19_31 
REMARK   13  A    between atoms: C19_31  and  S3_32 
REMARK   14  A    between atoms: S3_32  and  C20_33 
ROOT
HETATM    1  C1  UNL     1      11.087  23.104   6.248  1.00  0.00     0.050 C 
HETATM    2  C2  UNL     1      11.017  24.443   6.863  1.00  0.00    -0.034 A 
HETATM    3  C3  UNL     1      10.038  25.329   6.469  1.00  0.00     0.034 A 
HETATM    4  C4  UNL     1       9.925  26.585   7.010  1.00  0.00     0.080 A 
HETATM    5  C14 UNL     1      10.836  26.933   7.972  1.00  0.00     0.027 A 
HETATM    6  C15 UNL     1      11.839  26.031   8.376  1.00  0.00     0.031 A 
HETATM    7  C16 UNL     1      11.959  24.780   7.844  1.00  0.00     0.040 A 
ENDROOT
BRANCH   4   8
HETATM    8  S1  UNL     1       8.659  27.678   6.487  1.00  0.00     0.258 S 
HETATM    9  O1  UNL     1       9.098  28.284   5.184  1.00  0.00    -0.201 OA
HETATM   10  O2  UNL     1       8.481  28.808   7.455  1.00  0.00    -0.201 OA
BRANCH   8  11
HETATM   11  N1  UNL     1       7.182  26.869   6.222  1.00  0.00    -0.315 N 
ATOM     12  H1  UNL     1       6.822  26.144   6.843  1.00  0.00     0.172 HD
BRANCH  11  13
HETATM   13  C5  UNL     1       6.501  27.303   5.054  1.00  0.00     0.132 C 
BRANCH  13  14
HETATM   14  C6  UNL     1       5.757  26.192   4.396  1.00  0.00     0.020 C 
BRANCH  14  15
HETATM   15  C7  UNL     1       6.424  25.440   3.306  1.00  0.00     0.004 C 
BRANCH  15  16
HETATM   16  C8  UNL     1       7.644  26.072   2.795  1.00  0.00     0.025 C 
BRANCH  16  17
HETATM   17  C9  UNL     1       8.915  25.285   3.216  1.00  0.00     0.080 C 
HETATM   18  C10 UNL     1       8.639  23.850   3.393  1.00  0.00     0.025 C 
HETATM   19  C11 UNL     1       9.442  22.926   2.518  1.00  0.00     0.007 C 
HETATM   20  C12 UNL     1      10.886  23.391   2.586  1.00  0.00     0.044 C 
HETATM   21  C13 UNL     1      10.924  24.735   1.937  1.00  0.00     0.056 C 
HETATM   22  N2  UNL     1      10.008  25.686   2.421  1.00  0.00    -0.398 N 
ATOM     23  H2  UNL     1      10.136  26.673   2.197  1.00  0.00     0.159 HD
ENDBRANCH  16  17
ENDBRANCH  15  16
ENDBRANCH  14  15
ENDBRANCH  13  14
ENDBRANCH  11  13
ENDBRANCH   8  11
ENDBRANCH   4   8
BRANCH   7  24
HETATM   24  N3  UNL     1      12.930  23.818   8.161  1.00  0.00    -0.333 N 
ATOM     25  H3  UNL     1      12.649  23.166   8.892  1.00  0.00     0.168 HD
BRANCH  24  26
HETATM   26  C17 UNL     1      14.213  23.593   7.655  1.00  0.00     0.172 C 
HETATM   27  S2  UNL     1      15.267  22.558   8.290  1.00  0.00    -0.041 SA
BRANCH  26  28
HETATM   28  N4  UNL     1      14.636  24.285   6.470  1.00  0.00    -0.366 N 
ATOM     29  H4  UNL     1      14.552  25.301   6.442  1.00  0.00     0.161 HD
BRANCH  28  30
HETATM   30  C18 UNL     1      15.171  23.611   5.325  1.00  0.00     0.132 C 
BRANCH  30  31
HETATM   31  C19 UNL     1      14.161  22.999   4.406  1.00  0.00     0.094 C 
BRANCH  31  32
HETATM   32  S3  UNL     1      14.081  21.190   4.723  1.00  0.00    -0.163 SA
BRANCH  32  33
HETATM   33  C20 UNL     1      15.432  20.352   3.853  1.00  0.00     0.047 C 
HETATM   34  C21 UNL     1      14.979  19.679   2.578  1.00  0.00     0.015 C 
HETATM   35  C22 UNL     1      16.236  19.274   1.820  1.00  0.00     0.001 C 
HETATM   36  C23 UNL     1      16.901  18.067   2.392  1.00  0.00     0.000 C 
HETATM   37  C24 UNL     1      17.974  18.353   3.403  1.00  0.00     0.000 C 
HETATM   38  C25 UNL     1      17.593  19.394   4.406  1.00  0.00     0.001 C 
HETATM   39  C26 UNL     1      16.109  19.319   4.690  1.00  0.00     0.015 C 
ENDBRANCH  32  33
ENDBRANCH  31  32
ENDBRANCH  30  31
ENDBRANCH  28  30
ENDBRANCH  26  28
ENDBRANCH  24  26
ENDBRANCH   7  24
TORSDOF 14
ENDMDL
MODEL 3
REMARK VINA RESULT: -8.335458181      4.214      9.738
REMARK  14 active torsions:
REMARK  status: ('A' for Active; 'I' for Inactive)
REMARK    1  A    between atoms: C4_4  and  S1_5 
REMARK    2  A    between atoms: S1_5  and  N1_8 
REMARK    3  A    between atoms: N1_8  and  C5_10 
REMARK    4  A    between atoms: C5_10  and  C6_11 
REMARK    5  A    between atoms: C6_11  and  C7_12 
REMARK    6  A    between atoms: C7_12  and  C8_13 
REMARK    7  A    between atoms: C8_13  and  C9_14 
REMARK    8  A    between atoms: C16_23  and  N3_24 
REMARK    9  A    between atoms: N3_24  and  C17_26 
REMARK   10  A    between atoms: C17_26  and  N4_28 
REMARK   11  A    between atoms: N4_28  and  C18_30 
REMARK   12  A    between atoms: C18_30  and  C19_31 
REMARK   13  A    between atoms: C19_31  and  S3_32 
REMARK   14  A    between atoms: S3_32  and  C20_33 
ROOT
HETATM    1  C1  UNL     1      12.848  21.002   5.919  1.00  0.00     0.050 C 
HETATM    2  C2  UNL     1      13.739  20.866   4.751  1.00  0.00    -0.034 A 
HETATM    3  C3  UNL     1      14.712  19.890   4.739  1.00  0.00     0.034 A 
HETATM    4  C4  UNL     1      15.564  19.716   3.679  1.00  0.00     0.080 A 
HETATM    5  C14 UNL     1      15.411  20.562   2.612  1.00  0.00     0.027 A 
HETATM    6  C15 UNL     1      14.419  21.562   2.620  1.00  0.00     0.031 A 
HETATM    7  C16 UNL     1      13.567  21.742   3.670  1.00  0.00     0.040 A 
ENDROOT
BRANCH   4   8
HETATM    8  S1  UNL     1      16.782  18.456   3.700  1.00  0.00     0.258 S 
HETATM    9  O1  UNL     1      18.057  19.054   3.178  1.00  0.00    -0.201 OA
HETATM   10  O2  UNL     1      16.419  17.331   2.779  1.00  0.00    -0.201 OA
BRANCH   8  11
HETATM   11  N1  UNL     1      17.077  17.877   5.276  1.00  0.00    -0.315 N 
ATOM     12  H1  UNL     1      16.337  17.704   5.957  1.00  0.00     0.172 HD
BRANCH  11  13
HETATM   13  C5  UNL     1      18.453  17.657   5.550  1.00  0.00     0.132 C 
BRANCH  13  14
HETATM   14  C6  UNL     1      19.036  18.741   6.389  1.00  0.00     0.020 C 
BRANCH  14  15
HETATM   15  C7  UNL     1      18.236  19.268   7.521  1.00  0.00     0.004 C 
BRANCH  15  16
HETATM   16  C8  UNL     1      18.113  20.729   7.545  1.00  0.00     0.025 C 
BRANCH  16  17
HETATM   17  C9  UNL     1      16.629  21.179   7.459  1.00  0.00     0.080 C 
HETATM   18  C10 UNL     1      15.851  20.734   8.627  1.00  0.00     0.025 C 
HETATM   19  C11 UNL     1      15.207  21.833   9.430  1.00  0.00     0.007 C 
HETATM   20  C12 UNL     1      14.541  22.774   8.441  1.00  0.00     0.044 C 
HETATM   21  C13 UNL     1      15.643  23.407   7.658  1.00  0.00     0.056 C 
HETATM   22  N2  UNL     1      16.564  22.529   7.058  1.00  0.00    -0.398 N 
ATOM     23  H2  UNL     1      17.188  22.871   6.327  1.00  0.00     0.159 HD
ENDBRANCH  16  17
ENDBRANCH  15  16
ENDBRANCH  14  15
ENDBRANCH  13  14
ENDBRANCH  11  13
ENDBRANCH   8  11
ENDBRANCH   4   8
BRANCH   7  24
HETATM   24  N3  UNL     1      12.564  22.716   3.786  1.00  0.00    -0.333 N 
ATOM     25  H3  UNL     1      11.621  22.337   3.872  1.00  0.00     0.168 HD
BRANCH  24  26
HETATM   26  C17 UNL     1      12.623  24.111   3.804  1.00  0.00     0.172 C 
HETATM   27  S2  UNL     1      13.580  24.963   4.776  1.00  0.00    -0.041 SA
BRANCH  26  28
HETATM   28  N4  UNL     1      11.820  24.864   2.883  1.00  0.00    -0.366 N 
ATOM     29  H4  UNL     1      12.173  25.761   2.549  1.00  0.00     0.161 HD
BRANCH  28  30
HETATM   30  C18 UNL     1      10.546  24.411   2.411  1.00  0.00     0.132 C 
BRANCH  30  31
HETATM   31  C19 UNL     1       9.547  24.075   3.474  1.00  0.00     0.094 C 
BRANCH  31  32
HETATM   32  S3  UNL     1       8.976  25.628   4.273  1.00  0.00    -0.163 SA
BRANCH  32  33
HETATM   33  C20 UNL     1       9.828  25.853   5.858  1.00  0.00     0.047 C 
HETATM   34  C21 UNL     1      10.185  24.544   6.521  1.00  0.00     0.015 C 
HETATM   35  C22 UNL     1      11.129  24.872   7.670  1.00  0.00     0.001 C 
HETATM   36  C23 UNL     1      10.429  25.447   8.855  1.00  0.00     0.000 C 
HETATM   37  C24 UNL     1      10.364  26.947   8.887  1.00  0.00     0.000 C 
HETATM   38  C25 UNL     1       9.986  27.560   7.576  1.00  0.00     0.001 C 
HETATM   39  C26 UNL     1       9.031  26.649   6.836  1.00  0.00     0.015 C 
ENDBRANCH  32  33
ENDBRANCH  31  32
ENDBRANCH  30  31
ENDBRANCH  28  30
ENDBRANCH  26  28
ENDBRANCH  24  26
ENDBRANCH   7  24
TORSDOF 14
ENDMDL
MODEL 4
REMARK VINA RESULT: -8.312234311      2.840      7.907
REMARK  14 active torsions:
REMARK  status: ('A' for Active; 'I' for Inactive)
REMARK    1  A    between atoms: C4_4  and  S1_5 
REMARK    2  A    between atoms: S1_5  and  N1_8 
REMARK    3  A    between atoms: N1_8  and  C5_10 
REMARK    4  A    between atoms: C5_10  and  C6_11 
REMARK    5  A    between atoms: C6_11  and  C7_12 
REMARK    6  A    between atoms: C7_12  and  C8_13 
REMARK    7  A    between atoms: C8_13  and  C9_14 
REMARK    8  A    between atoms: C16_23  and  N3_24 
REMARK    9  A    between atoms: N3_24  and  C17_26 
REMARK   10  A    between atoms: C17_26  and  N4_28 
REMARK   11  A    between atoms: N4_28  and  C18_30 
REMARK   12  A    between atoms: C18_30  and  C19_31 
REMARK   13  A    between atoms: C19_31  and  S3_32 
REMARK   14  A    between atoms: S3_32  and  C20_33 
ROOT
HETATM    1  C1  UNL     1      11.882  26.423   9.315  1.00  0.00     0.050 C 
HETATM    2  C2  UNL     1      11.917  25.360   8.293  1.00  0.00    -0.034 A 
HETATM    3  C3  UNL     1      13.113  24.757   7.971  1.00  0.00     0.034 A 
HETATM    4  C4  UNL     1      13.202  23.761   7.032  1.00  0.00     0.080 A 
HETATM    5  C14 UNL     1      12.040  23.381   6.414  1.00  0.00     0.027 A 
HETATM    6  C15 UNL     1      10.816  23.996   6.740  1.00  0.00     0.031 A 
HETATM    7  C16 UNL     1      10.717  24.987   7.673  1.00  0.00     0.040 A 
ENDROOT
BRANCH   4   8
HETATM    8  S1  UNL     1      14.742  23.013   6.659  1.00  0.00     0.258 S 
HETATM    9  O1  UNL     1      14.624  21.551   6.986  1.00  0.00    -0.201 OA
HETATM   10  O2  UNL     1      15.839  23.564   7.519  1.00  0.00    -0.201 OA
BRANCH   8  11
HETATM   11  N1  UNL     1      15.141  23.154   5.007  1.00  0.00    -0.315 N 
ATOM     12  H1  UNL     1      15.093  24.034   4.494  1.00  0.00     0.172 HD
BRANCH  11  13
HETATM   13  C5  UNL     1      15.545  21.928   4.416  1.00  0.00     0.132 C 
BRANCH  13  14
HETATM   14  C6  UNL     1      14.557  21.437   3.416  1.00  0.00     0.020 C 
BRANCH  14  15
HETATM   15  C7  UNL     1      14.577  20.002   3.043  1.00  0.00     0.004 C 
BRANCH  15  16
HETATM   16  C8  UNL     1      14.591  19.082   4.185  1.00  0.00     0.025 C 
BRANCH  16  17
HETATM   17  C9  UNL     1      15.835  18.154   4.157  1.00  0.00     0.080 C 
HETATM   18  C10 UNL     1      16.334  17.944   2.788  1.00  0.00     0.025 C 
HETATM   19  C11 UNL     1      17.757  18.373   2.548  1.00  0.00     0.007 C 
HETATM   20  C12 UNL     1      18.584  17.835   3.702  1.00  0.00     0.044 C 
HETATM   21  C13 UNL     1      18.121  18.559   4.922  1.00  0.00     0.056 C 
HETATM   22  N2  UNL     1      16.737  18.536   5.171  1.00  0.00    -0.398 N 
ATOM     23  H2  UNL     1      16.383  18.798   6.091  1.00  0.00     0.159 HD
ENDBRANCH  16  17
ENDBRANCH  15  16
ENDBRANCH  14  15
ENDBRANCH  13  14
ENDBRANCH  11  13
ENDBRANCH   8  11
ENDBRANCH   4   8
BRANCH   7  24
HETATM   24  N3  UNL     1       9.555  25.675   8.052  1.00  0.00    -0.333 N 
ATOM     25  H3  UNL     1       9.158  25.367   8.940  1.00  0.00     0.168 HD
BRANCH  24  26
HETATM   26  C17 UNL     1       8.844  26.707   7.435  1.00  0.00     0.172 C 
HETATM   27  S2  UNL     1       9.121  28.271   7.681  1.00  0.00    -0.041 SA
BRANCH  26  28
HETATM   28  N4  UNL     1       7.818  26.385   6.484  1.00  0.00    -0.366 N 
ATOM     29  H4  UNL     1       7.078  25.742   6.764  1.00  0.00     0.161 HD
BRANCH  28  30
HETATM   30  C18 UNL     1       7.786  26.929   5.159  1.00  0.00     0.132 C 
BRANCH  30  31
HETATM   31  C19 UNL     1       6.490  26.772   4.427  1.00  0.00     0.094 C 
BRANCH  31  32
HETATM   32  S3  UNL     1       6.726  25.593   3.038  1.00  0.00    -0.163 SA
BRANCH  32  33
HETATM   33  C20 UNL     1       8.445  25.019   3.003  1.00  0.00     0.047 C 
HETATM   34  C21 UNL     1       9.308  25.812   2.048  1.00  0.00     0.015 C 
HETATM   35  C22 UNL     1      10.753  25.423   2.330  1.00  0.00     0.001 C 
HETATM   36  C23 UNL     1      11.117  24.086   1.776  1.00  0.00     0.000 C 
HETATM   37  C24 UNL     1      10.946  22.938   2.728  1.00  0.00     0.000 C 
HETATM   38  C25 UNL     1       9.658  22.973   3.487  1.00  0.00     0.001 C 
HETATM   39  C26 UNL     1       8.569  23.580   2.630  1.00  0.00     0.015 C 
ENDBRANCH  32  33
ENDBRANCH  31  32
ENDBRANCH  30  31
ENDBRANCH  28  30
ENDBRANCH  26  28
ENDBRANCH  24  26
ENDBRANCH   7  24
TORSDOF 14
ENDMDL
MODEL 5
REMARK VINA RESULT: -8.302174779      1.234      1.743
REMARK  14 active torsions:
REMARK  status: ('A' for Active; 'I' for Inactive)
REMARK    1  A    between atoms: C4_4  and  S1_5 
REMARK    2  A    between atoms: S1_5  and  N1_8 
REMARK    3  A    between atoms: N1_8  and  C5_10 
REMARK    4  A    between atoms: C5_10  and  C6_11 
REMARK    5  A    between atoms: C6_11  and  C7_12 
REMARK    6  A    between atoms: C7_12  and  C8_13 
REMARK    7  A    between atoms: C8_13  and  C9_14 
REMARK    8  A    between atoms: C16_23  and  N3_24 
REMARK    9  A    between atoms: N3_24  and  C17_26 
REMARK   10  A    between atoms: C17_26  and  N4_28 
REMARK   11  A    between atoms: N4_28  and  C18_30 
REMARK   12  A    between atoms: C18_30  and  C19_31 
REMARK   13  A    between atoms: C19_31  and  S3_32 
REMARK   14  A    between atoms: S3_32  and  C20_33 
ROOT
HETATM    1  C1  UNL     1      11.726  22.373   6.583  1.00  0.00     0.050 C 
HETATM    2  C2  UNL     1      11.803  23.765   7.064  1.00  0.00    -0.034 A 
HETATM    3  C3  UNL     1      10.773  24.641   6.800  1.00  0.00     0.034 A 
HETATM    4  C4  UNL     1      10.791  25.944   7.227  1.00  0.00     0.080 A 
HETATM    5  C14 UNL     1      11.888  26.352   7.938  1.00  0.00     0.027 A 
HETATM    6  C15 UNL     1      12.944  25.460   8.209  1.00  0.00     0.031 A 
HETATM    7  C16 UNL     1      12.935  24.162   7.789  1.00  0.00     0.040 A 
ENDROOT
BRANCH   4   8
HETATM    8  S1  UNL     1       9.455  27.023   6.877  1.00  0.00     0.258 S 
HETATM    9  O1  UNL     1       9.758  28.341   7.533  1.00  0.00    -0.201 OA
HETATM   10  O2  UNL     1       8.176  26.522   7.478  1.00  0.00    -0.201 OA
BRANCH   8  11
HETATM   11  N1  UNL     1       9.271  27.296   5.204  1.00  0.00    -0.315 N 
ATOM     12  H1  UNL     1       9.910  26.921   4.503  1.00  0.00     0.172 HD
BRANCH  11  13
HETATM   13  C5  UNL     1       8.142  28.095   4.881  1.00  0.00     0.132 C 
BRANCH  13  14
HETATM   14  C6  UNL     1       6.990  27.272   4.419  1.00  0.00     0.020 C 
BRANCH  14  15
HETATM   15  C7  UNL     1       7.257  25.916   3.882  1.00  0.00     0.004 C 
BRANCH  15  16
HETATM   16  C8  UNL     1       7.454  25.871   2.429  1.00  0.00     0.025 C 
BRANCH  16  17
HETATM   17  C9  UNL     1       8.521  24.816   2.030  1.00  0.00     0.080 C 
HETATM   18  C10 UNL     1       9.882  25.377   2.050  1.00  0.00     0.025 C 
HETATM   19  C11 UNL     1      10.848  24.693   2.981  1.00  0.00     0.007 C 
HETATM   20  C12 UNL     1      10.692  23.198   2.763  1.00  0.00     0.044 C 
HETATM   21  C13 UNL     1       9.320  22.847   3.237  1.00  0.00     0.056 C 
HETATM   22  N2  UNL     1       8.263  23.602   2.697  1.00  0.00    -0.398 N 
ATOM     23  H2  UNL     1       7.304  23.268   2.789  1.00  0.00     0.159 HD
ENDBRANCH  16  17
ENDBRANCH  15  16
ENDBRANCH  14  15
ENDBRANCH  13  14
ENDBRANCH  11  13
ENDBRANCH   8  11
ENDBRANCH   4   8
BRANCH   7  24
HETATM   24  N3  UNL     1      13.940  23.204   7.987  1.00  0.00    -0.333 N 
ATOM     25  H3  UNL     1      13.745  22.543   8.738  1.00  0.00     0.168 HD
BRANCH  24  26
HETATM   26  C17 UNL     1      15.161  22.992   7.342  1.00  0.00     0.172 C 
HETATM   27  S2  UNL     1      16.179  21.801   7.701  1.00  0.00    -0.041 SA
BRANCH  26  28
HETATM   28  N4  UNL     1      15.545  23.852   6.258  1.00  0.00    -0.366 N 
ATOM     29  H4  UNL     1      16.329  24.489   6.395  1.00  0.00     0.161 HD
BRANCH  28  30
HETATM   30  C18 UNL     1      14.875  23.854   4.992  1.00  0.00     0.132 C 
BRANCH  30  31
HETATM   31  C19 UNL     1      15.351  22.831   4.008  1.00  0.00     0.094 C 
BRANCH  31  32
HETATM   32  S3  UNL     1      14.008  21.613   3.713  1.00  0.00    -0.163 SA
BRANCH  32  33
HETATM   33  C20 UNL     1      14.715  19.958   3.497  1.00  0.00     0.047 C 
HETATM   34  C21 UNL     1      14.543  19.084   4.719  1.00  0.00     0.015 C 
HETATM   35  C22 UNL     1      14.913  17.667   4.305  1.00  0.00     0.001 C 
HETATM   36  C23 UNL     1      16.386  17.458   4.185  1.00  0.00     0.000 C 
HETATM   37  C24 UNL     1      16.947  17.676   2.809  1.00  0.00     0.000 C 
HETATM   38  C25 UNL     1      16.430  18.909   2.138  1.00  0.00     0.001 C 
HETATM   39  C26 UNL     1      16.169  19.987   3.167  1.00  0.00     0.015 C 
ENDBRANCH  32  33
ENDBRANCH  31  32
ENDBRANCH  30  31
ENDBRANCH  28  30
ENDBRANCH  26  28
ENDBRANCH  24  26
ENDBRANCH   7  24
TORSDOF 14
ENDMDL
