MODEL 1
REMARK VINA RESULT: -8.765315591      0.000      0.000
REMARK  14 active torsions:
REMARK  status: ('A' for Active; 'I' for Inactive)
REMARK    1  A    between atoms: C2_2  and  C3_3 
REMARK    2  A    between atoms: C3_3  and  O1_4 
REMARK    3  A    between atoms: O1_4  and  C4_5 
REMARK       I    between atoms: C4_5  and  N1_7 
REMARK    4  A    between atoms: N1_7  and  C5_9 
REMARK    5  A    between atoms: C5_9  and  C6_10 
REMARK    6  A    between atoms: C6_10  and  C7_11 
REMARK    7  A    between atoms: C7_11  and  C8_12 
REMARK    8  A    between atoms: C8_12  and  C9_13 
REMARK    9  A    between atoms: C9_13  and  C10_14 
REMARK   10  A    between atoms: C10_14  and  N2_15 
REMARK       I    between atoms: N2_15  and  C11_17 
REMARK   11  A    between atoms: N4_19  and  C12_21 
REMARK   12  A    between atoms: C12_21  and  C13_22 
REMARK   13  A    between atoms: C13_22  and  C14_23 
REMARK   14  A    between atoms: C14_23  and  N5_24 
ROOT
HETATM    1  C4  UNL     1      14.794  18.884   4.090  1.00  0.00     0.360 C 
HETATM    2  O2  UNL     1      14.949  17.702   4.465  1.00  0.00    -0.239 OA
HETATM    3  N1  UNL     1      15.526  19.255   2.882  1.00  0.00    -0.337 N 
ATOM      4  H1  UNL     1      15.454  20.203   2.513  1.00  0.00     0.164 HD
ENDROOT
BRANCH   1   5
HETATM    5  O1  UNL     1      14.002  19.746   4.764  1.00  0.00    -0.303 OA
BRANCH   5   6
HETATM    6  C3  UNL     1      13.372  20.878   4.403  1.00  0.00     0.190 C 
BRANCH   6   7
HETATM    7  C2  UNL     1      13.990  22.233   4.613  1.00  0.00    -0.018 C 
HETATM    8  C1  UNL     1      15.461  22.301   4.704  1.00  0.00     0.018 C 
HETATM    9  C15 UNL     1      13.485  23.051   3.389  1.00  0.00     0.012 C 
HETATM   10  C16 UNL     1      12.136  23.564   3.841  1.00  0.00     0.011 C 
HETATM   11  C17 UNL     1      12.553  24.121   5.209  1.00  0.00    -0.036 C 
HETATM   12  C18 UNL     1      13.374  25.325   4.984  1.00  0.00     0.016 C 
HETATM   13  C19 UNL     1      11.359  24.321   6.108  1.00  0.00    -0.002 C 
HETATM   14  C31 UNL     1      13.270  22.912   5.746  1.00  0.00     0.004 C 
HETATM   15  C20 UNL     1      10.561  25.559   5.775  1.00  0.00     0.007 C 
HETATM   16  C28 UNL     1      11.740  24.172   7.539  1.00  0.00    -0.004 C 
HETATM   17  C21 UNL     1       9.324  25.413   6.683  1.00  0.00     0.018 C 
HETATM   18  C22 UNL     1       9.843  25.778   8.038  1.00  0.00     0.021 C 
HETATM   19  C23 UNL     1       8.680  25.795   9.025  1.00  0.00     0.024 C 
HETATM   20  C24 UNL     1      10.318  27.207   7.925  1.00  0.00     0.135 C 
HETATM   21  C27 UNL     1      10.998  24.972   8.520  1.00  0.00     0.006 C 
HETATM   22  O3  UNL     1       9.625  28.087   7.489  1.00  0.00    -0.297 OA
HETATM   23  C25 UNL     1      11.709  27.288   8.428  1.00  0.00     0.079 C 
HETATM   24  C26 UNL     1      11.812  26.029   9.246  1.00  0.00     0.013 C 
HETATM   25  C29 UNL     1      13.258  24.281   7.770  1.00  0.00     0.006 C 
HETATM   26  C30 UNL     1      14.041  23.291   6.933  1.00  0.00     0.006 C 
ENDBRANCH   6   7
ENDBRANCH   5   6
ENDBRANCH   1   5
BRANCH   3  27
HETATM   27  C5  UNL     1      16.340  18.297   2.221  1.00  0.00     0.125 C 
BRANCH  27  28
HETATM   28  C6  UNL     1      17.801  18.501   2.356  1.00  0.00     0.020 C 
BRANCH  28  29
HETATM   29  C7  UNL     1      18.545  17.563   3.229  1.00  0.00     0.002 C 
BRANCH  29  30
HETATM   30  C8  UNL     1      18.534  17.791   4.688  1.00  0.00     0.002 C 
BRANCH  30  31
HETATM   31  C9  UNL     1      18.500  19.288   5.021  1.00  0.00     0.020 C 
BRANCH  31  32
HETATM   32  C10 UNL     1      19.049  19.550   6.410  1.00  0.00     0.122 C 
BRANCH  32  33
HETATM   33  N2  UNL     1      19.427  20.919   6.613  1.00  0.00    -0.365 N 
HETATM   34  C11 UNL     1      18.951  21.624   7.739  1.00  0.00     0.183 C 
HETATM   35  N3  UNL     1      19.752  21.973   8.858  1.00  0.00    -0.064 NA
HETATM   36  N4  UNL     1      17.696  21.967   7.731  1.00  0.00    -0.365 N 
ATOM     37  H4  UNL     1      17.136  21.708   6.918  1.00  0.00     0.162 HD
ATOM     38  H2  UNL     1      20.039  21.383   5.943  1.00  0.00     0.162 HD
BRANCH  36  39
HETATM   39  C12 UNL     1      17.048  22.686   8.789  1.00  0.00     0.124 C 
BRANCH  39  40
HETATM   40  C13 UNL     1      16.000  21.830   9.434  1.00  0.00     0.047 C 
BRANCH  40  41
HETATM   41  C14 UNL     1      15.933  20.503   8.739  1.00  0.00     0.231 C 
BRANCH  41  42
HETATM   42  N5  UNL     1      16.248  19.390   9.610  1.00  0.00    -0.079 N 
ATOM     43  H53 UNL     1      16.906  19.672  10.337  1.00  0.00     0.274 HD
ATOM     44  H52 UNL     1      15.448  19.148  10.195  1.00  0.00     0.274 HD
ATOM     45  H51 UNL     1      16.592  18.573   9.106  1.00  0.00     0.274 HD
ENDBRANCH  41  42
ENDBRANCH  40  41
ENDBRANCH  39  40
ENDBRANCH  36  39
ENDBRANCH  32  33
ENDBRANCH  31  32
ENDBRANCH  30  31
ENDBRANCH  29  30
ENDBRANCH  28  29
ENDBRANCH  27  28
ENDBRANCH   3  27
TORSDOF 14
ENDMDL
MODEL 2
REMARK VINA RESULT: -8.651212142      1.129      1.362
REMARK  14 active torsions:
REMARK  status: ('A' for Active; 'I' for Inactive)
REMARK    1  A    between atoms: C2_2  and  C3_3 
REMARK    2  A    between atoms: C3_3  and  O1_4 
REMARK    3  A    between atoms: O1_4  and  C4_5 
REMARK       I    between atoms: C4_5  and  N1_7 
REMARK    4  A    between atoms: N1_7  and  C5_9 
REMARK    5  A    between atoms: C5_9  and  C6_10 
REMARK    6  A    between atoms: C6_10  and  C7_11 
REMARK    7  A    between atoms: C7_11  and  C8_12 
REMARK    8  A    between atoms: C8_12  and  C9_13 
REMARK    9  A    between atoms: C9_13  and  C10_14 
REMARK   10  A    between atoms: C10_14  and  N2_15 
REMARK       I    between atoms: N2_15  and  C11_17 
REMARK   11  A    between atoms: N4_19  and  C12_21 
REMARK   12  A    between atoms: C12_21  and  C13_22 
REMARK   13  A    between atoms: C13_22  and  C14_23 
REMARK   14  A    between atoms: C14_23  and  N5_24 
ROOT
HETATM    1  C4  UNL     1      14.935  19.088   4.208  1.00  0.00     0.360 C 
HETATM    2  O2  UNL     1      14.857  17.850   4.367  1.00  0.00    -0.239 OA
HETATM    3  N1  UNL     1      15.695  19.517   3.037  1.00  0.00    -0.337 N 
ATOM      4  H1  UNL     1      15.807  20.511   2.839  1.00  0.00     0.164 HD
ENDROOT
BRANCH   1   5
HETATM    5  O1  UNL     1      14.354  19.953   5.066  1.00  0.00    -0.303 OA
BRANCH   5   6
HETATM    6  C3  UNL     1      13.338  20.824   4.934  1.00  0.00     0.190 C 
BRANCH   6   7
HETATM    7  C2  UNL     1      13.573  22.285   4.668  1.00  0.00    -0.018 C 
HETATM    8  C1  UNL     1      14.903  22.678   4.163  1.00  0.00     0.018 C 
HETATM    9  C15 UNL     1      12.473  22.643   3.629  1.00  0.00     0.012 C 
HETATM   10  C16 UNL     1      11.269  22.963   4.488  1.00  0.00     0.011 C 
HETATM   11  C17 UNL     1      11.947  23.924   5.476  1.00  0.00    -0.036 C 
HETATM   12  C18 UNL     1      12.260  25.174   4.760  1.00  0.00     0.016 C 
HETATM   13  C19 UNL     1      11.123  24.093   6.728  1.00  0.00    -0.002 C 
HETATM   14  C31 UNL     1      13.117  23.066   5.872  1.00  0.00     0.004 C 
HETATM   15  C20 UNL     1       9.940  25.013   6.544  1.00  0.00     0.007 C 
HETATM   16  C28 UNL     1      11.992  24.395   7.898  1.00  0.00    -0.004 C 
HETATM   17  C21 UNL     1       9.181  24.850   7.876  1.00  0.00     0.018 C 
HETATM   18  C22 UNL     1      10.000  25.647   8.843  1.00  0.00     0.021 C 
HETATM   19  C23 UNL     1       9.287  25.672  10.191  1.00  0.00     0.024 C 
HETATM   20  C24 UNL     1       9.977  27.066   8.330  1.00  0.00     0.135 C 
HETATM   21  C27 UNL     1      11.429  25.246   8.952  1.00  0.00     0.006 C 
HETATM   22  O3  UNL     1       8.955  27.644   8.067  1.00  0.00    -0.297 OA
HETATM   23  C25 UNL     1      11.370  27.558   8.226  1.00  0.00     0.079 C 
HETATM   24  C26 UNL     1      12.101  26.597   9.125  1.00  0.00     0.013 C 
HETATM   25  C29 UNL     1      13.399  24.870   7.494  1.00  0.00     0.006 C 
HETATM   26  C30 UNL     1      14.102  23.885   6.584  1.00  0.00     0.006 C 
ENDBRANCH   6   7
ENDBRANCH   5   6
ENDBRANCH   1   5
BRANCH   3  27
HETATM   27  C5  UNL     1      16.279  18.553   2.174  1.00  0.00     0.125 C 
BRANCH  27  28
HETATM   28  C6  UNL     1      17.744  18.385   2.304  1.00  0.00     0.020 C 
BRANCH  28  29
HETATM   29  C7  UNL     1      18.233  17.361   3.256  1.00  0.00     0.002 C 
BRANCH  29  30
HETATM   30  C8  UNL     1      19.094  17.787   4.378  1.00  0.00     0.002 C 
BRANCH  30  31
HETATM   31  C9  UNL     1      18.266  18.376   5.527  1.00  0.00     0.020 C 
BRANCH  31  32
HETATM   32  C10 UNL     1      18.528  19.862   5.682  1.00  0.00     0.122 C 
BRANCH  32  33
HETATM   33  N2  UNL     1      17.344  20.610   5.991  1.00  0.00    -0.365 N 
HETATM   34  C11 UNL     1      17.019  20.898   7.333  1.00  0.00     0.183 C 
HETATM   35  N3  UNL     1      17.135  22.184   7.923  1.00  0.00    -0.064 NA
HETATM   36  N4  UNL     1      16.587  19.908   8.059  1.00  0.00    -0.365 N 
ATOM     37  H4  UNL     1      16.510  18.992   7.618  1.00  0.00     0.162 HD
ATOM     38  H2  UNL     1      16.736  20.934   5.239  1.00  0.00     0.162 HD
BRANCH  36  39
HETATM   39  C12 UNL     1      16.213  20.021   9.439  1.00  0.00     0.124 C 
BRANCH  39  40
HETATM   40  C13 UNL     1      17.327  19.547  10.322  1.00  0.00     0.047 C 
BRANCH  40  41
HETATM   41  C14 UNL     1      17.126  18.100  10.658  1.00  0.00     0.231 C 
BRANCH  41  42
HETATM   42  N5  UNL     1      15.731  17.740  10.802  1.00  0.00    -0.079 N 
ATOM     43  H53 UNL     1      15.389  17.976  11.733  1.00  0.00     0.274 HD
ATOM     44  H52 UNL     1      15.138  18.355  10.245  1.00  0.00     0.274 HD
ATOM     45  H51 UNL     1      15.547  16.761  10.585  1.00  0.00     0.274 HD
ENDBRANCH  41  42
ENDBRANCH  40  41
ENDBRANCH  39  40
ENDBRANCH  36  39
ENDBRANCH  32  33
ENDBRANCH  31  32
ENDBRANCH  30  31
ENDBRANCH  29  30
ENDBRANCH  28  29
ENDBRANCH  27  28
ENDBRANCH   3  27
TORSDOF 14
ENDMDL
MODEL 3
REMARK VINA RESULT: -8.433068949      4.120      9.920
REMARK  14 active torsions:
REMARK  status: ('A' for Active; 'I' for Inactive)
REMARK    1  A    between atoms: C2_2  and  C3_3 
REMARK    2  A    between atoms: C3_3  and  O1_4 
REMARK    3  A    between atoms: O1_4  and  C4_5 
REMARK       I    between atoms: C4_5  and  N1_7 
REMARK    4  A    between atoms: N1_7  and  C5_9 
REMARK    5  A    between atoms: C5_9  and  C6_10 
REMARK    6  A    between atoms: C6_10  and  C7_11 
REMARK    7  A    between atoms: C7_11  and  C8_12 
REMARK    8  A    between atoms: C8_12  and  C9_13 
REMARK    9  A    between atoms: C9_13  and  C10_14 
REMARK   10  A    between atoms: C10_14  and  N2_15 
REMARK       I    between atoms: N2_15  and  C11_17 
REMARK   11  A    between atoms: N4_19  and  C12_21 
REMARK   12  A    between atoms: C12_21  and  C13_22 
REMARK   13  A    between atoms: C13_22  and  C14_23 
REMARK   14  A    between atoms: C14_23  and  N5_24 
ROOT
HETATM    1  C4  UNL     1      11.004  25.863   8.468  1.00  0.00     0.360 C 
HETATM    2  O2  UNL     1      11.802  26.431   9.246  1.00  0.00    -0.239 OA
HETATM    3  N1  UNL     1       9.973  26.725   7.896  1.00  0.00    -0.337 N 
ATOM      4  H1  UNL     1       9.282  26.336   7.254  1.00  0.00     0.164 HD
ENDROOT
BRANCH   1   5
HETATM    5  O1  UNL     1      11.100  24.545   8.188  1.00  0.00    -0.303 OA
BRANCH   5   6
HETATM    6  C3  UNL     1      12.095  23.790   7.688  1.00  0.00     0.190 C 
BRANCH   6   7
HETATM    7  C2  UNL     1      12.733  24.092   6.362  1.00  0.00    -0.018 C 
HETATM    8  C1  UNL     1      12.042  25.052   5.479  1.00  0.00     0.018 C 
HETATM    9  C15 UNL     1      14.138  24.634   6.754  1.00  0.00     0.012 C 
HETATM   10  C16 UNL     1      14.970  23.379   6.902  1.00  0.00     0.011 C 
HETATM   11  C17 UNL     1      14.585  22.697   5.581  1.00  0.00    -0.036 C 
HETATM   12  C18 UNL     1      15.206  23.450   4.477  1.00  0.00     0.016 C 
HETATM   13  C19 UNL     1      14.907  21.224   5.611  1.00  0.00    -0.002 C 
HETATM   14  C31 UNL     1      13.088  22.789   5.697  1.00  0.00     0.004 C 
HETATM   15  C20 UNL     1      16.374  20.929   5.410  1.00  0.00     0.007 C 
HETATM   16  C28 UNL     1      13.975  20.459   4.736  1.00  0.00    -0.004 C 
HETATM   17  C21 UNL     1      16.449  19.414   5.682  1.00  0.00     0.018 C 
HETATM   18  C22 UNL     1      15.876  18.808   4.439  1.00  0.00     0.021 C 
HETATM   19  C23 UNL     1      16.005  17.290   4.524  1.00  0.00     0.024 C 
HETATM   20  C24 UNL     1      16.783  19.244   3.314  1.00  0.00     0.135 C 
HETATM   21  C27 UNL     1      14.500  19.252   4.088  1.00  0.00     0.006 C 
HETATM   22  O3  UNL     1      17.975  19.090   3.345  1.00  0.00    -0.297 OA
HETATM   23  C25 UNL     1      15.957  19.852   2.245  1.00  0.00     0.079 C 
HETATM   24  C26 UNL     1      14.590  19.315   2.572  1.00  0.00     0.013 C 
HETATM   25  C29 UNL     1      13.231  21.352   3.728  1.00  0.00     0.006 C 
HETATM   26  C30 UNL     1      12.479  22.480   4.401  1.00  0.00     0.006 C 
ENDBRANCH   6   7
ENDBRANCH   5   6
ENDBRANCH   1   5
BRANCH   3  27
HETATM   27  C5  UNL     1       9.931  28.104   8.233  1.00  0.00     0.125 C 
BRANCH  27  28
HETATM   28  C6  UNL     1       8.577  28.696   8.327  1.00  0.00     0.020 C 
BRANCH  28  29
HETATM   29  C7  UNL     1       7.830  28.899   7.064  1.00  0.00     0.002 C 
BRANCH  29  30
HETATM   30  C8  UNL     1       6.944  27.822   6.580  1.00  0.00     0.002 C 
BRANCH  30  31
HETATM   31  C9  UNL     1       7.232  27.476   5.113  1.00  0.00     0.020 C 
BRANCH  31  32
HETATM   32  C10 UNL     1       8.584  28.011   4.683  1.00  0.00     0.122 C 
BRANCH  32  33
HETATM   33  N2  UNL     1       8.725  28.097   3.258  1.00  0.00    -0.365 N 
HETATM   34  C11 UNL     1       8.719  26.924   2.474  1.00  0.00     0.183 C 
HETATM   35  N3  UNL     1       7.642  26.530   1.637  1.00  0.00    -0.064 NA
HETATM   36  N4  UNL     1       9.777  26.170   2.536  1.00  0.00    -0.365 N 
ATOM     37  H4  UNL     1      10.541  26.469   3.143  1.00  0.00     0.162 HD
ATOM     38  H2  UNL     1       8.829  29.007   2.811  1.00  0.00     0.162 HD
BRANCH  36  39
HETATM   39  C12 UNL     1       9.941  24.945   1.808  1.00  0.00     0.124 C 
BRANCH  39  40
HETATM   40  C13 UNL     1       9.836  23.771   2.734  1.00  0.00     0.047 C 
BRANCH  40  41
HETATM   41  C14 UNL     1       8.437  23.233   2.713  1.00  0.00     0.231 C 
BRANCH  41  42
HETATM   42  N5  UNL     1       7.568  23.874   3.679  1.00  0.00    -0.079 N 
ATOM     43  H53 UNL     1       7.694  23.468   4.606  1.00  0.00     0.274 HD
ATOM     44  H52 UNL     1       7.878  24.827   3.870  1.00  0.00     0.274 HD
ATOM     45  H51 UNL     1       6.586  23.858   3.405  1.00  0.00     0.274 HD
ENDBRANCH  41  42
ENDBRANCH  40  41
ENDBRANCH  39  40
ENDBRANCH  36  39
ENDBRANCH  32  33
ENDBRANCH  31  32
ENDBRANCH  30  31
ENDBRANCH  29  30
ENDBRANCH  28  29
ENDBRANCH  27  28
ENDBRANCH   3  27
TORSDOF 14
ENDMDL
MODEL 4
REMARK VINA RESULT: -8.423874603      3.821      9.021
REMARK  14 active torsions:
REMARK  status: ('A' for Active; 'I' for Inactive)
REMARK    1  A    between atoms: C2_2  and  C3_3 
REMARK    2  A    between atoms: C3_3  and  O1_4 
REMARK    3  A    between atoms: O1_4  and  C4_5 
REMARK       I    between atoms: C4_5  and  N1_7 
REMARK    4  A    between atoms: N1_7  and  C5_9 
REMARK    5  A    between atoms: C5_9  and  C6_10 
REMARK    6  A    between atoms: C6_10  and  C7_11 
REMARK    7  A    between atoms: C7_11  and  C8_12 
REMARK    8  A    between atoms: C8_12  and  C9_13 
REMARK    9  A    between atoms: C9_13  and  C10_14 
REMARK   10  A    between atoms: C10_14  and  N2_15 
REMARK       I    between atoms: N2_15  and  C11_17 
REMARK   11  A    between atoms: N4_19  and  C12_21 
REMARK   12  A    between atoms: C12_21  and  C13_22 
REMARK   13  A    between atoms: C13_22  and  C14_23 
REMARK   14  A    between atoms: C14_23  and  N5_24 
ROOT
HETATM    1  C4  UNL     1      12.873  25.372   5.571  1.00  0.00     0.360 C 
HETATM    2  O2  UNL     1      11.689  25.687   5.321  1.00  0.00    -0.239 OA
HETATM    3  N1  UNL     1      13.293  25.580   6.954  1.00  0.00    -0.337 N 
ATOM      4  H1  UNL     1      14.245  25.350   7.238  1.00  0.00     0.164 HD
ENDROOT
BRANCH   1   5
HETATM    5  O1  UNL     1      13.693  24.877   4.619  1.00  0.00    -0.303 OA
BRANCH   5   6
HETATM    6  C3  UNL     1      13.705  23.716   3.940  1.00  0.00     0.190 C 
BRANCH   6   7
HETATM    7  C2  UNL     1      13.396  22.403   4.603  1.00  0.00    -0.018 C 
HETATM    8  C1  UNL     1      11.975  22.070   4.819  1.00  0.00     0.018 C 
HETATM    9  C15 UNL     1      14.058  21.359   3.659  1.00  0.00     0.012 C 
HETATM   10  C16 UNL     1      15.490  21.302   4.147  1.00  0.00     0.011 C 
HETATM   11  C17 UNL     1      15.209  21.136   5.648  1.00  0.00    -0.036 C 
HETATM   12  C18 UNL     1      14.668  19.783   5.867  1.00  0.00     0.016 C 
HETATM   13  C19 UNL     1      16.424  21.480   6.473  1.00  0.00    -0.002 C 
HETATM   14  C31 UNL     1      14.252  22.281   5.835  1.00  0.00     0.004 C 
HETATM   15  C20 UNL     1      17.468  20.390   6.482  1.00  0.00     0.007 C 
HETATM   16  C28 UNL     1      16.027  21.996   7.812  1.00  0.00    -0.004 C 
HETATM   17  C21 UNL     1      18.649  21.065   7.207  1.00  0.00     0.018 C 
HETATM   18  C22 UNL     1      18.229  21.053   8.643  1.00  0.00     0.021 C 
HETATM   19  C23 UNL     1      19.373  21.588   9.497  1.00  0.00     0.024 C 
HETATM   20  C24 UNL     1      18.074  19.598   9.013  1.00  0.00     0.135 C 
HETATM   21  C27 UNL     1      16.930  21.718   8.934  1.00  0.00     0.006 C 
HETATM   22  O3  UNL     1      18.938  18.784   8.821  1.00  0.00    -0.297 OA
HETATM   23  C25 UNL     1      16.736  19.400   9.617  1.00  0.00     0.079 C 
HETATM   24  C26 UNL     1      16.367  20.805  10.011  1.00  0.00     0.013 C 
HETATM   25  C29 UNL     1      14.570  21.660   8.176  1.00  0.00     0.006 C 
HETATM   26  C30 UNL     1      13.587  22.151   7.135  1.00  0.00     0.006 C 
ENDBRANCH   6   7
ENDBRANCH   5   6
ENDBRANCH   1   5
BRANCH   3  27
HETATM   27  C5  UNL     1      12.377  26.103   7.905  1.00  0.00     0.125 C 
BRANCH  27  28
HETATM   28  C6  UNL     1      11.384  25.139   8.432  1.00  0.00     0.020 C 
BRANCH  28  29
HETATM   29  C7  UNL     1       9.983  25.602   8.562  1.00  0.00     0.002 C 
BRANCH  29  30
HETATM   30  C8  UNL     1       9.731  26.989   8.999  1.00  0.00     0.002 C 
BRANCH  30  31
HETATM   31  C9  UNL     1       9.214  27.856   7.842  1.00  0.00     0.020 C 
BRANCH  31  32
HETATM   32  C10 UNL     1       8.433  27.023   6.844  1.00  0.00     0.122 C 
BRANCH  32  33
HETATM   33  N2  UNL     1       8.864  27.222   5.490  1.00  0.00    -0.365 N 
HETATM   34  C11 UNL     1       8.379  26.385   4.464  1.00  0.00     0.183 C 
HETATM   35  N3  UNL     1       7.440  26.793   3.480  1.00  0.00    -0.064 NA
HETATM   36  N4  UNL     1       8.834  25.166   4.434  1.00  0.00    -0.365 N 
ATOM     37  H4  UNL     1       9.508  24.891   5.148  1.00  0.00     0.162 HD
ATOM     38  H2  UNL     1       9.523  27.969   5.270  1.00  0.00     0.162 HD
BRANCH  36  39
HETATM   39  C12 UNL     1       8.450  24.184   3.462  1.00  0.00     0.124 C 
BRANCH  39  40
HETATM   40  C13 UNL     1       9.640  23.751   2.660  1.00  0.00     0.047 C 
BRANCH  40  41
HETATM   41  C14 UNL     1      10.183  24.918   1.892  1.00  0.00     0.231 C 
BRANCH  41  42
HETATM   42  N5  UNL     1      11.553  25.238   2.238  1.00  0.00    -0.079 N 
ATOM     43  H53 UNL     1      11.769  24.931   3.186  1.00  0.00     0.274 HD
ATOM     44  H52 UNL     1      12.205  24.650   1.719  1.00  0.00     0.274 HD
ATOM     45  H51 UNL     1      11.776  26.225   2.116  1.00  0.00     0.274 HD
ENDBRANCH  41  42
ENDBRANCH  40  41
ENDBRANCH  39  40
ENDBRANCH  36  39
ENDBRANCH  32  33
ENDBRANCH  31  32
ENDBRANCH  30  31
ENDBRANCH  29  30
ENDBRANCH  28  29
ENDBRANCH  27  28
ENDBRANCH   3  27
TORSDOF 14
ENDMDL
MODEL 5
REMARK VINA RESULT: -8.363068447      4.046     10.157
REMARK  14 active torsions:
REMARK  status: ('A' for Active; 'I' for Inactive)
REMARK    1  A    between atoms: C2_2  and  C3_3 
REMARK    2  A    between atoms: C3_3  and  O1_4 
REMARK    3  A    between atoms: O1_4  and  C4_5 
REMARK       I    between atoms: C4_5  and  N1_7 
REMARK    4  A    between atoms: N1_7  and  C5_9 
REMARK    5  A    between atoms: C5_9  and  C6_10 
REMARK    6  A    between atoms: C6_10  and  C7_11 
REMARK    7  A    between atoms: C7_11  and  C8_12 
REMARK    8  A    between atoms: C8_12  and  C9_13 
REMARK    9  A    between atoms: C9_13  and  C10_14 
REMARK   10  A    between atoms: C10_14  and  N2_15 
REMARK       I    between atoms: N2_15  and  C11_17 
REMARK   11  A    between atoms: N4_19  and  C12_21 
REMARK   12  A    between atoms: C12_21  and  C13_22 
REMARK   13  A    between atoms: C13_22  and  C14_23 
REMARK   14  A    between atoms: C14_23  and  N5_24 
ROOT
HETATM    1  C4  UNL     1      11.211  24.694   7.868  1.00  0.00     0.360 C 
HETATM    2  O2  UNL     1      10.276  24.685   7.038  1.00  0.00    -0.239 OA
HETATM    3  N1  UNL     1      11.064  25.652   8.960  1.00  0.00    -0.337 N 
ATOM      4  H1  UNL     1      11.786  25.723   9.677  1.00  0.00     0.164 HD
ENDROOT
BRANCH   1   5
HETATM    5  O1  UNL     1      12.275  23.870   7.750  1.00  0.00    -0.303 OA
BRANCH   5   6
HETATM    6  C3  UNL     1      12.509  22.787   6.988  1.00  0.00     0.190 C 
BRANCH   6   7
HETATM    7  C2  UNL     1      13.075  22.900   5.599  1.00  0.00    -0.018 C 
HETATM    8  C1  UNL     1      12.206  23.479   4.557  1.00  0.00     0.018 C 
HETATM    9  C15 UNL     1      14.342  23.781   5.798  1.00  0.00     0.012 C 
HETATM   10  C16 UNL     1      15.409  22.780   6.184  1.00  0.00     0.011 C 
HETATM   11  C17 UNL     1      15.170  21.754   5.067  1.00  0.00    -0.036 C 
HETATM   12  C18 UNL     1      15.628  22.344   3.796  1.00  0.00     0.016 C 
HETATM   13  C19 UNL     1      15.782  20.419   5.409  1.00  0.00    -0.002 C 
HETATM   14  C31 UNL     1      13.685  21.575   5.227  1.00  0.00     0.004 C 
HETATM   15  C20 UNL     1      17.278  20.380   5.213  1.00  0.00     0.007 C 
HETATM   16  C28 UNL     1      15.024  19.308   4.769  1.00  0.00    -0.004 C 
HETATM   17  C21 UNL     1      17.657  19.011   5.812  1.00  0.00     0.018 C 
HETATM   18  C22 UNL     1      17.218  18.039   4.762  1.00  0.00     0.021 C 
HETATM   19  C23 UNL     1      17.649  16.636   5.177  1.00  0.00     0.024 C 
HETATM   20  C24 UNL     1      18.019  18.376   3.529  1.00  0.00     0.135 C 
HETATM   21  C27 UNL     1      15.781  18.113   4.383  1.00  0.00     0.006 C 
HETATM   22  O3  UNL     1      19.218  18.471   3.540  1.00  0.00    -0.297 OA
HETATM   23  C25 UNL     1      17.089  18.552   2.390  1.00  0.00     0.079 C 
HETATM   24  C26 UNL     1      15.857  17.846   2.889  1.00  0.00     0.013 C 
HETATM   25  C29 UNL     1      14.116  19.785   3.622  1.00  0.00     0.006 C 
HETATM   26  C30 UNL     1      13.152  20.867   4.060  1.00  0.00     0.006 C 
ENDBRANCH   6   7
ENDBRANCH   5   6
ENDBRANCH   1   5
BRANCH   3  27
HETATM   27  C5  UNL     1       9.918  26.488   9.024  1.00  0.00     0.125 C 
BRANCH  27  28
HETATM   28  C6  UNL     1      10.093  27.853   8.479  1.00  0.00     0.020 C 
BRANCH  28  29
HETATM   29  C7  UNL     1       8.904  28.737   8.454  1.00  0.00     0.002 C 
BRANCH  29  30
HETATM   30  C8  UNL     1       8.070  28.773   7.236  1.00  0.00     0.002 C 
BRANCH  30  31
HETATM   31  C9  UNL     1       8.130  27.440   6.478  1.00  0.00     0.020 C 
BRANCH  31  32
HETATM   32  C10 UNL     1       8.801  27.610   5.129  1.00  0.00     0.122 C 
BRANCH  32  33
HETATM   33  N2  UNL     1       9.557  26.458   4.730  1.00  0.00    -0.365 N 
HETATM   34  C11 UNL     1       9.059  25.597   3.730  1.00  0.00     0.183 C 
HETATM   35  N3  UNL     1       9.580  25.521   2.411  1.00  0.00    -0.064 NA
HETATM   36  N4  UNL     1       8.058  24.832   4.057  1.00  0.00    -0.365 N 
ATOM     37  H4  UNL     1       7.698  24.900   5.009  1.00  0.00     0.162 HD
ATOM     38  H2  UNL     1      10.455  26.262   5.170  1.00  0.00     0.162 HD
BRANCH  36  39
HETATM   39  C12 UNL     1       7.430  23.899   3.168  1.00  0.00     0.124 C 
BRANCH  39  40
HETATM   40  C13 UNL     1       6.030  24.337   2.859  1.00  0.00     0.047 C 
BRANCH  40  41
HETATM   41  C14 UNL     1       5.881  24.548   1.382  1.00  0.00     0.231 C 
BRANCH  41  42
HETATM   42  N5  UNL     1       6.789  25.546   0.857  1.00  0.00    -0.079 N 
ATOM     43  H53 UNL     1       6.696  26.425   1.365  1.00  0.00     0.274 HD
ATOM     44  H52 UNL     1       7.755  25.318   1.093  1.00  0.00     0.274 HD
ATOM     45  H51 UNL     1       6.684  25.693  -0.147  1.00  0.00     0.274 HD
ENDBRANCH  41  42
ENDBRANCH  40  41
ENDBRANCH  39  40
ENDBRANCH  36  39
ENDBRANCH  32  33
ENDBRANCH  31  32
ENDBRANCH  30  31
ENDBRANCH  29  30
ENDBRANCH  28  29
ENDBRANCH  27  28
ENDBRANCH   3  27
TORSDOF 14
ENDMDL
