MODEL 1
REMARK VINA RESULT: -6.601869447      0.000      0.000
REMARK  5 active torsions:
REMARK  status: ('A' for Active; 'I' for Inactive)
REMARK    1  A    between atoms: C2_2  and  C3_5 
REMARK    2  A    between atoms: C3_5  and  O2_7 
REMARK    3  A    between atoms: O2_7  and  C4_8 
REMARK    4  A    between atoms: C7_14  and  C8_15 
REMARK    5  A    between atoms: C9_16  and  C10_17 
ROOT
HETATM    1  C4  UNL     1      10.858  15.053   1.172  1.00  0.00     0.108 A 
HETATM    2  C5  UNL     1      11.133  15.972   0.158  1.00  0.00     0.127 A 
HETATM    3  N1  UNL     1      12.071  16.831   0.559  1.00  0.00    -0.351 N 
ATOM      4  H1  UNL     1      12.452  17.599   0.008  1.00  0.00     0.166 HD
HETATM    5  C6  UNL     1      12.425  16.511   1.803  1.00  0.00     0.129 A 
HETATM    6  N2  UNL     1      13.407  17.221   2.545  1.00  0.00    -0.082 NA
HETATM    7  C7  UNL     1      11.683  15.401   2.218  1.00  0.00     0.040 A 
ENDROOT
BRANCH   1   8
HETATM    8  O2  UNL     1       9.924  14.010   1.097  1.00  0.00    -0.274 OA
BRANCH   8   9
HETATM    9  C3  UNL     1       8.550  14.292   1.247  1.00  0.00     0.303 C 
HETATM   10  O1  UNL     1       7.972  14.747   0.233  1.00  0.00    -0.261 OA
BRANCH   9  11
HETATM   11  C2  UNL     1       7.805  14.082   2.490  1.00  0.00     0.197 C 
HETATM   12  C1  UNL     1       8.111  12.710   3.027  1.00  0.00     0.061 C 
HETATM   13 CL1  UNL     1       6.046  14.204   2.262  1.00  0.00    -0.091 Cl
HETATM   14 CL2  UNL     1       8.291  15.267   3.753  1.00  0.00    -0.091 Cl
ENDBRANCH   9  11
ENDBRANCH   8   9
ENDBRANCH   1   8
BRANCH   7  15
HETATM   15  C8  UNL     1      11.822  14.765   3.515  1.00  0.00     0.016 C 
HETATM   16  C9  UNL     1      12.110  13.522   3.756  1.00  0.00     0.005 C 
BRANCH  16  17
HETATM   17  C10 UNL     1      12.230  12.961   5.133  1.00  0.00     0.249 C 
HETATM   18  F1  UNL     1      11.086  12.322   5.541  1.00  0.00    -0.251 F 
ENDBRANCH  16  17
ENDBRANCH   7  15
TORSDOF 5
ENDMDL
MODEL 2
REMARK VINA RESULT: -6.570693092      3.288      4.487
REMARK  5 active torsions:
REMARK  status: ('A' for Active; 'I' for Inactive)
REMARK    1  A    between atoms: C2_2  and  C3_5 
REMARK    2  A    between atoms: C3_5  and  O2_7 
REMARK    3  A    between atoms: O2_7  and  C4_8 
REMARK    4  A    between atoms: C7_14  and  C8_15 
REMARK    5  A    between atoms: C9_16  and  C10_17 
ROOT
HETATM    1  C4  UNL     1      10.076  14.951   0.325  1.00  0.00     0.108 A 
HETATM    2  C5  UNL     1       9.279  15.483  -0.690  1.00  0.00     0.127 A 
HETATM    3  N1  UNL     1       8.011  15.110  -0.520  1.00  0.00    -0.351 N 
ATOM      4  H1  UNL     1       7.227  15.363  -1.122  1.00  0.00     0.166 HD
HETATM    5  C6  UNL     1       7.942  14.350   0.572  1.00  0.00     0.129 A 
HETATM    6  N2  UNL     1       6.734  13.777   1.053  1.00  0.00    -0.082 NA
HETATM    7  C7  UNL     1       9.220  14.230   1.126  1.00  0.00     0.040 A 
ENDROOT
BRANCH   1   8
HETATM    8  O2  UNL     1      11.460  15.137   0.459  1.00  0.00    -0.274 OA
BRANCH   8   9
HETATM    9  C3  UNL     1      11.954  16.366   0.944  1.00  0.00     0.303 C 
HETATM   10  O1  UNL     1      12.054  17.286   0.100  1.00  0.00    -0.261 OA
BRANCH   9  11
HETATM   11  C2  UNL     1      12.337  16.598   2.338  1.00  0.00     0.197 C 
HETATM   12  C1  UNL     1      11.190  17.242   3.068  1.00  0.00     0.061 C 
HETATM   13 CL1  UNL     1      13.753  17.662   2.490  1.00  0.00    -0.091 Cl
HETATM   14 CL2  UNL     1      12.703  15.053   3.182  1.00  0.00    -0.091 Cl
ENDBRANCH   9  11
ENDBRANCH   8   9
ENDBRANCH   1   8
BRANCH   7  15
HETATM   15  C8  UNL     1       9.517  13.489   2.338  1.00  0.00     0.016 C 
HETATM   16  C9  UNL     1       9.160  13.786   3.551  1.00  0.00     0.005 C 
BRANCH  16  17
HETATM   17  C10 UNL     1       9.518  12.956   4.737  1.00  0.00     0.249 C 
HETATM   18  F1  UNL     1       8.639  11.921   4.938  1.00  0.00    -0.251 F 
ENDBRANCH  16  17
ENDBRANCH   7  15
TORSDOF 5
ENDMDL
MODEL 3
REMARK VINA RESULT: -6.446585442      2.449      3.608
REMARK  5 active torsions:
REMARK  status: ('A' for Active; 'I' for Inactive)
REMARK    1  A    between atoms: C2_2  and  C3_5 
REMARK    2  A    between atoms: C3_5  and  O2_7 
REMARK    3  A    between atoms: O2_7  and  C4_8 
REMARK    4  A    between atoms: C7_14  and  C8_15 
REMARK    5  A    between atoms: C9_16  and  C10_17 
ROOT
HETATM    1  C4  UNL     1      10.990  14.506   2.036  1.00  0.00     0.108 A 
HETATM    2  C5  UNL     1      11.636  14.114   3.209  1.00  0.00     0.127 A 
HETATM    3  N1  UNL     1      12.521  15.040   3.577  1.00  0.00    -0.351 N 
ATOM      4  H1  UNL     1      13.124  14.998   4.399  1.00  0.00     0.166 HD
HETATM    5  C6  UNL     1      12.482  16.031   2.688  1.00  0.00     0.129 A 
HETATM    6  N2  UNL     1      13.300  17.191   2.769  1.00  0.00    -0.082 NA
HETATM    7  C7  UNL     1      11.532  15.728   1.708  1.00  0.00     0.040 A 
ENDROOT
BRANCH   1   8
HETATM    8  O2  UNL     1      10.000  13.773   1.365  1.00  0.00    -0.274 OA
BRANCH   8   9
HETATM    9  C3  UNL     1       8.658  14.208   1.413  1.00  0.00     0.303 C 
HETATM   10  O1  UNL     1       8.229  14.770   0.380  1.00  0.00    -0.261 OA
BRANCH   9  11
HETATM   11  C2  UNL     1       7.787  14.034   2.577  1.00  0.00     0.197 C 
HETATM   12  C1  UNL     1       8.020  12.672   3.173  1.00  0.00     0.061 C 
HETATM   13 CL1  UNL     1       6.062  14.165   2.165  1.00  0.00    -0.091 Cl
HETATM   14 CL2  UNL     1       8.152  15.243   3.856  1.00  0.00    -0.091 Cl
ENDBRANCH   9  11
ENDBRANCH   8   9
ENDBRANCH   1   8
BRANCH   7  15
HETATM   15  C8  UNL     1      11.208  16.595   0.590  1.00  0.00     0.016 C 
HETATM   16  C9  UNL     1      11.823  16.672  -0.551  1.00  0.00     0.005 C 
BRANCH  16  17
HETATM   17  C10 UNL     1      11.411  17.603  -1.642  1.00  0.00     0.249 C 
HETATM   18  F1  UNL     1      10.326  18.369  -1.296  1.00  0.00    -0.251 F 
ENDBRANCH  16  17
ENDBRANCH   7  15
TORSDOF 5
ENDMDL
MODEL 4
REMARK VINA RESULT: -6.340729048      2.700      4.184
REMARK  5 active torsions:
REMARK  status: ('A' for Active; 'I' for Inactive)
REMARK    1  A    between atoms: C2_2  and  C3_5 
REMARK    2  A    between atoms: C3_5  and  O2_7 
REMARK    3  A    between atoms: O2_7  and  C4_8 
REMARK    4  A    between atoms: C7_14  and  C8_15 
REMARK    5  A    between atoms: C9_16  and  C10_17 
ROOT
HETATM    1  C4  UNL     1      11.159  15.482   2.214  1.00  0.00     0.108 A 
HETATM    2  C5  UNL     1      12.088  16.376   1.679  1.00  0.00     0.127 A 
HETATM    3  N1  UNL     1      11.873  16.535   0.374  1.00  0.00    -0.351 N 
ATOM      4  H1  UNL     1      12.412  17.134  -0.252  1.00  0.00     0.166 HD
HETATM    5  C6  UNL     1      10.835  15.778   0.026  1.00  0.00     0.129 A 
HETATM    6  N2  UNL     1      10.327  15.703  -1.299  1.00  0.00    -0.082 NA
HETATM    7  C7  UNL     1      10.363  15.103   1.157  1.00  0.00     0.040 A 
ENDROOT
BRANCH   1   8
HETATM    8  O2  UNL     1      11.090  15.080   3.556  1.00  0.00    -0.274 OA
BRANCH   8   9
HETATM    9  C3  UNL     1      11.634  13.836   3.939  1.00  0.00     0.303 C 
HETATM   10  O1  UNL     1      12.883  13.752   3.905  1.00  0.00    -0.261 OA
BRANCH   9  11
HETATM   11  C2  UNL     1      10.827  12.688   4.358  1.00  0.00     0.197 C 
HETATM   12  C1  UNL     1      10.861  11.638   3.281  1.00  0.00     0.061 C 
HETATM   13 CL1  UNL     1       9.127  13.119   4.653  1.00  0.00    -0.091 Cl
HETATM   14 CL2  UNL     1      11.483  11.936   5.854  1.00  0.00    -0.091 Cl
ENDBRANCH   9  11
ENDBRANCH   8   9
ENDBRANCH   1   8
BRANCH   7  15
HETATM   15  C8  UNL     1       9.224  14.204   1.154  1.00  0.00     0.016 C 
HETATM   16  C9  UNL     1       7.969  14.522   1.260  1.00  0.00     0.005 C 
BRANCH  16  17
HETATM   17  C10 UNL     1       6.866  13.518   1.248  1.00  0.00     0.249 C 
HETATM   18  F1  UNL     1       5.696  14.016   1.765  1.00  0.00    -0.251 F 
ENDBRANCH  16  17
ENDBRANCH   7  15
TORSDOF 5
ENDMDL
MODEL 5
REMARK VINA RESULT: -6.336040990      2.620      4.259
REMARK  5 active torsions:
REMARK  status: ('A' for Active; 'I' for Inactive)
REMARK    1  A    between atoms: C2_2  and  C3_5 
REMARK    2  A    between atoms: C3_5  and  O2_7 
REMARK    3  A    between atoms: O2_7  and  C4_8 
REMARK    4  A    between atoms: C7_14  and  C8_15 
REMARK    5  A    between atoms: C9_16  and  C10_17 
ROOT
HETATM    1  C4  UNL     1      11.200  15.617   2.031  1.00  0.00     0.108 A 
HETATM    2  C5  UNL     1      12.092  16.498   1.417  1.00  0.00     0.127 A 
HETATM    3  N1  UNL     1      11.826  16.588   0.114  1.00  0.00    -0.351 N 
ATOM      4  H1  UNL     1      12.330  17.163  -0.560  1.00  0.00     0.166 HD
HETATM    5  C6  UNL     1      10.789  15.797  -0.155  1.00  0.00     0.129 A 
HETATM    6  N2  UNL     1      10.234  15.647  -1.455  1.00  0.00    -0.082 NA
HETATM    7  C7  UNL     1      10.372  15.173   1.025  1.00  0.00     0.040 A 
ENDROOT
BRANCH   1   8
HETATM    8  O2  UNL     1      11.188  15.283   3.393  1.00  0.00    -0.274 OA
BRANCH   8   9
HETATM    9  C3  UNL     1      11.826  14.102   3.826  1.00  0.00     0.303 C 
HETATM   10  O1  UNL     1      13.078  14.126   3.827  1.00  0.00    -0.261 OA
BRANCH   9  11
HETATM   11  C2  UNL     1      11.110  12.899   4.254  1.00  0.00     0.197 C 
HETATM   12  C1  UNL     1      11.730  12.376   5.521  1.00  0.00     0.061 C 
HETATM   13 CL1  UNL     1      11.164  11.601   3.039  1.00  0.00    -0.091 Cl
HETATM   14 CL2  UNL     1       9.386  13.257   4.616  1.00  0.00    -0.091 Cl
ENDBRANCH   9  11
ENDBRANCH   8   9
ENDBRANCH   1   8
BRANCH   7  15
HETATM   15  C8  UNL     1       9.250  14.256   1.110  1.00  0.00     0.016 C 
HETATM   16  C9  UNL     1       7.988  14.560   1.170  1.00  0.00     0.005 C 
BRANCH  16  17
HETATM   17  C10 UNL     1       6.904  13.538   1.257  1.00  0.00     0.249 C 
HETATM   18  F1  UNL     1       5.780  14.018   1.881  1.00  0.00    -0.251 F 
ENDBRANCH  16  17
ENDBRANCH   7  15
TORSDOF 5
ENDMDL
