MODEL 1
REMARK VINA RESULT: -6.931037198      0.000      0.000
REMARK  4 active torsions:
REMARK  status: ('A' for Active; 'I' for Inactive)
REMARK    1  A    between atoms: C2_2  and  C3_3 
REMARK    2  A    between atoms: C4_8  and  C5_9 
REMARK    3  A    between atoms: C5_9  and  C6_10 
REMARK    4  A    between atoms: C10_16  and  O1_17 
ROOT
HETATM    1  C6  UNL     1      12.545  13.239   4.021  1.00  0.00    -0.024 A 
HETATM    2  C7  UNL     1      13.814  13.006   4.464  1.00  0.00     0.053 A 
HETATM    3  C8  UNL     1      14.328  11.713   4.441  1.00  0.00     0.141 A 
HETATM    4  F1  UNL     1      15.591  11.499   4.885  1.00  0.00    -0.204 F 
HETATM    5  C9  UNL     1      13.572  10.642   3.975  1.00  0.00     0.107 A 
HETATM    6 CL1  UNL     1      14.230   9.003   3.948  1.00  0.00    -0.078 Cl
HETATM    7  C10 UNL     1      12.285  10.879   3.527  1.00  0.00     0.112 A 
HETATM    8  C11 UNL     1      11.802  12.164   3.559  1.00  0.00     0.075 A 
HETATM    9 CL2  UNL     1      10.152  12.416   2.975  1.00  0.00    -0.081 Cl
ENDROOT
BRANCH   1  10
HETATM   10  C5  UNL     1      11.892  14.566   3.996  1.00  0.00     0.118 C 
BRANCH  10  11
HETATM   11  C4  UNL     1      12.209  15.317   2.766  1.00  0.00     0.101 A 
HETATM   12  N2  UNL     1      13.377  15.910   2.461  1.00  0.00    -0.287 N 
HETATM   13  N1  UNL     1      13.290  16.496   1.256  1.00  0.00    -0.288 N 
ATOM     14  H2  UNL     1      14.205  15.914   3.057  1.00  0.00     0.188 HD
HETATM   15  C3  UNL     1      12.070  16.283   0.784  1.00  0.00     0.096 A 
ATOM     16  H1  UNL     1      14.032  17.015   0.787  1.00  0.00     0.188 HD
HETATM   17  N3  UNL     1      11.410  15.567   1.698  1.00  0.00    -0.333 N 
ATOM     18  H3  UNL     1      10.444  15.252   1.605  1.00  0.00     0.168 HD
BRANCH  15  19
HETATM   19  C2  UNL     1      11.548  16.766  -0.534  1.00  0.00     0.073 C 
HETATM   20  C1  UNL     1      10.406  15.929  -1.007  1.00  0.00     0.013 C 
ENDBRANCH  15  19
ENDBRANCH  10  11
ENDBRANCH   1  10
BRANCH   7  21
HETATM   21  O1  UNL     1      11.507   9.822   3.053  1.00  0.00    -0.357 OA
ATOM     22  H1  UNL     1      11.924   9.018   2.767  1.00  0.00     0.217 HD
ENDBRANCH   7  21
TORSDOF 4
ENDMDL
MODEL 2
REMARK VINA RESULT: -6.927872374      1.769      2.015
REMARK  4 active torsions:
REMARK  status: ('A' for Active; 'I' for Inactive)
REMARK    1  A    between atoms: C2_2  and  C3_3 
REMARK    2  A    between atoms: C4_8  and  C5_9 
REMARK    3  A    between atoms: C5_9  and  C6_10 
REMARK    4  A    between atoms: C10_16  and  O1_17 
ROOT
HETATM    1  C6  UNL     1      11.598  14.094   3.877  1.00  0.00    -0.024 A 
HETATM    2  C7  UNL     1      12.605  13.181   3.992  1.00  0.00     0.053 A 
HETATM    3  C8  UNL     1      12.304  11.823   4.040  1.00  0.00     0.141 A 
HETATM    4  F1  UNL     1      13.317  10.929   4.155  1.00  0.00    -0.204 F 
HETATM    5  C9  UNL     1      10.991  11.370   3.973  1.00  0.00     0.107 A 
HETATM    6 CL1  UNL     1      10.616   9.645   4.033  1.00  0.00    -0.078 Cl
HETATM    7  C10 UNL     1       9.971  12.297   3.856  1.00  0.00     0.112 A 
HETATM    8  C11 UNL     1      10.294  13.631   3.811  1.00  0.00     0.075 A 
HETATM    9 CL2  UNL     1       8.955  14.776   3.660  1.00  0.00    -0.081 Cl
ENDROOT
BRANCH   1  10
HETATM   10  C5  UNL     1      11.793  15.560   3.816  1.00  0.00     0.118 C 
BRANCH  10  11
HETATM   11  C4  UNL     1      12.375  15.989   2.529  1.00  0.00     0.101 A 
HETATM   12  N2  UNL     1      13.675  16.208   2.264  1.00  0.00    -0.287 N 
HETATM   13  N1  UNL     1      13.822  16.586   0.985  1.00  0.00    -0.288 N 
ATOM     14  H2  UNL     1      14.435  16.102   2.936  1.00  0.00     0.188 HD
HETATM   15  C3  UNL     1      12.621  16.612   0.424  1.00  0.00     0.096 A 
ATOM     16  H1  UNL     1      14.703  16.814   0.525  1.00  0.00     0.188 HD
HETATM   17  N3  UNL     1      11.739  16.250   1.359  1.00  0.00    -0.333 N 
ATOM     18  H3  UNL     1      10.732  16.179   1.213  1.00  0.00     0.168 HD
BRANCH  15  19
HETATM   19  C2  UNL     1      12.330  16.983  -0.997  1.00  0.00     0.073 C 
HETATM   20  C1  UNL     1      10.885  17.308  -1.190  1.00  0.00     0.013 C 
ENDBRANCH  15  19
ENDBRANCH  10  11
ENDBRANCH   1  10
BRANCH   7  21
HETATM   21  O1  UNL     1       8.645  11.868   3.786  1.00  0.00    -0.357 OA
ATOM     22  H1  UNL     1       8.127  12.051   3.011  1.00  0.00     0.217 HD
ENDBRANCH   7  21
TORSDOF 4
ENDMDL
MODEL 3
REMARK VINA RESULT: -6.901134193      4.386      6.257
REMARK  4 active torsions:
REMARK  status: ('A' for Active; 'I' for Inactive)
REMARK    1  A    between atoms: C2_2  and  C3_3 
REMARK    2  A    between atoms: C4_8  and  C5_9 
REMARK    3  A    between atoms: C5_9  and  C6_10 
REMARK    4  A    between atoms: C10_16  and  O1_17 
ROOT
HETATM    1  C6  UNL     1       9.899  15.162   2.492  1.00  0.00    -0.024 A 
HETATM    2  C7  UNL     1      11.039  15.847   2.790  1.00  0.00     0.053 A 
HETATM    3  C8  UNL     1      11.831  16.351   1.762  1.00  0.00     0.141 A 
HETATM    4  F1  UNL     1      12.962  17.031   2.076  1.00  0.00    -0.204 F 
HETATM    5  C9  UNL     1      11.486  16.171   0.428  1.00  0.00     0.107 A 
HETATM    6 CL1  UNL     1      12.494  16.813  -0.872  1.00  0.00    -0.078 Cl
HETATM    7  C10 UNL     1      10.329  15.476   0.126  1.00  0.00     0.112 A 
HETATM    8  C11 UNL     1       9.564  14.989   1.158  1.00  0.00     0.075 A 
HETATM    9 CL2  UNL     1       8.095  14.107   0.722  1.00  0.00    -0.081 Cl
ENDROOT
BRANCH   1  10
HETATM   10  C5  UNL     1       8.978  14.581   3.494  1.00  0.00     0.118 C 
BRANCH  10  11
HETATM   11  C4  UNL     1       9.319  13.181   3.815  1.00  0.00     0.101 A 
HETATM   12  N2  UNL     1      10.309  12.447   3.276  1.00  0.00    -0.287 N 
HETATM   13  N1  UNL     1      10.312  11.219   3.818  1.00  0.00    -0.288 N 
ATOM     14  H2  UNL     1      10.959  12.775   2.562  1.00  0.00     0.188 HD
HETATM   15  C3  UNL     1       9.328  11.159   4.704  1.00  0.00     0.096 A 
ATOM     16  H1  UNL     1      10.958  10.464   3.588  1.00  0.00     0.188 HD
HETATM   17  N3  UNL     1       8.723  12.349   4.706  1.00  0.00    -0.333 N 
ATOM     18  H3  UNL     1       7.927  12.597   5.293  1.00  0.00     0.168 HD
BRANCH  15  19
HETATM   19  C2  UNL     1       8.978   9.966   5.539  1.00  0.00     0.073 C 
HETATM   20  C1  UNL     1       8.742   8.760   4.691  1.00  0.00     0.013 C 
ENDBRANCH  15  19
ENDBRANCH  10  11
ENDBRANCH   1  10
BRANCH   7  21
HETATM   21  O1  UNL     1       9.959  15.282  -1.206  1.00  0.00    -0.357 OA
ATOM     22  H1  UNL     1       9.347  14.592  -1.432  1.00  0.00     0.217 HD
ENDBRANCH   7  21
TORSDOF 4
ENDMDL
MODEL 4
REMARK VINA RESULT: -6.891700622      3.884      5.983
REMARK  4 active torsions:
REMARK  status: ('A' for Active; 'I' for Inactive)
REMARK    1  A    between atoms: C2_2  and  C3_3 
REMARK    2  A    between atoms: C4_8  and  C5_9 
REMARK    3  A    between atoms: C5_9  and  C6_10 
REMARK    4  A    between atoms: C10_16  and  O1_17 
ROOT
HETATM    1  C6  UNL     1      10.044  15.244   2.558  1.00  0.00    -0.024 A 
HETATM    2  C7  UNL     1      11.166  15.970   2.830  1.00  0.00     0.053 A 
HETATM    3  C8  UNL     1      11.940  16.464   1.784  1.00  0.00     0.141 A 
HETATM    4  F1  UNL     1      13.052  17.185   2.072  1.00  0.00    -0.204 F 
HETATM    5  C9  UNL     1      11.595  16.233   0.457  1.00  0.00     0.107 A 
HETATM    6 CL1  UNL     1      12.580  16.863  -0.867  1.00  0.00    -0.078 Cl
HETATM    7  C10 UNL     1      10.456  15.497   0.182  1.00  0.00     0.112 A 
HETATM    8  C11 UNL     1       9.710  15.021   1.232  1.00  0.00     0.075 A 
HETATM    9 CL2  UNL     1       8.265  14.085   0.830  1.00  0.00    -0.081 Cl
ENDROOT
BRANCH   1  10
HETATM   10  C5  UNL     1       9.144  14.669   3.582  1.00  0.00     0.118 C 
BRANCH  10  11
HETATM   11  C4  UNL     1       9.429  13.242   3.833  1.00  0.00     0.101 A 
HETATM   12  N2  UNL     1       8.658  12.372   4.509  1.00  0.00    -0.287 N 
HETATM   13  N1  UNL     1       9.245  11.164   4.529  1.00  0.00    -0.288 N 
ATOM     14  H2  UNL     1       7.763  12.597   4.942  1.00  0.00     0.188 HD
HETATM   15  C3  UNL     1      10.390  11.254   3.867  1.00  0.00     0.096 A 
ATOM     16  H1  UNL     1       8.874  10.326   4.975  1.00  0.00     0.188 HD
HETATM   17  N3  UNL     1      10.505  12.514   3.443  1.00  0.00    -0.333 N 
ATOM     18  H3  UNL     1      11.291  12.877   2.902  1.00  0.00     0.168 HD
BRANCH  15  19
HETATM   19  C2  UNL     1      11.360  10.134   3.649  1.00  0.00     0.073 C 
HETATM   20  C1  UNL     1      12.765  10.636   3.585  1.00  0.00     0.013 C 
ENDBRANCH  15  19
ENDBRANCH  10  11
ENDBRANCH   1  10
BRANCH   7  21
HETATM   21  O1  UNL     1      10.088  15.252  -1.141  1.00  0.00    -0.357 OA
ATOM     22  H1  UNL     1       9.203  14.973  -1.343  1.00  0.00     0.217 HD
ENDBRANCH   7  21
TORSDOF 4
ENDMDL
MODEL 5
REMARK VINA RESULT: -6.808190760      3.649      6.025
REMARK  4 active torsions:
REMARK  status: ('A' for Active; 'I' for Inactive)
REMARK    1  A    between atoms: C2_2  and  C3_3 
REMARK    2  A    between atoms: C4_8  and  C5_9 
REMARK    3  A    between atoms: C5_9  and  C6_10 
REMARK    4  A    between atoms: C10_16  and  O1_17 
ROOT
HETATM    1  C6  UNL     1      10.932  14.684   2.518  1.00  0.00    -0.024 A 
HETATM    2  C7  UNL     1      11.986  15.537   2.383  1.00  0.00     0.053 A 
HETATM    3  C8  UNL     1      12.107  16.311   1.232  1.00  0.00     0.141 A 
HETATM    4  F1  UNL     1      13.162  17.154   1.114  1.00  0.00    -0.204 F 
HETATM    5  C9  UNL     1      11.171  16.233   0.208  1.00  0.00     0.107 A 
HETATM    6 CL1  UNL     1      11.328  17.218  -1.251  1.00  0.00    -0.078 Cl
HETATM    7  C10 UNL     1      10.100  15.368   0.345  1.00  0.00     0.112 A 
HETATM    8  C11 UNL     1      10.004  14.616   1.491  1.00  0.00     0.075 A 
HETATM    9 CL2  UNL     1       8.619  13.524   1.620  1.00  0.00    -0.081 Cl
ENDROOT
BRANCH   1  10
HETATM   10  C5  UNL     1      10.696  13.814   3.692  1.00  0.00     0.118 C 
BRANCH  10  11
HETATM   11  C4  UNL     1      11.482  12.566   3.624  1.00  0.00     0.101 A 
HETATM   12  N2  UNL     1      11.126  11.420   3.017  1.00  0.00    -0.287 N 
HETATM   13  N1  UNL     1      12.097  10.505   3.166  1.00  0.00    -0.288 N 
ATOM     14  H2  UNL     1      10.249  11.269   2.518  1.00  0.00     0.188 HD
HETATM   15  C3  UNL     1      13.077  11.058   3.866  1.00  0.00     0.096 A 
ATOM     16  H1  UNL     1      12.083   9.552   2.803  1.00  0.00     0.188 HD
HETATM   17  N3  UNL     1      12.708  12.310   4.147  1.00  0.00    -0.333 N 
ATOM     18  H3  UNL     1      13.267  12.978   4.677  1.00  0.00     0.168 HD
BRANCH  15  19
HETATM   19  C2  UNL     1      14.355  10.384   4.261  1.00  0.00     0.073 C 
HETATM   20  C1  UNL     1      15.231  11.297   5.052  1.00  0.00     0.013 C 
ENDBRANCH  15  19
ENDBRANCH  10  11
ENDBRANCH   1  10
BRANCH   7  21
HETATM   21  O1  UNL     1       9.146  15.272  -0.668  1.00  0.00    -0.357 OA
ATOM     22  H1  UNL     1       8.243  15.507  -0.493  1.00  0.00     0.217 HD
ENDBRANCH   7  21
TORSDOF 4
ENDMDL
