MODEL 1
REMARK VINA RESULT: -6.862300582      0.000      0.000
REMARK  3 active torsions:
REMARK  status: ('A' for Active; 'I' for Inactive)
REMARK    1  A    between atoms: C3_5  and  C4_6 
REMARK    2  A    between atoms: C4_6  and  C5_7 
REMARK    3  A    between atoms: C5_7  and  C6_8 
ROOT
HETATM    1  C6  UNL     1       9.580  14.653   1.008  1.00  0.00     0.083 C 
HETATM    2  C7  UNL     1       9.061  15.313  -0.228  1.00  0.00     0.031 C 
HETATM    3  C8  UNL     1      10.233  15.513  -1.175  1.00  0.00     0.089 C 
HETATM    4  C9  UNL     1      11.167  16.566  -0.634  1.00  0.00     0.300 C 
HETATM    5  F1  UNL     1      12.366  16.523  -1.319  1.00  0.00    -0.198 F 
HETATM    6  F2  UNL     1      10.636  17.824  -0.837  1.00  0.00    -0.198 F 
HETATM    7  C10 UNL     1      11.433  16.304   0.802  1.00  0.00     0.144 C 
HETATM    8  N2  UNL     1      12.516  16.802   1.348  1.00  0.00    -0.384 N 
ATOM      9  H21 UNL     1      12.698  16.621   2.336  1.00  0.00     0.157 HD
ATOM     10  H22 UNL     1      13.144  17.357   0.767  1.00  0.00     0.157 HD
HETATM   11  N3  UNL     1      10.558  15.532   1.611  1.00  0.00    -0.370 N 
ATOM     12  H3  UNL     1      10.619  15.598   2.627  1.00  0.00     0.161 HD
ENDROOT
BRANCH   1  13
HETATM   13  C5  UNL     1       8.512  14.265   1.979  1.00  0.00     0.031 C 
BRANCH  13  14
HETATM   14  C4  UNL     1       8.926  14.550   3.395  1.00  0.00     0.059 C 
BRANCH  14  15
HETATM   15  C3  UNL     1       9.487  13.316   4.068  1.00  0.00     0.016 A 
HETATM   16  N1  UNL     1       8.767  12.277   4.342  1.00  0.00    -0.357 N 
HETATM   17  C2  UNL     1       9.311  11.227   4.931  1.00  0.00     0.046 A 
ATOM     18  H1  UNL     1       7.776  12.268   4.102  1.00  0.00     0.166 HD
HETATM   19  C1  UNL     1       8.713   9.920   5.351  1.00  0.00     0.076 C 
HETATM   20  S1  UNL     1      10.929  11.712   5.121  1.00  0.00    -0.087 SA
HETATM   21  C11 UNL     1      10.815  13.283   4.411  1.00  0.00     0.076 A 
ENDBRANCH  14  15
ENDBRANCH  13  14
ENDBRANCH   1  13
TORSDOF 3
ENDMDL
MODEL 2
REMARK VINA RESULT: -6.826189152      1.017      1.424
REMARK  3 active torsions:
REMARK  status: ('A' for Active; 'I' for Inactive)
REMARK    1  A    between atoms: C3_5  and  C4_6 
REMARK    2  A    between atoms: C4_6  and  C5_7 
REMARK    3  A    between atoms: C5_7  and  C6_8 
ROOT
HETATM    1  C6  UNL     1       9.530  14.712   0.980  1.00  0.00     0.083 C 
HETATM    2  C7  UNL     1       9.040  15.373  -0.268  1.00  0.00     0.031 C 
HETATM    3  C8  UNL     1      10.227  15.537  -1.204  1.00  0.00     0.089 C 
HETATM    4  C9  UNL     1      11.179  16.573  -0.661  1.00  0.00     0.300 C 
HETATM    5  F1  UNL     1      12.384  16.496  -1.331  1.00  0.00    -0.198 F 
HETATM    6  F2  UNL     1      10.680  17.841  -0.880  1.00  0.00    -0.198 F 
HETATM    7  C10 UNL     1      11.422  16.318   0.781  1.00  0.00     0.144 C 
HETATM    8  N2  UNL     1      12.510  16.795   1.335  1.00  0.00    -0.384 N 
ATOM      9  H21 UNL     1      12.677  16.619   2.326  1.00  0.00     0.157 HD
ATOM     10  H22 UNL     1      13.158  17.330   0.757  1.00  0.00     0.157 HD
HETATM   11  N3  UNL     1      10.520  15.574   1.586  1.00  0.00    -0.370 N 
ATOM     12  H3  UNL     1      10.572  15.647   2.602  1.00  0.00     0.161 HD
ENDROOT
BRANCH   1  13
HETATM   13  C5  UNL     1       8.441  14.358   1.941  1.00  0.00     0.031 C 
BRANCH  13  14
HETATM   14  C4  UNL     1       8.830  14.686   3.355  1.00  0.00     0.059 C 
BRANCH  14  15
HETATM   15  C3  UNL     1       9.387  13.474   4.072  1.00  0.00     0.016 A 
HETATM   16  N1  UNL     1      10.624  13.385   4.442  1.00  0.00    -0.357 N 
HETATM   17  C2  UNL     1      11.054  12.302   5.065  1.00  0.00     0.046 A 
ATOM     18  H1  UNL     1      11.268  14.151   4.252  1.00  0.00     0.166 HD
HETATM   19  C1  UNL     1      12.411  11.949   5.591  1.00  0.00     0.076 C 
HETATM   20  S1  UNL     1       9.653  11.343   5.144  1.00  0.00    -0.087 SA
HETATM   21  C11 UNL     1       8.558  12.417   4.349  1.00  0.00     0.076 A 
ENDBRANCH  14  15
ENDBRANCH  13  14
ENDBRANCH   1  13
TORSDOF 3
ENDMDL
MODEL 3
REMARK VINA RESULT: -6.717848823      1.455      1.687
REMARK  3 active torsions:
REMARK  status: ('A' for Active; 'I' for Inactive)
REMARK    1  A    between atoms: C3_5  and  C4_6 
REMARK    2  A    between atoms: C4_6  and  C5_7 
REMARK    3  A    between atoms: C5_7  and  C6_8 
ROOT
HETATM    1  C6  UNL     1       9.889  14.728   1.264  1.00  0.00     0.083 C 
HETATM    2  C7  UNL     1       9.269  15.296   0.027  1.00  0.00     0.031 C 
HETATM    3  C8  UNL     1      10.369  15.461  -1.009  1.00  0.00     0.089 C 
HETATM    4  C9  UNL     1      11.308  16.569  -0.601  1.00  0.00     0.300 C 
HETATM    5  F1  UNL     1      12.458  16.510  -1.362  1.00  0.00    -0.198 F 
HETATM    6  F2  UNL     1      10.729  17.798  -0.844  1.00  0.00    -0.198 F 
HETATM    7  C10 UNL     1      11.677  16.406   0.828  1.00  0.00     0.144 C 
HETATM    8  N2  UNL     1      12.779  16.963   1.265  1.00  0.00    -0.384 N 
ATOM      9  H21 UNL     1      13.033  16.850   2.247  1.00  0.00     0.157 HD
ATOM     10  H22 UNL     1      13.352  17.494   0.609  1.00  0.00     0.157 HD
HETATM   11  N3  UNL     1      10.880  15.667   1.741  1.00  0.00    -0.370 N 
ATOM     12  H3  UNL     1      11.008  15.800   2.744  1.00  0.00     0.161 HD
ENDROOT
BRANCH   1  13
HETATM   13  C5  UNL     1       8.899  14.379   2.328  1.00  0.00     0.031 C 
BRANCH  13  14
HETATM   14  C4  UNL     1       8.946  12.914   2.661  1.00  0.00     0.059 C 
BRANCH  14  15
HETATM   15  C3  UNL     1      10.228  12.549   3.378  1.00  0.00     0.016 A 
HETATM   16  N1  UNL     1      11.007  11.595   2.982  1.00  0.00    -0.357 N 
HETATM   17  C2  UNL     1      12.114  11.321   3.648  1.00  0.00     0.046 A 
ATOM     18  H1  UNL     1      10.766  11.054   2.152  1.00  0.00     0.166 HD
HETATM   19  C1  UNL     1      13.172  10.288   3.407  1.00  0.00     0.076 C 
HETATM   20  S1  UNL     1      12.075  12.459   4.910  1.00  0.00    -0.087 SA
HETATM   21  C11 UNL     1      10.593  13.249   4.500  1.00  0.00     0.076 A 
ENDBRANCH  14  15
ENDBRANCH  13  14
ENDBRANCH   1  13
TORSDOF 3
ENDMDL
MODEL 4
REMARK VINA RESULT: -6.671350614      2.618      3.637
REMARK  3 active torsions:
REMARK  status: ('A' for Active; 'I' for Inactive)
REMARK    1  A    between atoms: C3_5  and  C4_6 
REMARK    2  A    between atoms: C4_6  and  C5_7 
REMARK    3  A    between atoms: C5_7  and  C6_8 
ROOT
HETATM    1  C6  UNL     1      10.612  14.639   1.926  1.00  0.00     0.083 C 
HETATM    2  C7  UNL     1      11.833  15.500   1.892  1.00  0.00     0.031 C 
HETATM    3  C8  UNL     1      11.471  16.792   1.177  1.00  0.00     0.089 C 
HETATM    4  C9  UNL     1      11.241  16.528  -0.290  1.00  0.00     0.300 C 
HETATM    5  F1  UNL     1      10.617  17.617  -0.868  1.00  0.00    -0.198 F 
HETATM    6  F2  UNL     1      12.447  16.367  -0.941  1.00  0.00    -0.198 F 
HETATM    7  C10 UNL     1      10.365  15.341  -0.450  1.00  0.00     0.144 C 
HETATM    8  N2  UNL     1       9.693  15.194  -1.566  1.00  0.00    -0.384 N 
ATOM      9  H21 UNL     1       9.091  14.378  -1.676  1.00  0.00     0.157 HD
ATOM     10  H22 UNL     1       9.795  15.901  -2.294  1.00  0.00     0.157 HD
HETATM   11  N3  UNL     1      10.224  14.356   0.562  1.00  0.00    -0.370 N 
ATOM     12  H3  UNL     1       9.845  13.439   0.325  1.00  0.00     0.161 HD
ENDROOT
BRANCH   1  13
HETATM   13  C5  UNL     1      10.779  13.387   2.725  1.00  0.00     0.031 C 
BRANCH  13  14
HETATM   14  C4  UNL     1      11.440  13.663   4.046  1.00  0.00     0.059 C 
BRANCH  14  15
HETATM   15  C3  UNL     1      12.667  12.798   4.244  1.00  0.00     0.016 A 
HETATM   16  N1  UNL     1      13.815  13.278   4.596  1.00  0.00    -0.357 N 
HETATM   17  C2  UNL     1      14.852  12.475   4.754  1.00  0.00     0.046 A 
ATOM     18  H1  UNL     1      13.920  14.280   4.753  1.00  0.00     0.166 HD
HETATM   19  C1  UNL     1      16.266  12.767   5.149  1.00  0.00     0.076 C 
HETATM   20  S1  UNL     1      14.193  10.951   4.389  1.00  0.00    -0.087 SA
HETATM   21  C11 UNL     1      12.573  11.444   4.044  1.00  0.00     0.076 A 
ENDBRANCH  14  15
ENDBRANCH  13  14
ENDBRANCH   1  13
TORSDOF 3
ENDMDL
MODEL 5
REMARK VINA RESULT: -6.591948475      3.461      4.897
REMARK  3 active torsions:
REMARK  status: ('A' for Active; 'I' for Inactive)
REMARK    1  A    between atoms: C3_5  and  C4_6 
REMARK    2  A    between atoms: C4_6  and  C5_7 
REMARK    3  A    between atoms: C5_7  and  C6_8 
ROOT
HETATM    1  C6  UNL     1      10.014  13.430   3.529  1.00  0.00     0.083 C 
HETATM    2  C7  UNL     1       8.657  13.682   4.105  1.00  0.00     0.031 C 
HETATM    3  C8  UNL     1       7.629  13.148   3.122  1.00  0.00     0.089 C 
HETATM    4  C9  UNL     1       7.599  14.006   1.882  1.00  0.00     0.300 C 
HETATM    5  F1  UNL     1       6.908  13.354   0.880  1.00  0.00    -0.198 F 
HETATM    6  F2  UNL     1       6.924  15.183   2.133  1.00  0.00    -0.198 F 
HETATM    7  C10 UNL     1       8.986  14.254   1.416  1.00  0.00     0.144 C 
HETATM    8  N2  UNL     1       9.186  14.584   0.163  1.00  0.00    -0.384 N 
ATOM      9  H21 UNL     1      10.139  14.755  -0.156  1.00  0.00     0.157 HD
ATOM     10  H22 UNL     1       8.378  14.662  -0.455  1.00  0.00     0.157 HD
HETATM   11  N3  UNL     1      10.110  14.147   2.277  1.00  0.00    -0.370 N 
ATOM     12  H3  UNL     1      10.994  14.579   2.009  1.00  0.00     0.161 HD
ENDROOT
BRANCH   1  13
HETATM   13  C5  UNL     1      11.136  13.777   4.454  1.00  0.00     0.031 C 
BRANCH  13  14
HETATM   14  C4  UNL     1      12.433  13.930   3.710  1.00  0.00     0.059 C 
BRANCH  14  15
HETATM   15  C3  UNL     1      13.480  12.962   4.218  1.00  0.00     0.016 A 
HETATM   16  N1  UNL     1      14.680  13.328   4.535  1.00  0.00    -0.357 N 
HETATM   17  C2  UNL     1      15.553  12.439   4.972  1.00  0.00     0.046 A 
ATOM     18  H1  UNL     1      14.953  14.307   4.447  1.00  0.00     0.166 HD
HETATM   19  C1  UNL     1      16.979  12.594   5.399  1.00  0.00     0.076 C 
HETATM   20  S1  UNL     1      14.653  10.997   4.942  1.00  0.00    -0.087 SA
HETATM   21  C11 UNL     1      13.159  11.635   4.352  1.00  0.00     0.076 A 
ENDBRANCH  14  15
ENDBRANCH  13  14
ENDBRANCH   1  13
TORSDOF 3
ENDMDL
