MODEL 1
REMARK VINA RESULT: -8.333798850      0.000      0.000
REMARK  3 active torsions:
REMARK  status: ('A' for Active; 'I' for Inactive)
REMARK    1  A    between atoms: C1_2  and  C2_3 
REMARK       I    between atoms: C1_2  and  N3_14 
REMARK    2  A    between atoms: C2_3  and  N1_4 
REMARK       I    between atoms: N1_4  and  C3_6 
REMARK       I    between atoms: C3_6  and  N2_8 
REMARK    3  A    between atoms: N3_14  and  C9_16 
ROOT
HETATM    1  O1  UNL     1      15.483 -14.074 -57.745  1.00  0.00    -0.272 OA
HETATM    2  C1  UNL     1      16.622 -14.122 -57.214  1.00  0.00     0.235 C 
HETATM    3  N3  UNL     1      16.852 -13.659 -55.887  1.00  0.00    -0.352 N 
ATOM      4  H3  UNL     1      17.798 -13.726 -55.513  1.00  0.00     0.163 HD
ENDROOT
BRANCH   2   5
HETATM    5  C2  UNL     1      17.747 -14.677 -57.994  1.00  0.00     0.227 C 
BRANCH   5   6
HETATM    6  N1  UNL     1      17.844 -16.092 -57.740  1.00  0.00    -0.334 N 
HETATM    7  C3  UNL     1      17.735 -17.011 -58.799  1.00  0.00     0.318 C 
HETATM    8  O2  UNL     1      17.550 -16.570 -59.975  1.00  0.00    -0.247 OA
HETATM    9  N2  UNL     1      17.830 -18.406 -58.557  1.00  0.00    -0.334 N 
HETATM   10  C4  UNL     1      18.038 -18.885 -57.240  1.00  0.00     0.127 C 
HETATM   11  C8  UNL     1      17.709 -19.322 -59.666  1.00  0.00     0.127 C 
HETATM   12  C5  UNL     1      18.354 -20.309 -57.073  1.00  0.00     0.020 C 
HETATM   13  C6  UNL     1      18.605 -21.108 -58.290  1.00  0.00     0.003 C 
HETATM   14  C7  UNL     1      18.866 -20.291 -59.532  1.00  0.00     0.020 C 
ATOM     15  H1  UNL     1      17.993 -16.428 -56.789  1.00  0.00     0.164 HD
ENDBRANCH   5   6
ENDBRANCH   2   5
BRANCH   3  16
HETATM   16  C9  UNL     1      15.834 -13.106 -55.051  1.00  0.00     0.107 C 
HETATM   17  C10 UNL     1      15.556 -13.878 -53.895  1.00  0.00    -0.006 C 
HETATM   18  C11 UNL     1      15.571 -14.187 -52.914  1.00  0.00    -0.026 C 
HETATM   19  C12 UNL     1      15.895 -14.212 -51.530  1.00  0.00     0.064 C 
HETATM   20  C13 UNL     1      16.795 -12.805 -51.632  1.00  0.00     0.173 C 
HETATM   21  F1  UNL     1      17.758 -13.041 -50.723  1.00  0.00    -0.249 F 
HETATM   22  C14 UNL     1      17.349 -12.722 -53.013  1.00  0.00     0.040 C 
HETATM   23  C15 UNL     1      16.700 -12.009 -54.142  1.00  0.00     0.032 C 
ENDBRANCH   3  16
TORSDOF 3
ENDMDL
MODEL 2
REMARK VINA RESULT: -8.208129626      3.025      7.638
REMARK  3 active torsions:
REMARK  status: ('A' for Active; 'I' for Inactive)
REMARK    1  A    between atoms: C1_2  and  C2_3 
REMARK       I    between atoms: C1_2  and  N3_14 
REMARK    2  A    between atoms: C2_3  and  N1_4 
REMARK       I    between atoms: N1_4  and  C3_6 
REMARK       I    between atoms: C3_6  and  N2_8 
REMARK    3  A    between atoms: N3_14  and  C9_16 
ROOT
HETATM    1  O1  UNL     1      18.092 -14.026 -58.123  1.00  0.00    -0.272 OA
HETATM    2  C1  UNL     1      17.259 -14.693 -57.458  1.00  0.00     0.235 C 
HETATM    3  N3  UNL     1      17.481 -16.062 -57.134  1.00  0.00    -0.352 N 
ATOM      4  H3  UNL     1      16.768 -16.548 -56.591  1.00  0.00     0.163 HD
ENDROOT
BRANCH   2   5
HETATM    5  C2  UNL     1      16.020 -14.031 -57.005  1.00  0.00     0.227 C 
BRANCH   5   6
HETATM    6  N1  UNL     1      15.782 -14.370 -55.624  1.00  0.00    -0.334 N 
HETATM    7  C3  UNL     1      16.160 -13.481 -54.601  1.00  0.00     0.318 C 
HETATM    8  O2  UNL     1      16.710 -12.381 -54.919  1.00  0.00    -0.247 OA
HETATM    9  N2  UNL     1      15.929 -13.808 -53.240  1.00  0.00    -0.334 N 
HETATM   10  C4  UNL     1      15.312 -15.037 -52.900  1.00  0.00     0.127 C 
HETATM   11  C8  UNL     1      16.332 -12.875 -52.214  1.00  0.00     0.127 C 
HETATM   12  C5  UNL     1      14.893 -15.229 -51.506  1.00  0.00     0.020 C 
HETATM   13  C6  UNL     1      14.980 -14.070 -50.594  1.00  0.00     0.003 C 
HETATM   14  C7  UNL     1      15.143 -12.739 -51.286  1.00  0.00     0.020 C 
ATOM     15  H1  UNL     1      15.340 -15.258 -55.388  1.00  0.00     0.164 HD
ENDBRANCH   5   6
ENDBRANCH   2   5
BRANCH   3  16
HETATM   16  C9  UNL     1      18.644 -16.794 -57.525  1.00  0.00     0.107 C 
HETATM   17  C10 UNL     1      18.506 -18.200 -57.407  1.00  0.00    -0.006 C 
HETATM   18  C11 UNL     1      18.344 -19.180 -57.674  1.00  0.00    -0.026 C 
HETATM   19  C12 UNL     1      18.059 -20.308 -58.491  1.00  0.00     0.064 C 
HETATM   20  C13 UNL     1      17.982 -19.383 -59.884  1.00  0.00     0.173 C 
HETATM   21  F1  UNL     1      17.036 -20.034 -60.582  1.00  0.00    -0.249 F 
HETATM   22  C14 UNL     1      17.535 -18.016 -59.493  1.00  0.00     0.040 C 
HETATM   23  C15 UNL     1      18.447 -16.887 -59.178  1.00  0.00     0.032 C 
ENDBRANCH   3  16
TORSDOF 3
ENDMDL
MODEL 3
REMARK VINA RESULT: -8.102916655      1.165      1.619
REMARK  3 active torsions:
REMARK  status: ('A' for Active; 'I' for Inactive)
REMARK    1  A    between atoms: C1_2  and  C2_3 
REMARK       I    between atoms: C1_2  and  N3_14 
REMARK    2  A    between atoms: C2_3  and  N1_4 
REMARK       I    between atoms: N1_4  and  C3_6 
REMARK       I    between atoms: C3_6  and  N2_8 
REMARK    3  A    between atoms: N3_14  and  C9_16 
ROOT
HETATM    1  O1  UNL     1      14.882 -13.337 -57.736  1.00  0.00    -0.272 OA
HETATM    2  C1  UNL     1      16.087 -13.460 -57.398  1.00  0.00     0.235 C 
HETATM    3  N3  UNL     1      16.488 -13.462 -56.032  1.00  0.00    -0.352 N 
ATOM      4  H3  UNL     1      17.480 -13.566 -55.823  1.00  0.00     0.163 HD
ENDROOT
BRANCH   2   5
HETATM    5  C2  UNL     1      17.109 -13.607 -58.454  1.00  0.00     0.227 C 
BRANCH   5   6
HETATM    6  N1  UNL     1      17.227 -14.999 -58.806  1.00  0.00    -0.334 N 
HETATM    7  C3  UNL     1      18.079 -15.845 -58.072  1.00  0.00     0.318 C 
HETATM    8  O2  UNL     1      18.737 -15.358 -57.102  1.00  0.00    -0.247 OA
HETATM    9  N2  UNL     1      18.201 -17.217 -58.413  1.00  0.00    -0.334 N 
HETATM   10  C4  UNL     1      17.459 -17.748 -59.497  1.00  0.00     0.127 C 
HETATM   11  C8  UNL     1      19.088 -18.057 -57.643  1.00  0.00     0.127 C 
HETATM   12  C5  UNL     1      17.445 -19.206 -59.666  1.00  0.00     0.020 C 
HETATM   13  C6  UNL     1      18.054 -20.031 -58.602  1.00  0.00     0.003 C 
HETATM   14  C7  UNL     1      18.291 -19.300 -57.303  1.00  0.00     0.020 C 
ATOM     15  H1  UNL     1      16.691 -15.373 -59.589  1.00  0.00     0.164 HD
ENDBRANCH   5   6
ENDBRANCH   2   5
BRANCH   3  16
HETATM   16  C9  UNL     1      15.580 -13.326 -54.937  1.00  0.00     0.107 C 
HETATM   17  C10 UNL     1      15.870 -14.175 -53.840  1.00  0.00    -0.006 C 
HETATM   18  C11 UNL     1      16.226 -14.484 -52.926  1.00  0.00    -0.026 C 
HETATM   19  C12 UNL     1      16.867 -14.429 -51.659  1.00  0.00     0.064 C 
HETATM   20  C13 UNL     1      17.186 -12.792 -51.801  1.00  0.00     0.173 C 
HETATM   21  F1  UNL     1      18.363 -12.695 -51.157  1.00  0.00    -0.249 F 
HETATM   22  C14 UNL     1      17.325 -12.483 -53.252  1.00  0.00     0.040 C 
HETATM   23  C15 UNL     1      16.219 -12.017 -54.126  1.00  0.00     0.032 C 
ENDBRANCH   3  16
TORSDOF 3
ENDMDL
MODEL 4
REMARK VINA RESULT: -7.755408402      1.557      1.806
REMARK  3 active torsions:
REMARK  status: ('A' for Active; 'I' for Inactive)
REMARK    1  A    between atoms: C1_2  and  C2_3 
REMARK       I    between atoms: C1_2  and  N3_14 
REMARK    2  A    between atoms: C2_3  and  N1_4 
REMARK       I    between atoms: N1_4  and  C3_6 
REMARK       I    between atoms: C3_6  and  N2_8 
REMARK    3  A    between atoms: N3_14  and  C9_16 
ROOT
HETATM    1  O1  UNL     1      18.418 -14.234 -56.518  1.00  0.00    -0.272 OA
HETATM    2  C1  UNL     1      17.193 -14.439 -56.719  1.00  0.00     0.235 C 
HETATM    3  N3  UNL     1      16.194 -13.954 -55.828  1.00  0.00    -0.352 N 
ATOM      4  H3  UNL     1      15.219 -14.153 -56.047  1.00  0.00     0.163 HD
ENDROOT
BRANCH   2   5
HETATM    5  C2  UNL     1      16.790 -15.204 -57.915  1.00  0.00     0.227 C 
BRANCH   5   6
HETATM    6  N1  UNL     1      17.096 -16.597 -57.709  1.00  0.00    -0.334 N 
HETATM    7  C3  UNL     1      17.384 -17.430 -58.807  1.00  0.00     0.318 C 
HETATM    8  O2  UNL     1      17.366 -16.930 -59.974  1.00  0.00    -0.247 OA
HETATM    9  N2  UNL     1      17.686 -18.802 -58.612  1.00  0.00    -0.334 N 
HETATM   10  C4  UNL     1      17.704 -19.346 -57.304  1.00  0.00     0.127 C 
HETATM   11  C8  UNL     1      17.972 -19.629 -59.760  1.00  0.00     0.127 C 
HETATM   12  C5  UNL     1      18.240 -20.702 -57.135  1.00  0.00     0.020 C 
HETATM   13  C6  UNL     1      18.883 -21.340 -58.303  1.00  0.00     0.003 C 
HETATM   14  C7  UNL     1      19.237 -20.390 -59.420  1.00  0.00     0.020 C 
ATOM     15  H1  UNL     1      17.105 -16.981 -56.765  1.00  0.00     0.164 HD
ENDBRANCH   5   6
ENDBRANCH   2   5
BRANCH   3  16
HETATM   16  C9  UNL     1      16.479 -13.206 -54.645  1.00  0.00     0.107 C 
HETATM   17  C10 UNL     1      15.325 -12.745 -53.963  1.00  0.00    -0.006 C 
HETATM   18  C11 UNL     1      14.565 -12.702 -53.271  1.00  0.00    -0.026 C 
HETATM   19  C12 UNL     1      13.753 -13.060 -52.161  1.00  0.00     0.064 C 
HETATM   20  C13 UNL     1      14.729 -14.360 -51.762  1.00  0.00     0.173 C 
HETATM   21  F1  UNL     1      13.825 -15.235 -51.288  1.00  0.00    -0.249 F 
HETATM   22  C14 UNL     1      15.363 -14.851 -53.019  1.00  0.00     0.040 C 
HETATM   23  C15 UNL     1      16.692 -14.417 -53.519  1.00  0.00     0.032 C 
ENDBRANCH   3  16
TORSDOF 3
ENDMDL
MODEL 5
REMARK VINA RESULT: -7.670474290      5.272      9.246
REMARK  3 active torsions:
REMARK  status: ('A' for Active; 'I' for Inactive)
REMARK    1  A    between atoms: C1_2  and  C2_3 
REMARK       I    between atoms: C1_2  and  N3_14 
REMARK    2  A    between atoms: C2_3  and  N1_4 
REMARK       I    between atoms: N1_4  and  C3_6 
REMARK       I    between atoms: C3_6  and  N2_8 
REMARK    3  A    between atoms: N3_14  and  C9_16 
ROOT
HETATM    1  O1  UNL     1      18.079 -21.174 -55.994  1.00  0.00    -0.272 OA
HETATM    2  C1  UNL     1      18.783 -21.764 -56.852  1.00  0.00     0.235 C 
HETATM    3  N3  UNL     1      19.546 -22.922 -56.530  1.00  0.00    -0.352 N 
ATOM      4  H3  UNL     1      20.097 -23.356 -57.271  1.00  0.00     0.163 HD
ENDROOT
BRANCH   2   5
HETATM    5  C2  UNL     1      18.814 -21.235 -58.230  1.00  0.00     0.227 C 
BRANCH   5   6
HETATM    6  N1  UNL     1      19.073 -19.818 -58.185  1.00  0.00    -0.334 N 
HETATM    7  C3  UNL     1      18.255 -18.925 -58.900  1.00  0.00     0.318 C 
HETATM    8  O2  UNL     1      17.291 -19.391 -59.582  1.00  0.00    -0.247 OA
HETATM    9  N2  UNL     1      18.504 -17.529 -58.861  1.00  0.00    -0.334 N 
HETATM   10  C4  UNL     1      19.583 -17.021 -58.095  1.00  0.00     0.127 C 
HETATM   11  C8  UNL     1      17.648 -16.640 -59.611  1.00  0.00     0.127 C 
HETATM   12  C5  UNL     1      19.661 -15.568 -57.904  1.00  0.00     0.020 C 
HETATM   13  C6  UNL     1      18.524 -14.748 -58.370  1.00  0.00     0.003 C 
HETATM   14  C7  UNL     1      17.264 -15.529 -58.654  1.00  0.00     0.020 C 
ATOM     15  H1  UNL     1      19.853 -19.462 -57.632  1.00  0.00     0.164 HD
ENDBRANCH   5   6
ENDBRANCH   2   5
BRANCH   3  16
HETATM   16  C9  UNL     1      19.586 -23.512 -55.229  1.00  0.00     0.107 C 
HETATM   17  C10 UNL     1      19.541 -24.929 -55.238  1.00  0.00    -0.006 C 
HETATM   18  C11 UNL     1      19.863 -25.906 -55.203  1.00  0.00    -0.026 C 
HETATM   19  C12 UNL     1      20.749 -27.013 -55.107  1.00  0.00     0.064 C 
HETATM   20  C13 UNL     1      22.083 -26.030 -54.872  1.00  0.00     0.173 C 
HETATM   21  F1  UNL     1      23.045 -26.737 -55.492  1.00  0.00    -0.249 F 
HETATM   22  C14 UNL     1      21.818 -24.737 -55.564  1.00  0.00     0.040 C 
HETATM   23  C15 UNL     1      21.224 -23.540 -54.918  1.00  0.00     0.032 C 
ENDBRANCH   3  16
TORSDOF 3
ENDMDL
