MODEL 1
REMARK VINA RESULT: -5.100760377      0.000      0.000
REMARK  4 active torsions:
REMARK  status: ('A' for Active; 'I' for Inactive)
REMARK    1  A    between atoms: C2_2  and  C3_3 
REMARK    2  A    between atoms: C6_6  and  N1_7 
REMARK    3  A    between atoms: C6_6  and  N2_14 
REMARK       I    between atoms: N1_7  and  C7_9 
REMARK    4  A    between atoms: C7_9  and  C8_11 
REMARK       I    between atoms: N2_14  and  C11_16 
REMARK       I    between atoms: C11_16  and  N3_18 
ROOT
HETATM    1  C3  UNL     1      21.213 -25.669 -55.165  1.00  0.00     0.006 A 
HETATM    2  C4  UNL     1      21.492 -25.709 -56.586  1.00  0.00     0.026 A 
HETATM    3  C5  UNL     1      20.237 -25.090 -56.222  1.00  0.00     0.051 A 
HETATM    4  C6  UNL     1      20.100 -23.938 -55.253  1.00  0.00     0.132 C 
HETATM    5  C14 UNL     1      21.335 -24.271 -54.527  1.00  0.00     0.144 C 
HETATM    6 CL1  UNL     1      22.832 -23.438 -54.843  1.00  0.00    -0.119 Cl
ENDROOT
BRANCH   4   7
HETATM    7  N1  UNL     1      19.846 -22.674 -55.836  1.00  0.00    -0.332 N 
HETATM    8  C7  UNL     1      19.215 -22.355 -57.050  1.00  0.00     0.223 C 
HETATM    9  O1  UNL     1      18.768 -23.243 -57.789  1.00  0.00    -0.273 OA
ATOM     10  H1  UNL     1      20.171 -21.874 -55.293  1.00  0.00     0.165 HD
BRANCH   8  11
HETATM   11  C8  UNL     1      19.046 -20.957 -57.516  1.00  0.00     0.070 C 
HETATM   12  C9  UNL     1      18.832 -20.875 -59.005  1.00  0.00     0.019 C 
HETATM   13  C10 UNL     1      17.789 -20.427 -56.814  1.00  0.00     0.019 C 
ENDBRANCH   8  11
ENDBRANCH   4   7
BRANCH   4  14
HETATM   14  N2  UNL     1      18.976 -24.250 -54.328  1.00  0.00    -0.314 N 
HETATM   15  C11 UNL     1      18.731 -23.459 -53.181  1.00  0.00     0.319 C 
HETATM   16  O2  UNL     1      19.454 -22.465 -52.899  1.00  0.00    -0.247 OA
HETATM   17  N3  UNL     1      17.643 -23.772 -52.306  1.00  0.00    -0.343 N 
HETATM   18  C12 UNL     1      16.789 -24.899 -52.589  1.00  0.00     0.154 C 
HETATM   19  C13 UNL     1      17.380 -22.975 -51.132  1.00  0.00     0.154 C 
ATOM     20  H2  UNL     1      18.372 -25.048 -54.525  1.00  0.00     0.166 HD
ENDBRANCH   4  14
BRANCH   1  21
HETATM   21  C2  UNL     1      20.648 -26.768 -54.384  1.00  0.00    -0.025 C 
HETATM   22  C1  UNL     1      21.235 -27.159 -53.283  1.00  0.00     0.008 C 
ENDBRANCH   1  21
TORSDOF 4
ENDMDL
MODEL 2
REMARK VINA RESULT: -4.977009410      2.325      3.591
REMARK  4 active torsions:
REMARK  status: ('A' for Active; 'I' for Inactive)
REMARK    1  A    between atoms: C2_2  and  C3_3 
REMARK    2  A    between atoms: C6_6  and  N1_7 
REMARK    3  A    between atoms: C6_6  and  N2_14 
REMARK       I    between atoms: N1_7  and  C7_9 
REMARK    4  A    between atoms: C7_9  and  C8_11 
REMARK       I    between atoms: N2_14  and  C11_16 
REMARK       I    between atoms: C11_16  and  N3_18 
ROOT
HETATM    1  C3  UNL     1      23.044 -25.687 -51.909  1.00  0.00     0.006 A 
HETATM    2  C4  UNL     1      23.114 -27.100 -52.225  1.00  0.00     0.026 A 
HETATM    3  C5  UNL     1      21.804 -26.502 -52.358  1.00  0.00     0.051 A 
HETATM    4  C6  UNL     1      21.497 -25.291 -53.208  1.00  0.00     0.132 C 
HETATM    5  C14 UNL     1      22.868 -24.764 -53.130  1.00  0.00     0.144 C 
HETATM    6 CL1  UNL     1      24.014 -25.009 -54.420  1.00  0.00    -0.119 Cl
ENDROOT
BRANCH   4   7
HETATM    7  N1  UNL     1      20.822 -25.552 -54.424  1.00  0.00    -0.332 N 
HETATM    8  C7  UNL     1      20.365 -24.660 -55.409  1.00  0.00     0.223 C 
HETATM    9  O1  UNL     1      20.542 -23.439 -55.295  1.00  0.00    -0.273 OA
ATOM     10  H1  UNL     1      20.638 -26.537 -54.614  1.00  0.00     0.165 HD
BRANCH   8  11
HETATM   11  C8  UNL     1      19.655 -25.116 -56.629  1.00  0.00     0.070 C 
HETATM   12  C9  UNL     1      19.226 -23.965 -57.501  1.00  0.00     0.019 C 
HETATM   13  C10 UNL     1      20.664 -25.969 -57.410  1.00  0.00     0.019 C 
ENDBRANCH   8  11
ENDBRANCH   4   7
BRANCH   4  14
HETATM   14  N2  UNL     1      20.649 -24.369 -52.403  1.00  0.00    -0.314 N 
HETATM   15  C11 UNL     1      19.308 -24.693 -52.091  1.00  0.00     0.319 C 
HETATM   16  O2  UNL     1      18.781 -25.770 -52.484  1.00  0.00    -0.247 OA
HETATM   17  N3  UNL     1      18.510 -23.796 -51.312  1.00  0.00    -0.343 N 
HETATM   18  C12 UNL     1      19.070 -22.553 -50.841  1.00  0.00     0.154 C 
HETATM   19  C13 UNL     1      17.141 -24.112 -50.985  1.00  0.00     0.154 C 
ATOM     20  H2  UNL     1      21.042 -23.489 -52.071  1.00  0.00     0.166 HD
ENDBRANCH   4  14
BRANCH   1  21
HETATM   21  C2  UNL     1      22.925 -25.128 -50.563  1.00  0.00    -0.025 C 
HETATM   22  C1  UNL     1      23.536 -24.013 -50.260  1.00  0.00     0.008 C 
ENDBRANCH   1  21
TORSDOF 4
ENDMDL
MODEL 3
REMARK VINA RESULT: -4.906141052      2.843      4.404
REMARK  4 active torsions:
REMARK  status: ('A' for Active; 'I' for Inactive)
REMARK    1  A    between atoms: C2_2  and  C3_3 
REMARK    2  A    between atoms: C6_6  and  N1_7 
REMARK    3  A    between atoms: C6_6  and  N2_14 
REMARK       I    between atoms: N1_7  and  C7_9 
REMARK    4  A    between atoms: C7_9  and  C8_11 
REMARK       I    between atoms: N2_14  and  C11_16 
REMARK       I    between atoms: C11_16  and  N3_18 
ROOT
HETATM    1  C3  UNL     1      21.786 -25.905 -55.242  1.00  0.00     0.006 A 
HETATM    2  C4  UNL     1      21.086 -27.159 -55.441  1.00  0.00     0.026 A 
HETATM    3  C5  UNL     1      20.809 -26.491 -54.189  1.00  0.00     0.051 A 
HETATM    4  C6  UNL     1      20.316 -25.066 -54.069  1.00  0.00     0.132 C 
HETATM    5  C14 UNL     1      20.899 -24.650 -55.354  1.00  0.00     0.144 C 
HETATM    6 CL1  UNL     1      19.936 -24.547 -56.802  1.00  0.00    -0.119 Cl
ENDROOT
BRANCH   4   7
HETATM    7  N1  UNL     1      18.948 -24.918 -53.740  1.00  0.00    -0.332 N 
HETATM    8  C7  UNL     1      18.249 -25.329 -52.593  1.00  0.00     0.223 C 
HETATM    9  O1  UNL     1      18.831 -25.909 -51.665  1.00  0.00    -0.273 OA
ATOM     10  H1  UNL     1      18.383 -24.440 -54.443  1.00  0.00     0.165 HD
BRANCH   8  11
HETATM   11  C8  UNL     1      16.794 -25.099 -52.422  1.00  0.00     0.070 C 
HETATM   12  C9  UNL     1      16.332 -25.397 -51.019  1.00  0.00     0.019 C 
HETATM   13  C10 UNL     1      16.566 -23.608 -52.702  1.00  0.00     0.019 C 
ENDBRANCH   8  11
ENDBRANCH   4   7
BRANCH   4  14
HETATM   14  N2  UNL     1      21.117 -24.393 -53.010  1.00  0.00    -0.314 N 
HETATM   15  C11 UNL     1      20.835 -23.065 -52.611  1.00  0.00     0.319 C 
HETATM   16  O2  UNL     1      19.899 -22.404 -53.138  1.00  0.00    -0.247 OA
HETATM   17  N3  UNL     1      21.613 -22.435 -51.589  1.00  0.00    -0.343 N 
HETATM   18  C12 UNL     1      22.694 -23.154 -50.958  1.00  0.00     0.154 C 
HETATM   19  C13 UNL     1      21.338 -21.083 -51.172  1.00  0.00     0.154 C 
ATOM     20  H2  UNL     1      21.883 -24.898 -52.564  1.00  0.00     0.166 HD
ENDBRANCH   4  14
BRANCH   1  21
HETATM   21  C2  UNL     1      23.160 -25.774 -54.760  1.00  0.00    -0.025 C 
HETATM   22  C1  UNL     1      24.074 -26.624 -55.146  1.00  0.00     0.008 C 
ENDBRANCH   1  21
TORSDOF 4
ENDMDL
MODEL 4
REMARK VINA RESULT: -4.777023340      9.834     12.198
REMARK  4 active torsions:
REMARK  status: ('A' for Active; 'I' for Inactive)
REMARK    1  A    between atoms: C2_2  and  C3_3 
REMARK    2  A    between atoms: C6_6  and  N1_7 
REMARK    3  A    between atoms: C6_6  and  N2_14 
REMARK       I    between atoms: N1_7  and  C7_9 
REMARK    4  A    between atoms: C7_9  and  C8_11 
REMARK       I    between atoms: N2_14  and  C11_16 
REMARK       I    between atoms: C11_16  and  N3_18 
ROOT
HETATM    1  C3  UNL     1      15.845 -13.683 -52.428  1.00  0.00     0.006 A 
HETATM    2  C4  UNL     1      16.463 -13.230 -51.197  1.00  0.00     0.026 A 
HETATM    3  C5  UNL     1      17.336 -13.262 -52.350  1.00  0.00     0.051 A 
HETATM    4  C6  UNL     1      17.055 -12.557 -53.657  1.00  0.00     0.132 C 
HETATM    5  C14 UNL     1      15.596 -12.572 -53.466  1.00  0.00     0.144 C 
HETATM    6 CL1  UNL     1      14.740 -11.176 -52.871  1.00  0.00    -0.119 Cl
ENDROOT
BRANCH   4   7
HETATM    7  N1  UNL     1      17.806 -11.381 -53.892  1.00  0.00    -0.332 N 
HETATM    8  C7  UNL     1      19.192 -11.218 -54.057  1.00  0.00     0.223 C 
HETATM    9  O1  UNL     1      19.958 -12.191 -54.019  1.00  0.00    -0.273 OA
ATOM     10  H1  UNL     1      17.259 -10.522 -53.950  1.00  0.00     0.165 HD
BRANCH   8  11
HETATM   11  C8  UNL     1      19.816  -9.892 -54.284  1.00  0.00     0.070 C 
HETATM   12  C9  UNL     1      19.367  -8.871 -53.272  1.00  0.00     0.019 C 
HETATM   13  C10 UNL     1      21.327 -10.104 -54.123  1.00  0.00     0.019 C 
ENDBRANCH   8  11
ENDBRANCH   4   7
BRANCH   4  14
HETATM   14  N2  UNL     1      17.340 -13.512 -54.763  1.00  0.00    -0.314 N 
HETATM   15  C11 UNL     1      16.808 -13.313 -56.058  1.00  0.00     0.319 C 
HETATM   16  O2  UNL     1      16.071 -12.323 -56.323  1.00  0.00    -0.247 OA
HETATM   17  N3  UNL     1      17.096 -14.239 -57.109  1.00  0.00    -0.343 N 
HETATM   18  C12 UNL     1      17.934 -15.385 -56.853  1.00  0.00     0.154 C 
HETATM   19  C13 UNL     1      16.561 -14.050 -58.435  1.00  0.00     0.154 C 
ATOM     20  H2  UNL     1      17.930 -14.324 -54.583  1.00  0.00     0.166 HD
ENDBRANCH   4  14
BRANCH   1  21
HETATM   21  C2  UNL     1      15.648 -15.080 -52.809  1.00  0.00    -0.025 C 
HETATM   22  C1  UNL     1      15.092 -15.915 -51.972  1.00  0.00     0.008 C 
ENDBRANCH   1  21
TORSDOF 4
ENDMDL
MODEL 5
REMARK VINA RESULT: -4.774106930      9.770     12.034
REMARK  4 active torsions:
REMARK  status: ('A' for Active; 'I' for Inactive)
REMARK    1  A    between atoms: C2_2  and  C3_3 
REMARK    2  A    between atoms: C6_6  and  N1_7 
REMARK    3  A    between atoms: C6_6  and  N2_14 
REMARK       I    between atoms: N1_7  and  C7_9 
REMARK    4  A    between atoms: C7_9  and  C8_11 
REMARK       I    between atoms: N2_14  and  C11_16 
REMARK       I    between atoms: C11_16  and  N3_18 
ROOT
HETATM    1  C3  UNL     1      14.815 -12.908 -52.046  1.00  0.00     0.006 A 
HETATM    2  C4  UNL     1      13.580 -13.270 -52.712  1.00  0.00     0.026 A 
HETATM    3  C5  UNL     1      14.621 -12.764 -53.578  1.00  0.00     0.051 A 
HETATM    4  C6  UNL     1      16.018 -13.335 -53.662  1.00  0.00     0.132 C 
HETATM    5  C14 UNL     1      15.986 -13.878 -52.295  1.00  0.00     0.144 C 
HETATM    6 CL1  UNL     1      15.638 -15.557 -51.989  1.00  0.00    -0.119 Cl
ENDROOT
BRANCH   4   7
HETATM    7  N1  UNL     1      16.294 -14.112 -54.812  1.00  0.00    -0.332 N 
HETATM    8  C7  UNL     1      16.379 -13.725 -56.159  1.00  0.00     0.223 C 
HETATM    9  O1  UNL     1      16.215 -12.544 -56.495  1.00  0.00    -0.273 OA
ATOM     10  H1  UNL     1      16.454 -15.104 -54.635  1.00  0.00     0.165 HD
BRANCH   8  11
HETATM   11  C8  UNL     1      16.667 -14.690 -57.248  1.00  0.00     0.070 C 
HETATM   12  C9  UNL     1      16.621 -14.043 -58.608  1.00  0.00     0.019 C 
HETATM   13  C10 UNL     1      18.093 -15.196 -56.998  1.00  0.00     0.019 C 
ENDBRANCH   8  11
ENDBRANCH   4   7
BRANCH   4  14
HETATM   14  N2  UNL     1      16.979 -12.198 -53.636  1.00  0.00    -0.314 N 
HETATM   15  C11 UNL     1      18.176 -12.268 -52.885  1.00  0.00     0.319 C 
HETATM   16  O2  UNL     1      18.471 -13.291 -52.209  1.00  0.00    -0.247 OA
HETATM   17  N3  UNL     1      19.090 -11.167 -52.875  1.00  0.00    -0.343 N 
HETATM   18  C12 UNL     1      18.794  -9.976 -53.634  1.00  0.00     0.154 C 
HETATM   19  C13 UNL     1      20.314 -11.222 -52.115  1.00  0.00     0.154 C 
ATOM     20  H2  UNL     1      16.772 -11.354 -54.170  1.00  0.00     0.166 HD
ENDBRANCH   4  14
BRANCH   1  21
HETATM   21  C2  UNL     1      15.066 -11.639 -51.364  1.00  0.00    -0.025 C 
HETATM   22  C1  UNL     1      15.765 -11.616 -50.260  1.00  0.00     0.008 C 
ENDBRANCH   1  21
TORSDOF 4
ENDMDL
