MODEL 1
REMARK VINA RESULT: -7.286432909      0.000      0.000
REMARK  5 active torsions:
REMARK  status: ('A' for Active; 'I' for Inactive)
REMARK    1  A    between atoms: C1_2  and  C2_3 
REMARK       I    between atoms: C1_2  and  N3_16 
REMARK    2  A    between atoms: C2_3  and  N1_4 
REMARK    3  A    between atoms: N1_4  and  C3_6 
REMARK    4  A    between atoms: C3_6  and  N2_8 
REMARK    5  A    between atoms: N2_8  and  C4_10 
ROOT
HETATM    1  N1  UNL     1      16.507 -14.841 -58.276  1.00  0.00    -0.358 N 
ATOM      2  H1  UNL     1      16.240 -14.198 -59.021  1.00  0.00     0.162 HD
ENDROOT
BRANCH   1   3
HETATM    3  C2  UNL     1      15.830 -14.761 -56.984  1.00  0.00     0.225 C 
BRANCH   3   4
HETATM    4  C1  UNL     1      16.124 -13.455 -56.344  1.00  0.00     0.237 C 
HETATM    5  O1  UNL     1      16.314 -12.460 -57.102  1.00  0.00    -0.272 OA
HETATM    6  N3  UNL     1      16.200 -13.275 -54.953  1.00  0.00    -0.351 N 
HETATM    7  C9  UNL     1      16.006 -14.319 -53.971  1.00  0.00     0.126 C 
HETATM    8  C12 UNL     1      16.481 -12.039 -54.260  1.00  0.00     0.126 C 
HETATM    9  C10 UNL     1      16.363 -13.712 -52.631  1.00  0.00     0.021 C 
HETATM   10  C11 UNL     1      17.281 -12.567 -53.060  1.00  0.00     0.021 C 
ENDBRANCH   3   4
ENDBRANCH   1   3
BRANCH   1  11
HETATM   11  C3  UNL     1      17.525 -15.793 -58.511  1.00  0.00     0.168 C 
HETATM   12  S1  UNL     1      19.072 -15.278 -58.556  1.00  0.00    -0.041 SA
BRANCH  11  13
HETATM   13  N2  UNL     1      17.200 -17.143 -58.701  1.00  0.00    -0.363 N 
ATOM     14  H2  UNL     1      16.214 -17.403 -58.711  1.00  0.00     0.162 HD
BRANCH  13  15
HETATM   15  C4  UNL     1      18.184 -18.192 -58.882  1.00  0.00     0.085 C 
HETATM   16  C5  UNL     1      17.703 -19.251 -59.848  1.00  0.00     0.026 C 
HETATM   17  C6  UNL     1      18.721 -20.350 -59.632  1.00  0.00     0.022 C 
HETATM   18  C7  UNL     1      19.152 -20.227 -58.186  1.00  0.00     0.084 C 
HETATM   19 CL1  UNL     1      18.639 -21.706 -57.330  1.00  0.00    -0.125 Cl
HETATM   20  C8  UNL     1      18.398 -19.011 -57.631  1.00  0.00     0.045 C 
ENDBRANCH  13  15
ENDBRANCH  11  13
ENDBRANCH   1  11
TORSDOF 5
ENDMDL
MODEL 2
REMARK VINA RESULT: -7.193689134      1.230      1.347
REMARK  5 active torsions:
REMARK  status: ('A' for Active; 'I' for Inactive)
REMARK    1  A    between atoms: C1_2  and  C2_3 
REMARK       I    between atoms: C1_2  and  N3_16 
REMARK    2  A    between atoms: C2_3  and  N1_4 
REMARK    3  A    between atoms: N1_4  and  C3_6 
REMARK    4  A    between atoms: C3_6  and  N2_8 
REMARK    5  A    between atoms: N2_8  and  C4_10 
ROOT
HETATM    1  N1  UNL     1      16.505 -15.019 -56.871  1.00  0.00    -0.358 N 
ATOM      2  H1  UNL     1      15.513 -14.884 -57.064  1.00  0.00     0.162 HD
ENDROOT
BRANCH   1   3
HETATM    3  C2  UNL     1      17.077 -14.473 -55.642  1.00  0.00     0.225 C 
BRANCH   3   4
HETATM    4  C1  UNL     1      16.195 -13.405 -55.110  1.00  0.00     0.237 C 
HETATM    5  O1  UNL     1      16.202 -12.288 -55.705  1.00  0.00    -0.272 OA
HETATM    6  N3  UNL     1      15.363 -13.575 -53.991  1.00  0.00    -0.351 N 
HETATM    7  C9  UNL     1      15.255 -14.792 -53.217  1.00  0.00     0.126 C 
HETATM    8  C12 UNL     1      14.482 -12.586 -53.417  1.00  0.00     0.126 C 
HETATM    9  C10 UNL     1      14.397 -14.456 -52.016  1.00  0.00     0.021 C 
HETATM   10  C11 UNL     1      14.594 -12.942 -51.927  1.00  0.00     0.021 C 
ENDBRANCH   3   4
ENDBRANCH   1   3
BRANCH   1  11
HETATM   11  C3  UNL     1      17.304 -15.729 -57.798  1.00  0.00     0.168 C 
HETATM   12  S1  UNL     1      18.608 -14.981 -58.430  1.00  0.00    -0.041 SA
BRANCH  11  13
HETATM   13  N2  UNL     1      16.971 -17.042 -58.156  1.00  0.00    -0.363 N 
ATOM     14  H2  UNL     1      15.996 -17.329 -58.076  1.00  0.00     0.162 HD
BRANCH  13  15
HETATM   15  C4  UNL     1      17.933 -18.017 -58.633  1.00  0.00     0.085 C 
HETATM   16  C5  UNL     1      17.336 -18.923 -59.685  1.00  0.00     0.026 C 
HETATM   17  C6  UNL     1      18.385 -20.009 -59.786  1.00  0.00     0.022 C 
HETATM   18  C7  UNL     1      19.007 -20.103 -58.409  1.00  0.00     0.084 C 
HETATM   19 CL1  UNL     1      18.632 -21.715 -57.743  1.00  0.00    -0.125 Cl
HETATM   20  C8  UNL     1      18.322 -19.016 -57.570  1.00  0.00     0.045 C 
ENDBRANCH  13  15
ENDBRANCH  11  13
ENDBRANCH   1  11
TORSDOF 5
ENDMDL
MODEL 3
REMARK VINA RESULT: -7.150473150      1.297      1.432
REMARK  5 active torsions:
REMARK  status: ('A' for Active; 'I' for Inactive)
REMARK    1  A    between atoms: C1_2  and  C2_3 
REMARK       I    between atoms: C1_2  and  N3_16 
REMARK    2  A    between atoms: C2_3  and  N1_4 
REMARK    3  A    between atoms: N1_4  and  C3_6 
REMARK    4  A    between atoms: C3_6  and  N2_8 
REMARK    5  A    between atoms: N2_8  and  C4_10 
ROOT
HETATM    1  N1  UNL     1      16.217 -15.113 -56.555  1.00  0.00    -0.358 N 
ATOM      2  H1  UNL     1      15.777 -15.745 -55.886  1.00  0.00     0.162 HD
ENDROOT
BRANCH   1   3
HETATM    3  C2  UNL     1      16.042 -13.671 -56.401  1.00  0.00     0.225 C 
BRANCH   3   4
HETATM    4  C1  UNL     1      16.681 -13.222 -55.139  1.00  0.00     0.237 C 
HETATM    5  O1  UNL     1      17.942 -13.125 -55.121  1.00  0.00    -0.272 OA
HETATM    6  N3  UNL     1      15.958 -12.902 -53.977  1.00  0.00    -0.351 N 
HETATM    7  C9  UNL     1      14.518 -12.967 -53.854  1.00  0.00     0.126 C 
HETATM    8  C12 UNL     1      16.507 -12.461 -52.717  1.00  0.00     0.126 C 
HETATM    9  C10 UNL     1      14.207 -12.720 -52.393  1.00  0.00     0.021 C 
HETATM   10  C11 UNL     1      15.528 -13.123 -51.737  1.00  0.00     0.021 C 
ENDBRANCH   3   4
ENDBRANCH   1   3
BRANCH   1  11
HETATM   11  C3  UNL     1      16.983 -15.649 -57.617  1.00  0.00     0.168 C 
HETATM   12  S1  UNL     1      18.153 -14.721 -58.272  1.00  0.00    -0.041 SA
BRANCH  11  13
HETATM   13  N2  UNL     1      16.733 -16.946 -58.084  1.00  0.00    -0.363 N 
ATOM     14  H2  UNL     1      15.769 -17.280 -58.083  1.00  0.00     0.162 HD
BRANCH  13  15
HETATM   15  C4  UNL     1      17.765 -17.841 -58.570  1.00  0.00     0.085 C 
HETATM   16  C5  UNL     1      17.236 -18.784 -59.626  1.00  0.00     0.026 C 
HETATM   17  C6  UNL     1      18.364 -19.786 -59.737  1.00  0.00     0.022 C 
HETATM   18  C7  UNL     1      18.997 -19.841 -58.363  1.00  0.00     0.084 C 
HETATM   19 CL1  UNL     1      18.747 -21.481 -57.705  1.00  0.00    -0.125 Cl
HETATM   20  C8  UNL     1      18.233 -18.814 -57.515  1.00  0.00     0.045 C 
ENDBRANCH  13  15
ENDBRANCH  11  13
ENDBRANCH   1  11
TORSDOF 5
ENDMDL
MODEL 4
REMARK VINA RESULT: -7.038145226      3.433      7.508
REMARK  5 active torsions:
REMARK  status: ('A' for Active; 'I' for Inactive)
REMARK    1  A    between atoms: C1_2  and  C2_3 
REMARK       I    between atoms: C1_2  and  N3_16 
REMARK    2  A    between atoms: C2_3  and  N1_4 
REMARK    3  A    between atoms: N1_4  and  C3_6 
REMARK    4  A    between atoms: C3_6  and  N2_8 
REMARK    5  A    between atoms: N2_8  and  C4_10 
ROOT
HETATM    1  N1  UNL     1      18.018 -14.493 -56.714  1.00  0.00    -0.358 N 
ATOM      2  H1  UNL     1      18.751 -14.095 -56.128  1.00  0.00     0.162 HD
ENDROOT
BRANCH   1   3
HETATM    3  C2  UNL     1      18.385 -15.328 -57.854  1.00  0.00     0.225 C 
BRANCH   3   4
HETATM    4  C1  UNL     1      18.633 -16.718 -57.398  1.00  0.00     0.237 C 
HETATM    5  O1  UNL     1      19.222 -16.876 -56.289  1.00  0.00    -0.272 OA
HETATM    6  N3  UNL     1      18.247 -17.854 -58.130  1.00  0.00    -0.351 N 
HETATM    7  C9  UNL     1      17.569 -17.824 -59.407  1.00  0.00     0.126 C 
HETATM    8  C12 UNL     1      18.454 -19.232 -57.752  1.00  0.00     0.126 C 
HETATM    9  C10 UNL     1      17.526 -19.256 -59.897  1.00  0.00     0.021 C 
HETATM   10  C11 UNL     1      18.698 -19.866 -59.128  1.00  0.00     0.021 C 
ENDBRANCH   3   4
ENDBRANCH   1   3
BRANCH   1  11
HETATM   11  C3  UNL     1      16.663 -14.225 -56.409  1.00  0.00     0.168 C 
HETATM   12  S1  UNL     1      15.677 -13.745 -57.617  1.00  0.00    -0.041 SA
BRANCH  11  13
HETATM   13  N2  UNL     1      16.191 -14.371 -55.098  1.00  0.00    -0.363 N 
ATOM     14  H2  UNL     1      16.407 -15.237 -54.604  1.00  0.00     0.162 HD
BRANCH  13  15
HETATM   15  C4  UNL     1      15.413 -13.365 -54.403  1.00  0.00     0.085 C 
HETATM   16  C5  UNL     1      16.282 -12.235 -53.899  1.00  0.00     0.026 C 
HETATM   17  C6  UNL     1      15.334 -11.508 -52.971  1.00  0.00     0.022 C 
HETATM   18  C7  UNL     1      14.403 -12.570 -52.426  1.00  0.00     0.084 C 
HETATM   19 CL1  UNL     1      14.673 -12.691 -50.667  1.00  0.00    -0.125 Cl
HETATM   20  C8  UNL     1      14.820 -13.878 -53.112  1.00  0.00     0.045 C 
ENDBRANCH  13  15
ENDBRANCH  11  13
ENDBRANCH   1  11
TORSDOF 5
ENDMDL
MODEL 5
REMARK VINA RESULT: -6.816551842      3.059      7.104
REMARK  5 active torsions:
REMARK  status: ('A' for Active; 'I' for Inactive)
REMARK    1  A    between atoms: C1_2  and  C2_3 
REMARK       I    between atoms: C1_2  and  N3_16 
REMARK    2  A    between atoms: C2_3  and  N1_4 
REMARK    3  A    between atoms: N1_4  and  C3_6 
REMARK    4  A    between atoms: C3_6  and  N2_8 
REMARK    5  A    between atoms: N2_8  and  C4_10 
ROOT
HETATM    1  N1  UNL     1      15.648 -13.694 -55.946  1.00  0.00    -0.358 N 
ATOM      2  H1  UNL     1      14.846 -13.764 -56.572  1.00  0.00     0.162 HD
ENDROOT
BRANCH   1   3
HETATM    3  C2  UNL     1      16.898 -14.357 -56.306  1.00  0.00     0.225 C 
BRANCH   3   4
HETATM    4  C1  UNL     1      16.855 -14.770 -57.730  1.00  0.00     0.237 C 
HETATM    5  O1  UNL     1      16.119 -14.101 -58.513  1.00  0.00    -0.272 OA
HETATM    6  N3  UNL     1      17.583 -15.856 -58.244  1.00  0.00    -0.351 N 
HETATM    7  C9  UNL     1      18.460 -16.705 -57.468  1.00  0.00     0.126 C 
HETATM    8  C12 UNL     1      17.591 -16.316 -59.613  1.00  0.00     0.126 C 
HETATM    9  C10 UNL     1      18.874 -17.836 -58.386  1.00  0.00     0.021 C 
HETATM   10  C11 UNL     1      17.729 -17.830 -59.399  1.00  0.00     0.021 C 
ENDBRANCH   3   4
ENDBRANCH   1   3
BRANCH   1  11
HETATM   11  C3  UNL     1      15.529 -12.957 -54.744  1.00  0.00     0.168 C 
HETATM   12  S1  UNL     1      16.836 -12.146 -54.201  1.00  0.00    -0.041 SA
BRANCH  11  13
HETATM   13  N2  UNL     1      14.314 -12.933 -54.047  1.00  0.00    -0.363 N 
ATOM     14  H2  UNL     1      13.536 -12.415 -54.456  1.00  0.00     0.162 HD
BRANCH  13  15
HETATM   15  C4  UNL     1      14.098 -13.601 -52.778  1.00  0.00     0.085 C 
HETATM   16  C5  UNL     1      14.709 -12.832 -51.630  1.00  0.00     0.026 C 
HETATM   17  C6  UNL     1      14.637 -13.845 -50.508  1.00  0.00     0.022 C 
HETATM   18  C7  UNL     1      14.755 -15.199 -51.174  1.00  0.00     0.084 C 
HETATM   19 CL1  UNL     1      16.269 -15.959 -50.614  1.00  0.00    -0.125 Cl
HETATM   20  C8  UNL     1      14.838 -14.914 -52.680  1.00  0.00     0.045 C 
ENDBRANCH  13  15
ENDBRANCH  11  13
ENDBRANCH   1  11
TORSDOF 5
ENDMDL
