MODEL 1
REMARK VINA RESULT: -5.563942126      0.000      0.000
REMARK  6 active torsions:
REMARK  status: ('A' for Active; 'I' for Inactive)
REMARK    1  A    between atoms: C2_2  and  N1_3 
REMARK    2  A    between atoms: N1_3  and  C3_5 
REMARK    3  A    between atoms: C3_5  and  N2_7 
REMARK    4  A    between atoms: N2_7  and  C4_9 
REMARK    5  A    between atoms: N3_12  and  C7_13 
REMARK    6  A    between atoms: C7_13  and  C8_14 
ROOT
HETATM    1  C4  UNL     1      17.009 -14.415 -56.676  1.00  0.00     0.087 C 
HETATM    2  C5  UNL     1      16.232 -15.156 -57.777  1.00  0.00     0.055 C 
HETATM    3  C6  UNL     1      17.206 -15.195 -58.962  1.00  0.00     0.274 C 
HETATM    4  N3  UNL     1      18.085 -16.281 -58.699  1.00  0.00     0.089 N 
HETATM    5  C9  UNL     1      18.646 -16.217 -57.379  1.00  0.00     0.274 C 
HETATM    6  C10 UNL     1      18.380 -14.972 -56.609  1.00  0.00     0.055 C 
ENDROOT
BRANCH   1   7
HETATM    7  N2  UNL     1      16.213 -14.470 -55.499  1.00  0.00    -0.363 N 
ATOM      8  H2  UNL     1      15.847 -15.375 -55.203  1.00  0.00     0.162 HD
BRANCH   7   9
HETATM    9  C3  UNL     1      15.904 -13.335 -54.719  1.00  0.00     0.167 C 
HETATM   10  S1  UNL     1      17.110 -12.391 -54.184  1.00  0.00    -0.041 SA
BRANCH   9  11
HETATM   11  N1  UNL     1      14.558 -13.000 -54.403  1.00  0.00    -0.368 N 
ATOM     12  H1  UNL     1      13.885 -12.787 -55.139  1.00  0.00     0.161 HD
BRANCH  11  13
HETATM   13  C2  UNL     1      14.169 -12.968 -53.001  1.00  0.00     0.117 C 
HETATM   14  C1  UNL     1      14.266 -14.328 -52.377  1.00  0.00     0.026 C 
ENDBRANCH  11  13
ENDBRANCH   9  11
ENDBRANCH   7   9
ENDBRANCH   1   7
BRANCH   4  15
HETATM   15  C7  UNL     1      17.552 -17.560 -59.040  1.00  0.00     0.283 C 
BRANCH  15  16
HETATM   16  C8  UNL     1      18.116 -18.624 -58.141  1.00  0.00     0.115 C 
HETATM   17 BR1  UNL     1      18.778 -20.124 -59.176  1.00  0.00    -0.095 Br
ENDBRANCH  15  16
ENDBRANCH   4  15
TORSDOF 6
ENDMDL
MODEL 2
REMARK VINA RESULT: -5.408946819      1.711      2.097
REMARK  6 active torsions:
REMARK  status: ('A' for Active; 'I' for Inactive)
REMARK    1  A    between atoms: C2_2  and  N1_3 
REMARK    2  A    between atoms: N1_3  and  C3_5 
REMARK    3  A    between atoms: C3_5  and  N2_7 
REMARK    4  A    between atoms: N2_7  and  C4_9 
REMARK    5  A    between atoms: N3_12  and  C7_13 
REMARK    6  A    between atoms: C7_13  and  C8_14 
ROOT
HETATM    1  C4  UNL     1      18.242 -15.077 -58.018  1.00  0.00     0.087 C 
HETATM    2  C5  UNL     1      17.186 -16.182 -58.179  1.00  0.00     0.055 C 
HETATM    3  C6  UNL     1      17.677 -16.996 -59.384  1.00  0.00     0.274 C 
HETATM    4  N3  UNL     1      18.674 -17.872 -58.873  1.00  0.00     0.089 N 
HETATM    5  C9  UNL     1      19.659 -17.176 -58.095  1.00  0.00     0.274 C 
HETATM    6  C10 UNL     1      19.588 -15.690 -58.116  1.00  0.00     0.055 C 
ENDROOT
BRANCH   1   7
HETATM    7  N2  UNL     1      17.923 -14.369 -56.826  1.00  0.00    -0.363 N 
ATOM      8  H2  UNL     1      18.688 -14.002 -56.261  1.00  0.00     0.162 HD
BRANCH   7   9
HETATM    9  C3  UNL     1      16.599 -14.150 -56.388  1.00  0.00     0.167 C 
HETATM   10  S1  UNL     1      15.638 -13.158 -57.238  1.00  0.00    -0.041 SA
BRANCH   9  11
HETATM   11  N1  UNL     1      16.092 -14.788 -55.222  1.00  0.00    -0.368 N 
ATOM     12  H1  UNL     1      15.760 -15.751 -55.255  1.00  0.00     0.161 HD
BRANCH  11  13
HETATM   13  C2  UNL     1      16.060 -14.029 -53.981  1.00  0.00     0.117 C 
HETATM   14  C1  UNL     1      15.585 -14.873 -52.836  1.00  0.00     0.026 C 
ENDBRANCH  11  13
ENDBRANCH   9  11
ENDBRANCH   7   9
ENDBRANCH   1   7
BRANCH   4  15
HETATM   15  C7  UNL     1      18.156 -19.041 -58.240  1.00  0.00     0.283 C 
BRANCH  15  16
HETATM   16  C8  UNL     1      18.741 -20.279 -58.859  1.00  0.00     0.115 C 
HETATM   17 BR1  UNL     1      18.774 -21.740 -57.584  1.00  0.00    -0.095 Br
ENDBRANCH  15  16
ENDBRANCH   4  15
TORSDOF 6
ENDMDL
MODEL 3
REMARK VINA RESULT: -5.085422193      2.133      2.567
REMARK  6 active torsions:
REMARK  status: ('A' for Active; 'I' for Inactive)
REMARK    1  A    between atoms: C2_2  and  N1_3 
REMARK    2  A    between atoms: N1_3  and  C3_5 
REMARK    3  A    between atoms: C3_5  and  N2_7 
REMARK    4  A    between atoms: N2_7  and  C4_9 
REMARK    5  A    between atoms: N3_12  and  C7_13 
REMARK    6  A    between atoms: C7_13  and  C8_14 
ROOT
HETATM    1  C4  UNL     1      15.863 -13.596 -56.065  1.00  0.00     0.087 C 
HETATM    2  C5  UNL     1      17.183 -14.377 -55.953  1.00  0.00     0.055 C 
HETATM    3  C6  UNL     1      17.065 -15.467 -57.026  1.00  0.00     0.274 C 
HETATM    4  N3  UNL     1      17.416 -14.836 -58.251  1.00  0.00     0.089 N 
HETATM    5  C9  UNL     1      16.689 -13.616 -58.461  1.00  0.00     0.274 C 
HETATM    6  C10 UNL     1      15.592 -13.328 -57.497  1.00  0.00     0.055 C 
ENDROOT
BRANCH   1   7
HETATM    7  N2  UNL     1      15.968 -12.479 -55.191  1.00  0.00    -0.363 N 
ATOM      8  H2  UNL     1      16.529 -11.681 -55.489  1.00  0.00     0.162 HD
BRANCH   7   9
HETATM    9  C3  UNL     1      15.334 -12.420 -53.931  1.00  0.00     0.167 C 
HETATM   10  S1  UNL     1      15.900 -11.395 -52.809  1.00  0.00    -0.041 SA
BRANCH   9  11
HETATM   11  N1  UNL     1      14.206 -13.233 -53.633  1.00  0.00    -0.368 N 
ATOM     12  H1  UNL     1      13.361 -13.185 -54.201  1.00  0.00     0.161 HD
BRANCH  11  13
HETATM   13  C2  UNL     1      14.291 -14.135 -52.494  1.00  0.00     0.117 C 
HETATM   14  C1  UNL     1      15.323 -15.200 -52.717  1.00  0.00     0.026 C 
ENDBRANCH  11  13
ENDBRANCH   9  11
ENDBRANCH   7   9
ENDBRANCH   1   7
BRANCH   4  15
HETATM   15  C7  UNL     1      18.821 -14.717 -58.466  1.00  0.00     0.283 C 
BRANCH  15  16
HETATM   16  C8  UNL     1      19.513 -16.017 -58.167  1.00  0.00     0.115 C 
HETATM   17 BR1  UNL     1      21.335 -15.710 -57.576  1.00  0.00    -0.095 Br
ENDBRANCH  15  16
ENDBRANCH   4  15
TORSDOF 6
ENDMDL
MODEL 4
REMARK VINA RESULT: -5.082803218      1.309      1.728
REMARK  6 active torsions:
REMARK  status: ('A' for Active; 'I' for Inactive)
REMARK    1  A    between atoms: C2_2  and  N1_3 
REMARK    2  A    between atoms: N1_3  and  C3_5 
REMARK    3  A    between atoms: C3_5  and  N2_7 
REMARK    4  A    between atoms: N2_7  and  C4_9 
REMARK    5  A    between atoms: N3_12  and  C7_13 
REMARK    6  A    between atoms: C7_13  and  C8_14 
ROOT
HETATM    1  C4  UNL     1      16.934 -14.437 -56.565  1.00  0.00     0.087 C 
HETATM    2  C5  UNL     1      16.183 -15.157 -57.697  1.00  0.00     0.055 C 
HETATM    3  C6  UNL     1      17.107 -15.010 -58.913  1.00  0.00     0.274 C 
HETATM    4  N3  UNL     1      18.090 -16.028 -58.770  1.00  0.00     0.089 N 
HETATM    5  C9  UNL     1      18.697 -16.017 -57.469  1.00  0.00     0.274 C 
HETATM    6  C10 UNL     1      18.351 -14.867 -56.590  1.00  0.00     0.055 C 
ENDROOT
BRANCH   1   7
HETATM    7  N2  UNL     1      16.195 -14.660 -55.371  1.00  0.00    -0.363 N 
ATOM      8  H2  UNL     1      15.894 -15.611 -55.157  1.00  0.00     0.162 HD
BRANCH   7   9
HETATM    9  C3  UNL     1      15.857 -13.631 -54.465  1.00  0.00     0.167 C 
HETATM   10  S1  UNL     1      15.172 -14.018 -53.047  1.00  0.00    -0.041 SA
BRANCH   9  11
HETATM   11  N1  UNL     1      16.116 -12.265 -54.769  1.00  0.00    -0.368 N 
ATOM     12  H1  UNL     1      15.866 -11.875 -55.677  1.00  0.00     0.161 HD
BRANCH  11  13
HETATM   13  C2  UNL     1      16.745 -11.441 -53.748  1.00  0.00     0.117 C 
HETATM   14  C1  UNL     1      18.211 -11.739 -53.634  1.00  0.00     0.026 C 
ENDBRANCH  11  13
ENDBRANCH   9  11
ENDBRANCH   7   9
ENDBRANCH   1   7
BRANCH   4  15
HETATM   15  C7  UNL     1      17.662 -17.319 -59.199  1.00  0.00     0.283 C 
BRANCH  15  16
HETATM   16  C8  UNL     1      18.113 -18.374 -58.229  1.00  0.00     0.115 C 
HETATM   17 BR1  UNL     1      18.737 -19.953 -59.165  1.00  0.00    -0.095 Br
ENDBRANCH  15  16
ENDBRANCH   4  15
TORSDOF 6
ENDMDL
MODEL 5
REMARK VINA RESULT: -5.040245633      1.584      2.034
REMARK  6 active torsions:
REMARK  status: ('A' for Active; 'I' for Inactive)
REMARK    1  A    between atoms: C2_2  and  N1_3 
REMARK    2  A    between atoms: N1_3  and  C3_5 
REMARK    3  A    between atoms: C3_5  and  N2_7 
REMARK    4  A    between atoms: N2_7  and  C4_9 
REMARK    5  A    between atoms: N3_12  and  C7_13 
REMARK    6  A    between atoms: C7_13  and  C8_14 
ROOT
HETATM    1  C4  UNL     1      15.849 -12.918 -56.013  1.00  0.00     0.087 C 
HETATM    2  C5  UNL     1      15.452 -13.529 -57.367  1.00  0.00     0.055 C 
HETATM    3  C6  UNL     1      16.776 -13.632 -58.135  1.00  0.00     0.274 C 
HETATM    4  N3  UNL     1      17.401 -14.818 -57.660  1.00  0.00     0.089 N 
HETATM    5  C9  UNL     1      17.459 -14.863 -56.226  1.00  0.00     0.274 C 
HETATM    6  C10 UNL     1      17.051 -13.624 -55.510  1.00  0.00     0.055 C 
ENDROOT
BRANCH   1   7
HETATM    7  N2  UNL     1      14.685 -12.927 -55.197  1.00  0.00    -0.363 N 
ATOM      8  H2  UNL     1      13.774 -12.857 -55.651  1.00  0.00     0.162 HD
BRANCH   7   9
HETATM    9  C3  UNL     1      14.727 -13.027 -53.790  1.00  0.00     0.167 C 
HETATM   10  S1  UNL     1      15.245 -11.759 -52.921  1.00  0.00    -0.041 SA
BRANCH   9  11
HETATM   11  N1  UNL     1      14.315 -14.214 -53.121  1.00  0.00    -0.368 N 
ATOM     12  H1  UNL     1      13.330 -14.392 -52.931  1.00  0.00     0.161 HD
BRANCH  11  13
HETATM   13  C2  UNL     1      15.339 -15.165 -52.717  1.00  0.00     0.117 C 
HETATM   14  C1  UNL     1      14.962 -15.865 -51.445  1.00  0.00     0.026 C 
ENDBRANCH  11  13
ENDBRANCH   9  11
ENDBRANCH   7   9
ENDBRANCH   1   7
BRANCH   4  15
HETATM   15  C7  UNL     1      16.912 -16.017 -58.258  1.00  0.00     0.283 C 
BRANCH  15  16
HETATM   16  C8  UNL     1      17.945 -16.609 -59.175  1.00  0.00     0.115 C 
HETATM   17 BR1  UNL     1      17.656 -18.512 -59.405  1.00  0.00    -0.095 Br
ENDBRANCH  15  16
ENDBRANCH   4  15
TORSDOF 6
ENDMDL
