MODEL 1
REMARK VINA RESULT: -9.420998870      0.000      0.000
REMARK  5 active torsions:
REMARK  status: ('A' for Active; 'I' for Inactive)
REMARK    1  A    between atoms: C3_4  and  C4_5 
REMARK    2  A    between atoms: C5_10  and  C6_11 
REMARK    3  A    between atoms: C6_11  and  N4_12 
REMARK    4  A    between atoms: N5_23  and  C15_24 
REMARK    5  A    between atoms: C15_24  and  C16_25 
ROOT
HETATM    1  C1  UNL     1      37.747  39.252  56.826  1.00  0.00     0.156 C 
HETATM    2  N1  UNL     1      38.242  38.856  55.516  1.00  0.00    -0.358 N 
HETATM    3  C2  UNL     1      37.546  38.172  54.606  1.00  0.00     0.109 A 
HETATM    4  C3  UNL     1      38.334  37.963  53.456  1.00  0.00     0.061 A 
HETATM    5  C11 UNL     1      39.538  38.562  53.736  1.00  0.00     0.078 A 
HETATM    6  C12 UNL     1      39.467  39.116  55.026  1.00  0.00     0.070 A 
HETATM    7  C13 UNL     1      40.670  39.718  55.301  1.00  0.00    -0.006 A 
HETATM    8  C14 UNL     1      41.485  39.550  54.213  1.00  0.00     0.020 A 
HETATM    9  N5  UNL     1      40.772  38.845  53.283  1.00  0.00    -0.347 N 
HETATM   10  C22 UNL     1      42.836  40.142  54.267  1.00  0.00     0.058 C 
HETATM   11  C23 UNL     1      42.780  41.521  54.875  1.00  0.00     0.006 C 
HETATM   12  C24 UNL     1      42.074  41.587  56.188  1.00  0.00     0.005 C 
HETATM   13  C25 UNL     1      41.162  40.449  56.490  1.00  0.00     0.043 C 
ENDROOT
BRANCH   4  14
HETATM   14  C4  UNL     1      37.890  37.263  52.262  1.00  0.00     0.178 A 
HETATM   15  N2  UNL     1      38.095  37.370  50.964  1.00  0.00    -0.277 N 
HETATM   16  N3  UNL     1      37.441  36.465  50.271  1.00  0.00    -0.280 N 
ATOM     17  H2  UNL     1      38.697  38.078  50.544  1.00  0.00     0.189 HD
HETATM   18  C5  UNL     1      36.780  35.739  51.162  1.00  0.00     0.169 A 
ATOM     19  H3  UNL     1      37.441  36.346  49.258  1.00  0.00     0.189 HD
HETATM   20  O2  UNL     1      37.047  36.212  52.336  1.00  0.00    -0.275 OA
BRANCH  18  21
HETATM   21  C6  UNL     1      35.873  34.575  50.963  1.00  0.00     0.358 C 
BRANCH  21  22
HETATM   22  N4  UNL     1      36.295  33.385  51.622  1.00  0.00     0.100 N 
HETATM   23  C7  UNL     1      37.408  32.830  50.882  1.00  0.00     0.299 C 
HETATM   24  C8  UNL     1      36.881  32.004  49.722  1.00  0.00     0.198 C 
HETATM   25  O1  UNL     1      36.187  30.932  50.281  1.00  0.00    -0.388 OA
HETATM   26  C9  UNL     1      35.019  31.439  50.835  1.00  0.00     0.198 C 
HETATM   27  C10 UNL     1      35.288  32.435  51.936  1.00  0.00     0.299 C 
ENDBRANCH  21  22
ENDBRANCH  18  21
ENDBRANCH   4  14
BRANCH   9  28
HETATM   28  C15 UNL     1      41.313  38.500  52.008  1.00  0.00     0.134 C 
BRANCH  28  29
HETATM   29  C16 UNL     1      42.180  37.275  51.967  1.00  0.00     0.004 C 
HETATM   30  C17 UNL     1      42.093  36.487  53.228  1.00  0.00     0.006 C 
HETATM   31  C18 UNL     1      42.936  35.213  53.151  1.00  0.00     0.000 C 
HETATM   32  C19 UNL     1      44.243  35.477  52.445  1.00  0.00     0.000 C 
HETATM   33  C20 UNL     1      44.577  36.958  52.517  1.00  0.00     0.000 C 
HETATM   34  C21 UNL     1      43.600  37.684  51.632  1.00  0.00     0.006 C 
ENDBRANCH  28  29
ENDBRANCH   9  28
TORSDOF 5
ENDMDL
MODEL 2
REMARK VINA RESULT: -9.205308939      3.977      8.136
REMARK  5 active torsions:
REMARK  status: ('A' for Active; 'I' for Inactive)
REMARK    1  A    between atoms: C3_4  and  C4_5 
REMARK    2  A    between atoms: C5_10  and  C6_11 
REMARK    3  A    between atoms: C6_11  and  N4_12 
REMARK    4  A    between atoms: N5_23  and  C15_24 
REMARK    5  A    between atoms: C15_24  and  C16_25 
ROOT
HETATM    1  C1  UNL     1      41.080  33.527  54.050  1.00  0.00     0.156 C 
HETATM    2  N1  UNL     1      41.505  34.857  53.641  1.00  0.00    -0.358 N 
HETATM    3  C2  UNL     1      42.737  35.182  53.242  1.00  0.00     0.109 A 
HETATM    4  C3  UNL     1      42.792  36.553  52.920  1.00  0.00     0.061 A 
HETATM    5  C11 UNL     1      41.523  37.024  53.152  1.00  0.00     0.078 A 
HETATM    6  C12 UNL     1      40.729  35.954  53.601  1.00  0.00     0.070 A 
HETATM    7  C13 UNL     1      39.460  36.427  53.827  1.00  0.00    -0.006 A 
HETATM    8  C14 UNL     1      39.448  37.764  53.529  1.00  0.00     0.020 A 
HETATM    9  N5  UNL     1      40.711  38.096  53.125  1.00  0.00    -0.347 N 
HETATM   10  C22 UNL     1      38.170  38.490  53.671  1.00  0.00     0.058 C 
HETATM   11  C23 UNL     1      37.032  37.657  53.135  1.00  0.00     0.006 C 
HETATM   12  C24 UNL     1      36.968  36.273  53.688  1.00  0.00     0.005 C 
HETATM   13  C25 UNL     1      38.226  35.762  54.301  1.00  0.00     0.043 C 
ENDROOT
BRANCH   4  14
HETATM   14  C4  UNL     1      43.976  37.245  52.440  1.00  0.00     0.178 A 
HETATM   15  N2  UNL     1      44.223  38.325  51.724  1.00  0.00    -0.277 N 
HETATM   16  N3  UNL     1      45.509  38.539  51.556  1.00  0.00    -0.280 N 
ATOM     17  H2  UNL     1      43.495  38.928  51.342  1.00  0.00     0.189 HD
HETATM   18  C5  UNL     1      46.123  37.551  52.192  1.00  0.00     0.169 A 
ATOM     19  H3  UNL     1      45.944  39.305  51.042  1.00  0.00     0.189 HD
HETATM   20  O2  UNL     1      45.216  36.789  52.713  1.00  0.00    -0.275 OA
BRANCH  18  21
HETATM   21  C6  UNL     1      47.578  37.270  52.345  1.00  0.00     0.358 C 
BRANCH  21  22
HETATM   22  N4  UNL     1      48.080  36.277  51.456  1.00  0.00     0.100 N 
HETATM   23  C7  UNL     1      47.869  34.980  52.063  1.00  0.00     0.299 C 
HETATM   24  C8  UNL     1      49.000  34.687  53.033  1.00  0.00     0.198 C 
HETATM   25  O1  UNL     1      50.163  34.597  52.271  1.00  0.00    -0.388 OA
HETATM   26  C9  UNL     1      50.474  35.878  51.836  1.00  0.00     0.198 C 
HETATM   27  C10 UNL     1      49.396  36.468  50.960  1.00  0.00     0.299 C 
ENDBRANCH  21  22
ENDBRANCH  18  21
ENDBRANCH   4  14
BRANCH   9  28
HETATM   28  C15 UNL     1      41.060  39.420  52.720  1.00  0.00     0.134 C 
BRANCH  28  29
HETATM   29  C16 UNL     1      41.476  40.358  53.817  1.00  0.00     0.004 C 
HETATM   30  C17 UNL     1      42.662  39.853  54.564  1.00  0.00     0.006 C 
HETATM   31  C18 UNL     1      43.109  40.845  55.639  1.00  0.00     0.000 C 
HETATM   32  C19 UNL     1      41.917  41.464  56.326  1.00  0.00     0.000 C 
HETATM   33  C20 UNL     1      40.704  40.563  56.163  1.00  0.00     0.000 C 
HETATM   34  C21 UNL     1      40.287  40.623  54.719  1.00  0.00     0.006 C 
ENDBRANCH  28  29
ENDBRANCH   9  28
TORSDOF 5
ENDMDL
MODEL 3
REMARK VINA RESULT: -9.142956098      4.554      7.725
REMARK  5 active torsions:
REMARK  status: ('A' for Active; 'I' for Inactive)
REMARK    1  A    between atoms: C3_4  and  C4_5 
REMARK    2  A    between atoms: C5_10  and  C6_11 
REMARK    3  A    between atoms: C6_11  and  N4_12 
REMARK    4  A    between atoms: N5_23  and  C15_24 
REMARK    5  A    between atoms: C15_24  and  C16_25 
ROOT
HETATM    1  C1  UNL     1      42.435  41.923  55.899  1.00  0.00     0.156 C 
HETATM    2  N1  UNL     1      42.850  40.967  54.884  1.00  0.00    -0.358 N 
HETATM    3  C2  UNL     1      44.115  40.650  54.598  1.00  0.00     0.109 A 
HETATM    4  C3  UNL     1      44.148  39.692  53.565  1.00  0.00     0.061 A 
HETATM    5  C11 UNL     1      42.831  39.459  53.252  1.00  0.00     0.078 A 
HETATM    6  C12 UNL     1      42.030  40.262  54.085  1.00  0.00     0.070 A 
HETATM    7  C13 UNL     1      40.715  40.023  53.773  1.00  0.00    -0.006 A 
HETATM    8  C14 UNL     1      40.680  39.093  52.769  1.00  0.00     0.020 A 
HETATM    9  N5  UNL     1      41.976  38.773  52.474  1.00  0.00    -0.347 N 
HETATM   10  C22 UNL     1      39.357  38.655  52.282  1.00  0.00     0.058 C 
HETATM   11  C23 UNL     1      38.415  38.448  53.441  1.00  0.00     0.006 C 
HETATM   12  C24 UNL     1      38.324  39.607  54.376  1.00  0.00     0.005 C 
HETATM   13  C25 UNL     1      39.454  40.576  54.316  1.00  0.00     0.043 C 
ENDROOT
BRANCH   4  14
HETATM   14  C4  UNL     1      45.360  39.113  53.010  1.00  0.00     0.178 A 
HETATM   15  N2  UNL     1      45.953  39.093  51.832  1.00  0.00    -0.277 N 
HETATM   16  N3  UNL     1      47.073  38.405  51.839  1.00  0.00    -0.280 N 
ATOM     17  H2  UNL     1      45.583  39.561  51.005  1.00  0.00     0.189 HD
HETATM   18  C5  UNL     1      47.211  37.958  53.080  1.00  0.00     0.169 A 
ATOM     19  H3  UNL     1      47.705  38.248  51.054  1.00  0.00     0.189 HD
HETATM   20  O2  UNL     1      46.199  38.378  53.769  1.00  0.00    -0.275 OA
BRANCH  18  21
HETATM   21  C6  UNL     1      48.288  37.123  53.681  1.00  0.00     0.358 C 
BRANCH  21  22
HETATM   22  N4  UNL     1      48.001  35.728  53.709  1.00  0.00     0.100 N 
HETATM   23  C7  UNL     1      49.136  35.045  54.293  1.00  0.00     0.299 C 
HETATM   24  C8  UNL     1      50.188  34.811  53.224  1.00  0.00     0.198 C 
HETATM   25  O1  UNL     1      49.623  33.941  52.294  1.00  0.00    -0.388 OA
HETATM   26  C9  UNL     1      48.653  34.650  51.599  1.00  0.00     0.198 C 
HETATM   27  C10 UNL     1      47.545  35.145  52.497  1.00  0.00     0.299 C 
ENDBRANCH  21  22
ENDBRANCH  18  21
ENDBRANCH   4  14
BRANCH   9  28
HETATM   28  C15 UNL     1      42.317  37.812  51.474  1.00  0.00     0.134 C 
BRANCH  28  29
HETATM   29  C16 UNL     1      42.448  36.391  51.940  1.00  0.00     0.004 C 
HETATM   30  C17 UNL     1      41.770  36.167  53.247  1.00  0.00     0.006 C 
HETATM   31  C18 UNL     1      41.863  34.704  53.682  1.00  0.00     0.000 C 
HETATM   32  C19 UNL     1      43.223  34.135  53.364  1.00  0.00     0.000 C 
HETATM   33  C20 UNL     1      44.235  35.262  53.236  1.00  0.00     0.000 C 
HETATM   34  C21 UNL     1      43.916  36.014  51.972  1.00  0.00     0.006 C 
ENDBRANCH  28  29
ENDBRANCH   9  28
TORSDOF 5
ENDMDL
MODEL 4
REMARK VINA RESULT: -9.005281892      1.473      1.849
REMARK  5 active torsions:
REMARK  status: ('A' for Active; 'I' for Inactive)
REMARK    1  A    between atoms: C3_4  and  C4_5 
REMARK    2  A    between atoms: C5_10  and  C6_11 
REMARK    3  A    between atoms: C6_11  and  N4_12 
REMARK    4  A    between atoms: N5_23  and  C15_24 
REMARK    5  A    between atoms: C15_24  and  C16_25 
ROOT
HETATM    1  C1  UNL     1      38.182  39.136  56.955  1.00  0.00     0.156 C 
HETATM    2  N1  UNL     1      38.872  38.545  55.819  1.00  0.00    -0.358 N 
HETATM    3  C2  UNL     1      38.403  37.547  55.068  1.00  0.00     0.109 A 
HETATM    4  C3  UNL     1      39.331  37.228  54.058  1.00  0.00     0.061 A 
HETATM    5  C11 UNL     1      40.380  38.094  54.251  1.00  0.00     0.078 A 
HETATM    6  C12 UNL     1      40.080  38.912  55.355  1.00  0.00     0.070 A 
HETATM    7  C13 UNL     1      41.127  39.780  55.542  1.00  0.00    -0.006 A 
HETATM    8  C14 UNL     1      42.069  39.520  54.583  1.00  0.00     0.020 A 
HETATM    9  N5  UNL     1      41.588  38.493  53.817  1.00  0.00    -0.347 N 
HETATM   10  C22 UNL     1      43.286  40.355  54.568  1.00  0.00     0.058 C 
HETATM   11  C23 UNL     1      42.932  41.801  54.807  1.00  0.00     0.006 C 
HETATM   12  C24 UNL     1      42.091  42.038  56.016  1.00  0.00     0.005 C 
HETATM   13  C25 UNL     1      41.359  40.850  56.538  1.00  0.00     0.043 C 
ENDROOT
BRANCH   4  14
HETATM   14  C4  UNL     1      39.141  36.196  53.052  1.00  0.00     0.178 A 
HETATM   15  N2  UNL     1      39.747  35.075  52.712  1.00  0.00    -0.277 N 
HETATM   16  N3  UNL     1      39.170  34.475  51.695  1.00  0.00    -0.280 N 
ATOM     17  H2  UNL     1      40.574  34.713  53.187  1.00  0.00     0.189 HD
HETATM   18  C5  UNL     1      38.143  35.244  51.360  1.00  0.00     0.169 A 
ATOM     19  H3  UNL     1      39.453  33.600  51.254  1.00  0.00     0.189 HD
HETATM   20  O2  UNL     1      38.128  36.259  52.163  1.00  0.00    -0.275 OA
BRANCH  18  21
HETATM   21  C6  UNL     1      37.130  35.071  50.282  1.00  0.00     0.358 C 
BRANCH  21  22
HETATM   22  N4  UNL     1      36.818  33.713  49.984  1.00  0.00     0.100 N 
HETATM   23  C7  UNL     1      36.058  33.685  48.752  1.00  0.00     0.299 C 
HETATM   24  C8  UNL     1      34.595  33.957  49.057  1.00  0.00     0.198 C 
HETATM   25  O1  UNL     1      34.148  32.893  49.838  1.00  0.00    -0.388 OA
HETATM   26  C9  UNL     1      34.737  33.022  51.089  1.00  0.00     0.198 C 
HETATM   27  C10 UNL     1      36.243  32.945  51.028  1.00  0.00     0.299 C 
ENDBRANCH  21  22
ENDBRANCH  18  21
ENDBRANCH   4  14
BRANCH   9  28
HETATM   28  C15 UNL     1      42.311  37.968  52.704  1.00  0.00     0.134 C 
BRANCH  28  29
HETATM   29  C16 UNL     1      43.599  37.266  53.024  1.00  0.00     0.004 C 
HETATM   30  C17 UNL     1      44.726  37.753  52.180  1.00  0.00     0.006 C 
HETATM   31  C18 UNL     1      46.042  37.071  52.556  1.00  0.00     0.000 C 
HETATM   32  C19 UNL     1      45.822  35.609  52.854  1.00  0.00     0.000 C 
HETATM   33  C20 UNL     1      44.543  35.134  52.183  1.00  0.00     0.000 C 
HETATM   34  C21 UNL     1      43.389  35.769  52.909  1.00  0.00     0.006 C 
ENDBRANCH  28  29
ENDBRANCH   9  28
TORSDOF 5
ENDMDL
MODEL 5
REMARK VINA RESULT: -8.987431803      2.062      4.228
REMARK  5 active torsions:
REMARK  status: ('A' for Active; 'I' for Inactive)
REMARK    1  A    between atoms: C3_4  and  C4_5 
REMARK    2  A    between atoms: C5_10  and  C6_11 
REMARK    3  A    between atoms: C6_11  and  N4_12 
REMARK    4  A    between atoms: N5_23  and  C15_24 
REMARK    5  A    between atoms: C15_24  and  C16_25 
ROOT
HETATM    1  C1  UNL     1      44.740  37.799  52.140  1.00  0.00     0.156 C 
HETATM    2  N1  UNL     1      43.368  37.494  52.516  1.00  0.00    -0.358 N 
HETATM    3  C2  UNL     1      42.692  36.406  52.142  1.00  0.00     0.109 A 
HETATM    4  C3  UNL     1      41.394  36.436  52.689  1.00  0.00     0.061 A 
HETATM    5  C11 UNL     1      41.337  37.604  53.409  1.00  0.00     0.078 A 
HETATM    6  C12 UNL     1      42.578  38.256  53.293  1.00  0.00     0.070 A 
HETATM    7  C13 UNL     1      42.519  39.420  54.018  1.00  0.00    -0.006 A 
HETATM    8  C14 UNL     1      41.273  39.507  54.579  1.00  0.00     0.020 A 
HETATM    9  N5  UNL     1      40.580  38.394  54.191  1.00  0.00    -0.347 N 
HETATM   10  C22 UNL     1      40.983  40.675  55.434  1.00  0.00     0.058 C 
HETATM   11  C23 UNL     1      42.161  40.976  56.327  1.00  0.00     0.006 C 
HETATM   12  C24 UNL     1      43.462  41.102  55.609  1.00  0.00     0.005 C 
HETATM   13  C25 UNL     1      43.515  40.490  54.252  1.00  0.00     0.043 C 
ENDROOT
BRANCH   4  14
HETATM   14  C4  UNL     1      40.388  35.404  52.496  1.00  0.00     0.178 A 
HETATM   15  N2  UNL     1      40.204  34.165  52.910  1.00  0.00    -0.277 N 
HETATM   16  N3  UNL     1      39.098  33.632  52.439  1.00  0.00    -0.280 N 
ATOM     17  H2  UNL     1      40.849  33.674  53.529  1.00  0.00     0.189 HD
HETATM   18  C5  UNL     1      38.542  34.570  51.684  1.00  0.00     0.169 A 
ATOM     19  H3  UNL     1      38.743  32.693  52.617  1.00  0.00     0.189 HD
HETATM   20  O2  UNL     1      39.305  35.614  51.720  1.00  0.00    -0.275 OA
BRANCH  18  21
HETATM   21  C6  UNL     1      37.278  34.538  50.898  1.00  0.00     0.358 C 
BRANCH  21  22
HETATM   22  N4  UNL     1      36.865  33.233  50.505  1.00  0.00     0.100 N 
HETATM   23  C7  UNL     1      36.367  33.306  49.148  1.00  0.00     0.299 C 
HETATM   24  C8  UNL     1      34.918  33.762  49.166  1.00  0.00     0.198 C 
HETATM   25  O1  UNL     1      34.195  32.761  49.813  1.00  0.00    -0.388 OA
HETATM   26  C9  UNL     1      34.535  32.809  51.158  1.00  0.00     0.198 C 
HETATM   27  C10 UNL     1      36.001  32.540  51.393  1.00  0.00     0.299 C 
ENDBRANCH  21  22
ENDBRANCH  18  21
ENDBRANCH   4  14
BRANCH   9  28
HETATM   28  C15 UNL     1      39.238  38.146  54.609  1.00  0.00     0.134 C 
BRANCH  28  29
HETATM   29  C16 UNL     1      39.070  37.579  55.989  1.00  0.00     0.004 C 
HETATM   30  C17 UNL     1      39.520  36.161  56.069  1.00  0.00     0.006 C 
HETATM   31  C18 UNL     1      39.397  35.615  57.492  1.00  0.00     0.000 C 
HETATM   32  C19 UNL     1      38.128  36.103  58.146  1.00  0.00     0.000 C 
HETATM   33  C20 UNL     1      37.121  36.504  57.081  1.00  0.00     0.000 C 
HETATM   34  C21 UNL     1      37.630  37.760  56.427  1.00  0.00     0.006 C 
ENDBRANCH  28  29
ENDBRANCH   9  28
TORSDOF 5
ENDMDL
