MODEL 1
REMARK VINA RESULT: -9.047012928      0.000      0.000
REMARK  6 active torsions:
REMARK  status: ('A' for Active; 'I' for Inactive)
REMARK       I    between atoms: C1_2  and  N1_3 
REMARK    1  A    between atoms: C1_2  and  C18_29 
REMARK    2  A    between atoms: N1_3  and  C2_5 
REMARK    3  A    between atoms: C3_10  and  S1_11 
REMARK    4  A    between atoms: S1_11  and  C4_12 
REMARK    5  A    between atoms: C4_12  and  C5_14 
REMARK    6  A    between atoms: N4_17  and  C8_18 
ROOT
HETATM    1  S1  UNL     1      42.786  40.892  55.583  1.00  0.00    -0.025 SA
ENDROOT
BRANCH   1   2
HETATM    2  C3  UNL     1      43.957  40.256  54.366  1.00  0.00     0.137 A 
HETATM    3  N3  UNL     1      45.145  40.723  54.012  1.00  0.00    -0.286 N 
HETATM    4  N2  UNL     1      45.829  40.130  53.126  1.00  0.00    -0.278 N 
ATOM      5  H3  UNL     1      45.510  41.565  54.457  1.00  0.00     0.188 HD
HETATM    6  C2  UNL     1      45.335  39.028  52.558  1.00  0.00     0.168 A 
ATOM      7  H2  UNL     1      46.743  40.490  52.852  1.00  0.00     0.189 HD
HETATM    8  S2  UNL     1      43.825  38.875  53.357  1.00  0.00    -0.026 SA
BRANCH   6   9
HETATM    9  N1  UNL     1      45.863  38.272  51.623  1.00  0.00    -0.300 N 
HETATM   10  C1  UNL     1      47.191  37.856  51.798  1.00  0.00     0.281 C 
HETATM   11  O1  UNL     1      48.093  38.345  51.059  1.00  0.00    -0.265 OA
ATOM     12  H1  UNL     1      45.328  37.997  50.799  1.00  0.00     0.171 HD
BRANCH  10  13
HETATM   13  C18 UNL     1      47.556  36.883  52.802  1.00  0.00     0.142 A 
HETATM   14  C19 UNL     1      48.075  37.139  54.039  1.00  0.00     0.045 A 
HETATM   15  C20 UNL     1      48.271  35.931  54.664  1.00  0.00     0.027 A 
HETATM   16  C21 UNL     1      47.845  34.976  53.733  1.00  0.00     0.143 A 
HETATM   17  O3  UNL     1      47.429  35.570  52.643  1.00  0.00    -0.317 OA
ENDBRANCH  10  13
ENDBRANCH   6   9
ENDBRANCH   1   2
BRANCH   1  18
HETATM   18  C4  UNL     1      41.199  41.044  54.765  1.00  0.00     0.197 C 
HETATM   19  O2  UNL     1      40.632  42.102  54.577  1.00  0.00    -0.285 OA
BRANCH  18  20
HETATM   20  C5  UNL     1      40.513  39.807  54.278  1.00  0.00     0.070 C 
HETATM   21  C6  UNL     1      40.239  40.009  52.802  1.00  0.00     0.043 C 
HETATM   22  C7  UNL     1      39.460  38.895  52.196  1.00  0.00     0.273 C 
HETATM   23  N4  UNL     1      38.635  38.147  53.120  1.00  0.00     0.093 N 
HETATM   24  C16 UNL     1      38.224  38.966  54.186  1.00  0.00     0.273 C 
HETATM   25  C17 UNL     1      39.279  39.550  55.058  1.00  0.00     0.043 C 
BRANCH  23  26
HETATM   26  C8  UNL     1      39.232  36.891  53.372  1.00  0.00     0.223 C 
HETATM   27  C9  UNL     1      38.369  35.711  53.546  1.00  0.00     0.036 C 
HETATM   28  C10 UNL     1      38.520  34.599  52.552  1.00  0.00     0.002 C 
HETATM   29  C11 UNL     1      39.762  33.803  52.610  1.00  0.00     0.000 C 
HETATM   30  C12 UNL     1      40.562  33.887  53.864  1.00  0.00     0.000 C 
HETATM   31  C13 UNL     1      41.409  35.102  54.016  1.00  0.00     0.000 C 
HETATM   32  C14 UNL     1      41.525  35.984  52.826  1.00  0.00     0.002 C 
HETATM   33  C15 UNL     1      40.329  36.677  52.326  1.00  0.00     0.036 C 
ENDBRANCH  23  26
ENDBRANCH  18  20
ENDBRANCH   1  18
TORSDOF 6
ENDMDL
MODEL 2
REMARK VINA RESULT: -8.675057442      1.141      1.501
REMARK  6 active torsions:
REMARK  status: ('A' for Active; 'I' for Inactive)
REMARK       I    between atoms: C1_2  and  N1_3 
REMARK    1  A    between atoms: C1_2  and  C18_29 
REMARK    2  A    between atoms: N1_3  and  C2_5 
REMARK    3  A    between atoms: C3_10  and  S1_11 
REMARK    4  A    between atoms: S1_11  and  C4_12 
REMARK    5  A    between atoms: C4_12  and  C5_14 
REMARK    6  A    between atoms: N4_17  and  C8_18 
ROOT
HETATM    1  S1  UNL     1      42.502  41.236  55.714  1.00  0.00    -0.025 SA
ENDROOT
BRANCH   1   2
HETATM    2  C3  UNL     1      43.657  40.434  54.582  1.00  0.00     0.137 A 
HETATM    3  N3  UNL     1      44.934  40.699  54.351  1.00  0.00    -0.286 N 
HETATM    4  N2  UNL     1      45.588  40.017  53.508  1.00  0.00    -0.278 N 
ATOM      5  H3  UNL     1      45.393  41.457  54.856  1.00  0.00     0.188 HD
HETATM    6  C2  UNL     1      44.971  39.026  52.859  1.00  0.00     0.168 A 
ATOM      7  H2  UNL     1      46.571  40.221  53.327  1.00  0.00     0.189 HD
HETATM    8  S2  UNL     1      43.389  39.117  53.517  1.00  0.00    -0.026 SA
BRANCH   6   9
HETATM    9  N1  UNL     1      45.449  38.211  51.948  1.00  0.00    -0.300 N 
HETATM   10  C1  UNL     1      46.763  37.750  52.115  1.00  0.00     0.281 C 
HETATM   11  O1  UNL     1      47.666  38.172  51.336  1.00  0.00    -0.265 OA
ATOM     12  H1  UNL     1      44.885  37.922  51.149  1.00  0.00     0.171 HD
BRANCH  10  13
HETATM   13  C18 UNL     1      47.112  36.809  53.153  1.00  0.00     0.142 A 
HETATM   14  C19 UNL     1      48.131  36.925  54.054  1.00  0.00     0.045 A 
HETATM   15  C20 UNL     1      48.102  35.810  54.857  1.00  0.00     0.027 A 
HETATM   16  C21 UNL     1      47.027  35.053  54.377  1.00  0.00     0.143 A 
HETATM   17  O3  UNL     1      46.462  35.670  53.369  1.00  0.00    -0.317 OA
ENDBRANCH  10  13
ENDBRANCH   6   9
ENDBRANCH   1   2
BRANCH   1  18
HETATM   18  C4  UNL     1      40.947  41.422  54.842  1.00  0.00     0.197 C 
HETATM   19  O2  UNL     1      40.563  42.468  54.357  1.00  0.00    -0.285 OA
BRANCH  18  20
HETATM   20  C5  UNL     1      40.052  40.232  54.694  1.00  0.00     0.070 C 
HETATM   21  C6  UNL     1      38.698  40.752  54.258  1.00  0.00     0.043 C 
HETATM   22  C7  UNL     1      37.665  39.685  54.169  1.00  0.00     0.273 C 
HETATM   23  N4  UNL     1      37.902  38.527  55.003  1.00  0.00     0.093 N 
HETATM   24  C16 UNL     1      38.629  38.888  56.151  1.00  0.00     0.273 C 
HETATM   25  C17 UNL     1      39.989  39.463  55.959  1.00  0.00     0.043 C 
BRANCH  23  26
HETATM   26  C8  UNL     1      38.331  37.447  54.197  1.00  0.00     0.223 C 
HETATM   27  C9  UNL     1      37.828  36.095  54.488  1.00  0.00     0.036 C 
HETATM   28  C10 UNL     1      37.015  35.423  53.422  1.00  0.00     0.002 C 
HETATM   29  C11 UNL     1      37.724  34.987  52.203  1.00  0.00     0.000 C 
HETATM   30  C12 UNL     1      39.208  34.875  52.286  1.00  0.00     0.000 C 
HETATM   31  C13 UNL     1      39.963  36.155  52.193  1.00  0.00     0.000 C 
HETATM   32  C14 UNL     1      39.181  37.363  51.820  1.00  0.00     0.002 C 
HETATM   33  C15 UNL     1      38.139  37.852  52.733  1.00  0.00     0.036 C 
ENDBRANCH  23  26
ENDBRANCH  18  20
ENDBRANCH   1  18
TORSDOF 6
ENDMDL
MODEL 3
REMARK VINA RESULT: -8.654828570      3.063      4.203
REMARK  6 active torsions:
REMARK  status: ('A' for Active; 'I' for Inactive)
REMARK       I    between atoms: C1_2  and  N1_3 
REMARK    1  A    between atoms: C1_2  and  C18_29 
REMARK    2  A    between atoms: N1_3  and  C2_5 
REMARK    3  A    between atoms: C3_10  and  S1_11 
REMARK    4  A    between atoms: S1_11  and  C4_12 
REMARK    5  A    between atoms: C4_12  and  C5_14 
REMARK    6  A    between atoms: N4_17  and  C8_18 
ROOT
HETATM    1  S1  UNL     1      40.567  37.641  53.542  1.00  0.00    -0.025 SA
ENDROOT
BRANCH   1   2
HETATM    2  C3  UNL     1      42.081  36.790  53.052  1.00  0.00     0.137 A 
HETATM    3  N3  UNL     1      43.120  37.242  52.367  1.00  0.00    -0.286 N 
HETATM    4  N2  UNL     1      44.104  36.484  52.118  1.00  0.00    -0.278 N 
ATOM      5  H3  UNL     1      43.128  38.207  52.038  1.00  0.00     0.188 HD
HETATM    6  C2  UNL     1      44.076  35.223  52.559  1.00  0.00     0.168 A 
ATOM      7  H2  UNL     1      44.904  36.830  51.588  1.00  0.00     0.189 HD
HETATM    8  S2  UNL     1      42.558  35.171  53.356  1.00  0.00    -0.026 SA
BRANCH   6   9
HETATM    9  N1  UNL     1      44.971  34.275  52.408  1.00  0.00    -0.300 N 
HETATM   10  C1  UNL     1      46.322  34.651  52.408  1.00  0.00     0.281 C 
HETATM   11  O1  UNL     1      46.977  34.600  51.327  1.00  0.00    -0.265 OA
ATOM     12  H1  UNL     1      44.695  33.300  52.293  1.00  0.00     0.171 HD
BRANCH  10  13
HETATM   13  C18 UNL     1      46.986  35.097  53.612  1.00  0.00     0.142 A 
HETATM   14  C19 UNL     1      47.714  36.241  53.769  1.00  0.00     0.045 A 
HETATM   15  C20 UNL     1      48.162  36.271  55.068  1.00  0.00     0.027 A 
HETATM   16  C21 UNL     1      47.662  35.097  55.644  1.00  0.00     0.143 A 
HETATM   17  O3  UNL     1      46.971  34.424  54.758  1.00  0.00    -0.317 OA
ENDBRANCH  10  13
ENDBRANCH   6   9
ENDBRANCH   1   2
BRANCH   1  18
HETATM   18  C4  UNL     1      39.642  37.984  52.046  1.00  0.00     0.197 C 
HETATM   19  O2  UNL     1      39.802  38.975  51.362  1.00  0.00    -0.285 OA
BRANCH  18  20
HETATM   20  C5  UNL     1      38.604  37.005  51.595  1.00  0.00     0.070 C 
HETATM   21  C6  UNL     1      37.971  37.580  50.346  1.00  0.00     0.043 C 
HETATM   22  C7  UNL     1      36.838  36.761  49.836  1.00  0.00     0.273 C 
HETATM   23  N4  UNL     1      36.173  35.945  50.829  1.00  0.00     0.093 N 
HETATM   24  C16 UNL     1      36.261  36.545  52.097  1.00  0.00     0.273 C 
HETATM   25  C17 UNL     1      37.618  36.753  52.673  1.00  0.00     0.043 C 
BRANCH  23  26
HETATM   26  C8  UNL     1      36.542  34.592  50.651  1.00  0.00     0.223 C 
HETATM   27  C9  UNL     1      36.242  33.623  51.716  1.00  0.00     0.036 C 
HETATM   28  C10 UNL     1      35.309  32.499  51.377  1.00  0.00     0.002 C 
HETATM   29  C11 UNL     1      35.810  31.458  50.457  1.00  0.00     0.000 C 
HETATM   30  C12 UNL     1      37.286  31.377  50.264  1.00  0.00     0.000 C 
HETATM   31  C13 UNL     1      37.878  32.387  49.344  1.00  0.00     0.000 C 
HETATM   32  C14 UNL     1      36.923  33.218  48.566  1.00  0.00     0.002 C 
HETATM   33  C15 UNL     1      36.033  34.145  49.278  1.00  0.00     0.036 C 
ENDBRANCH  23  26
ENDBRANCH  18  20
ENDBRANCH   1  18
TORSDOF 6
ENDMDL
MODEL 4
REMARK VINA RESULT: -8.548254632      3.078      4.076
REMARK  6 active torsions:
REMARK  status: ('A' for Active; 'I' for Inactive)
REMARK       I    between atoms: C1_2  and  N1_3 
REMARK    1  A    between atoms: C1_2  and  C18_29 
REMARK    2  A    between atoms: N1_3  and  C2_5 
REMARK    3  A    between atoms: C3_10  and  S1_11 
REMARK    4  A    between atoms: S1_11  and  C4_12 
REMARK    5  A    between atoms: C4_12  and  C5_14 
REMARK    6  A    between atoms: N4_17  and  C8_18 
ROOT
HETATM    1  S1  UNL     1      42.470  41.243  55.668  1.00  0.00    -0.025 SA
ENDROOT
BRANCH   1   2
HETATM    2  C3  UNL     1      43.641  40.437  54.556  1.00  0.00     0.137 A 
HETATM    3  N3  UNL     1      44.923  40.693  54.349  1.00  0.00    -0.286 N 
HETATM    4  N2  UNL     1      45.588  40.009  53.516  1.00  0.00    -0.278 N 
ATOM      5  H3  UNL     1      45.378  41.447  54.864  1.00  0.00     0.188 HD
HETATM    6  C2  UNL     1      44.976  39.024  52.853  1.00  0.00     0.168 A 
ATOM      7  H2  UNL     1      46.576  40.206  53.355  1.00  0.00     0.189 HD
HETATM    8  S2  UNL     1      43.383  39.125  53.482  1.00  0.00    -0.026 SA
BRANCH   6   9
HETATM    9  N1  UNL     1      45.465  38.208  51.949  1.00  0.00    -0.300 N 
HETATM   10  C1  UNL     1      46.775  37.743  52.135  1.00  0.00     0.281 C 
HETATM   11  O1  UNL     1      47.691  38.161  51.371  1.00  0.00    -0.265 OA
ATOM     12  H1  UNL     1      44.912  37.922  51.141  1.00  0.00     0.171 HD
BRANCH  10  13
HETATM   13  C18 UNL     1      47.105  36.799  53.177  1.00  0.00     0.142 A 
HETATM   14  C19 UNL     1      48.097  36.921  54.107  1.00  0.00     0.045 A 
HETATM   15  C20 UNL     1      48.058  35.802  54.903  1.00  0.00     0.027 A 
HETATM   16  C21 UNL     1      47.005  35.036  54.389  1.00  0.00     0.143 A 
HETATM   17  O3  UNL     1      46.462  35.652  53.369  1.00  0.00    -0.317 OA
ENDBRANCH  10  13
ENDBRANCH   6   9
ENDBRANCH   1   2
BRANCH   1  18
HETATM   18  C4  UNL     1      40.824  40.765  55.146  1.00  0.00     0.197 C 
HETATM   19  O2  UNL     1      40.300  41.151  54.119  1.00  0.00    -0.285 OA
BRANCH  18  20
HETATM   20  C5  UNL     1      40.030  39.838  56.010  1.00  0.00     0.070 C 
HETATM   21  C6  UNL     1      40.126  38.463  55.383  1.00  0.00     0.043 C 
HETATM   22  C7  UNL     1      39.292  37.445  56.079  1.00  0.00     0.273 C 
HETATM   23  N4  UNL     1      38.157  37.972  56.805  1.00  0.00     0.093 N 
HETATM   24  C16 UNL     1      37.695  39.156  56.205  1.00  0.00     0.273 C 
HETATM   25  C17 UNL     1      38.631  40.311  56.140  1.00  0.00     0.043 C 
BRANCH  23  26
HETATM   26  C8  UNL     1      38.427  37.932  58.193  1.00  0.00     0.223 C 
HETATM   27  C9  UNL     1      37.498  38.597  59.121  1.00  0.00     0.036 C 
HETATM   28  C10 UNL     1      36.796  37.731  60.124  1.00  0.00     0.002 C 
HETATM   29  C11 UNL     1      37.611  37.162  61.215  1.00  0.00     0.000 C 
HETATM   30  C12 UNL     1      38.936  37.795  61.473  1.00  0.00     0.000 C 
HETATM   31  C13 UNL     1      40.032  37.414  60.539  1.00  0.00     0.000 C 
HETATM   32  C14 UNL     1      39.746  36.299  59.599  1.00  0.00     0.002 C 
HETATM   33  C15 UNL     1      38.708  36.476  58.572  1.00  0.00     0.036 C 
ENDBRANCH  23  26
ENDBRANCH  18  20
ENDBRANCH   1  18
TORSDOF 6
ENDMDL
MODEL 5
REMARK VINA RESULT: -8.522726460      3.108      4.944
REMARK  6 active torsions:
REMARK  status: ('A' for Active; 'I' for Inactive)
REMARK       I    between atoms: C1_2  and  N1_3 
REMARK    1  A    between atoms: C1_2  and  C18_29 
REMARK    2  A    between atoms: N1_3  and  C2_5 
REMARK    3  A    between atoms: C3_10  and  S1_11 
REMARK    4  A    between atoms: S1_11  and  C4_12 
REMARK    5  A    between atoms: C4_12  and  C5_14 
REMARK    6  A    between atoms: N4_17  and  C8_18 
ROOT
HETATM    1  S1  UNL     1      42.374  41.315  55.821  1.00  0.00    -0.025 SA
ENDROOT
BRANCH   1   2
HETATM    2  C3  UNL     1      43.480  40.468  54.673  1.00  0.00     0.137 A 
HETATM    3  N3  UNL     1      44.764  40.679  54.427  1.00  0.00    -0.286 N 
HETATM    4  N2  UNL     1      45.378  39.972  53.574  1.00  0.00    -0.278 N 
ATOM      5  H3  UNL     1      45.261  41.416  54.927  1.00  0.00     0.188 HD
HETATM    6  C2  UNL     1      44.711  39.010  52.931  1.00  0.00     0.168 A 
ATOM      7  H2  UNL     1      46.367  40.134  53.382  1.00  0.00     0.189 HD
HETATM    8  S2  UNL     1      43.143  39.166  53.608  1.00  0.00    -0.026 SA
BRANCH   6   9
HETATM    9  N1  UNL     1      45.143  38.177  52.013  1.00  0.00    -0.300 N 
HETATM   10  C1  UNL     1      46.480  37.760  52.091  1.00  0.00     0.281 C 
HETATM   11  O1  UNL     1      47.307  38.179  51.232  1.00  0.00    -0.265 OA
ATOM     12  H1  UNL     1      44.529  37.845  51.269  1.00  0.00     0.171 HD
BRANCH  10  13
HETATM   13  C18 UNL     1      46.937  36.865  53.129  1.00  0.00     0.142 A 
HETATM   14  C19 UNL     1      47.938  37.098  54.028  1.00  0.00     0.045 A 
HETATM   15  C20 UNL     1      48.039  35.988  54.832  1.00  0.00     0.027 A 
HETATM   16  C21 UNL     1      47.056  35.112  54.355  1.00  0.00     0.143 A 
HETATM   17  O3  UNL     1      46.422  35.660  53.348  1.00  0.00    -0.317 OA
ENDBRANCH  10  13
ENDBRANCH   6   9
ENDBRANCH   1   2
BRANCH   1  18
HETATM   18  C4  UNL     1      40.710  41.151  55.174  1.00  0.00     0.197 C 
HETATM   19  O2  UNL     1      40.379  41.500  54.058  1.00  0.00    -0.285 OA
BRANCH  18  20
HETATM   20  C5  UNL     1      39.650  40.553  56.043  1.00  0.00     0.070 C 
HETATM   21  C6  UNL     1      40.329  39.518  56.916  1.00  0.00     0.043 C 
HETATM   22  C7  UNL     1      39.376  38.758  57.769  1.00  0.00     0.273 C 
HETATM   23  N4  UNL     1      38.020  38.689  57.266  1.00  0.00     0.093 N 
HETATM   24  C16 UNL     1      38.013  38.752  55.862  1.00  0.00     0.273 C 
HETATM   25  C17 UNL     1      38.559  39.979  55.220  1.00  0.00     0.043 C 
BRANCH  23  26
HETATM   26  C8  UNL     1      37.193  39.549  58.025  1.00  0.00     0.223 C 
HETATM   27  C9  UNL     1      35.733  39.462  57.863  1.00  0.00     0.036 C 
HETATM   28  C10 UNL     1      34.933  39.068  59.069  1.00  0.00     0.002 C 
HETATM   29  C11 UNL     1      34.838  40.049  60.168  1.00  0.00     0.000 C 
HETATM   30  C12 UNL     1      35.180  41.464  59.845  1.00  0.00     0.000 C 
HETATM   31  C13 UNL     1      36.633  41.782  59.772  1.00  0.00     0.000 C 
HETATM   32  C14 UNL     1      37.568  40.722  60.230  1.00  0.00     0.002 C 
HETATM   33  C15 UNL     1      37.638  39.456  59.486  1.00  0.00     0.036 C 
ENDBRANCH  23  26
ENDBRANCH  18  20
ENDBRANCH   1  18
TORSDOF 6
ENDMDL
