MODEL 1
REMARK VINA RESULT: -8.036613870      0.000      0.000
REMARK  7 active torsions:
REMARK  status: ('A' for Active; 'I' for Inactive)
REMARK    1  A    between atoms: C2_2  and  C3_3 
REMARK    2  A    between atoms: C3_3  and  C4_4 
REMARK    3  A    between atoms: C4_4  and  O1_5 
REMARK    4  A    between atoms: O1_5  and  C5_6 
REMARK    5  A    between atoms: C5_6  and  C6_8 
REMARK    6  A    between atoms: C19_23  and  C20_24 
REMARK    7  A    between atoms: C25_31  and  O7_32 
ROOT
HETATM    1  C6  UNL     1      40.390  35.673  53.433  1.00  0.00     0.149 C 
HETATM    2  C7  UNL     1      39.432  36.109  54.469  1.00  0.00    -0.003 C 
HETATM    3  C8  UNL     1      39.848  36.893  55.643  1.00  0.00    -0.027 C 
HETATM    4  C9  UNL     1      39.223  38.162  56.063  1.00  0.00     0.049 C 
HETATM    5  C10 UNL     1      39.702  39.520  55.504  1.00  0.00     0.023 C 
HETATM    6  C11 UNL     1      39.258  40.545  56.567  1.00  0.00     0.029 C 
HETATM    7  C12 UNL     1      41.088  39.746  55.388  1.00  0.00    -0.139 C 
HETATM    8  C13 UNL     1      42.446  40.149  55.443  1.00  0.00     0.133 C 
HETATM    9  C14 UNL     1      43.064  39.731  54.111  1.00  0.00     0.290 C 
HETATM   10  O3  UNL     1      44.211  40.241  53.888  1.00  0.00    -0.260 OA
HETATM   11  O4  UNL     1      42.518  38.897  53.179  1.00  0.00    -0.309 OA
HETATM   12  C15 UNL     1      41.769  37.746  53.215  1.00  0.00     0.176 A 
HETATM   13  C16 UNL     1      40.453  37.931  52.729  1.00  0.00     0.057 A 
HETATM   14  C17 UNL     1      40.297  39.287  52.176  1.00  0.00     0.011 C 
HETATM   15  C18 UNL     1      39.434  40.210  53.008  1.00  0.00     0.011 C 
HETATM   16  C19 UNL     1      38.816  39.766  54.279  1.00  0.00     0.040 C 
HETATM   17  C24 UNL     1      41.070  36.784  52.568  1.00  0.00     0.122 A 
HETATM   18  O6  UNL     1      41.177  35.831  51.616  1.00  0.00    -0.344 OA
HETATM   19  C25 UNL     1      39.883  35.417  52.057  1.00  0.00     0.283 C 
ENDROOT
BRANCH   1  20
HETATM   20  C5  UNL     1      41.364  34.680  53.901  1.00  0.00     0.279 C 
HETATM   21  O2  UNL     1      40.956  33.540  54.281  1.00  0.00    -0.264 OA
BRANCH  20  22
HETATM   22  O1  UNL     1      42.706  34.935  53.943  1.00  0.00    -0.320 OA
BRANCH  22  23
HETATM   23  C4  UNL     1      43.707  34.341  53.168  1.00  0.00     0.178 C 
BRANCH  23  24
HETATM   24  C3  UNL     1      44.594  35.375  52.565  1.00  0.00     0.026 C 
BRANCH  24  25
HETATM   25  C2  UNL     1      46.062  34.993  52.648  1.00  0.00    -0.002 C 
HETATM   26  C1  UNL     1      46.527  34.895  54.081  1.00  0.00     0.005 C 
ENDBRANCH  24  25
ENDBRANCH  23  24
ENDBRANCH  22  23
ENDBRANCH  20  22
ENDBRANCH   1  20
BRANCH  19  27
HETATM   27  O7  UNL     1      39.675  34.066  51.824  1.00  0.00    -0.369 OA
ATOM     28  H7  UNL     1      39.408  33.896  50.929  1.00  0.00     0.212 HD
ENDBRANCH  19  27
BRANCH  16  29
HETATM   29  C20 UNL     1      37.790  40.850  54.557  1.00  0.00    -0.028 A 
HETATM   30  C21 UNL     1      36.620  40.775  55.292  1.00  0.00     0.034 A 
HETATM   31  C22 UNL     1      35.982  41.995  55.265  1.00  0.00     0.142 A 
HETATM   32  O5  UNL     1      36.735  42.765  54.546  1.00  0.00    -0.334 OA
HETATM   33  C23 UNL     1      37.802  42.165  54.103  1.00  0.00     0.148 A 
ENDBRANCH  16  29
TORSDOF 7
ENDMDL
MODEL 2
REMARK VINA RESULT: -7.884898304      2.822      6.270
REMARK  7 active torsions:
REMARK  status: ('A' for Active; 'I' for Inactive)
REMARK    1  A    between atoms: C2_2  and  C3_3 
REMARK    2  A    between atoms: C3_3  and  C4_4 
REMARK    3  A    between atoms: C4_4  and  O1_5 
REMARK    4  A    between atoms: O1_5  and  C5_6 
REMARK    5  A    between atoms: C5_6  and  C6_8 
REMARK    6  A    between atoms: C19_23  and  C20_24 
REMARK    7  A    between atoms: C25_31  and  O7_32 
ROOT
HETATM    1  C6  UNL     1      39.008  40.657  54.082  1.00  0.00     0.149 C 
HETATM    2  C7  UNL     1      39.388  40.023  52.804  1.00  0.00    -0.003 C 
HETATM    3  C8  UNL     1      40.291  38.862  52.742  1.00  0.00    -0.027 C 
HETATM    4  C9  UNL     1      39.986  37.604  52.034  1.00  0.00     0.049 C 
HETATM    5  C10 UNL     1      39.228  36.452  52.729  1.00  0.00     0.023 C 
HETATM    6  C11 UNL     1      39.627  35.197  51.927  1.00  0.00     0.029 C 
HETATM    7  C12 UNL     1      39.577  36.122  54.053  1.00  0.00    -0.139 C 
HETATM    8  C13 UNL     1      40.004  35.573  55.288  1.00  0.00     0.133 C 
HETATM    9  C14 UNL     1      39.234  36.323  56.372  1.00  0.00     0.290 C 
HETATM   10  O3  UNL     1      39.305  35.787  57.526  1.00  0.00    -0.260 OA
HETATM   11  O4  UNL     1      38.506  37.468  56.217  1.00  0.00    -0.309 OA
HETATM   12  C15 UNL     1      38.643  38.623  55.487  1.00  0.00     0.176 A 
HETATM   13  C16 UNL     1      37.661  38.752  54.475  1.00  0.00     0.057 A 
HETATM   14  C17 UNL     1      36.667  37.671  54.584  1.00  0.00     0.011 C 
HETATM   15  C18 UNL     1      36.743  36.632  53.486  1.00  0.00     0.011 C 
HETATM   16  C19 UNL     1      37.753  36.713  52.406  1.00  0.00     0.040 C 
HETATM   17  C24 UNL     1      38.145  39.813  55.076  1.00  0.00     0.122 A 
HETATM   18  O6  UNL     1      37.689  41.002  55.526  1.00  0.00    -0.344 OA
HETATM   19  C25 UNL     1      37.717  41.396  54.153  1.00  0.00     0.283 C 
ENDROOT
BRANCH   1  20
HETATM   20  C5  UNL     1      40.116  41.333  54.766  1.00  0.00     0.279 C 
HETATM   21  O2  UNL     1      40.555  42.431  54.305  1.00  0.00    -0.264 OA
BRANCH  20  22
HETATM   22  O1  UNL     1      40.701  40.823  55.891  1.00  0.00    -0.320 OA
BRANCH  22  23
HETATM   23  C4  UNL     1      42.066  40.762  56.185  1.00  0.00     0.178 C 
BRANCH  23  24
HETATM   24  C3  UNL     1      42.822  40.133  55.066  1.00  0.00     0.026 C 
BRANCH  24  25
HETATM   25  C2  UNL     1      43.957  41.014  54.572  1.00  0.00    -0.002 C 
HETATM   26  C1  UNL     1      45.023  40.202  53.876  1.00  0.00     0.005 C 
ENDBRANCH  24  25
ENDBRANCH  23  24
ENDBRANCH  22  23
ENDBRANCH  20  22
ENDBRANCH   1  20
BRANCH  19  27
HETATM   27  O7  UNL     1      37.895  42.765  54.020  1.00  0.00    -0.369 OA
ATOM     28  H7  UNL     1      37.099  43.201  53.741  1.00  0.00     0.212 HD
ENDBRANCH  19  27
BRANCH  16  29
HETATM   29  C20 UNL     1      37.236  35.719  51.381  1.00  0.00    -0.028 A 
HETATM   30  C21 UNL     1      37.014  35.898  50.028  1.00  0.00     0.034 A 
HETATM   31  C22 UNL     1      36.521  34.733  49.484  1.00  0.00     0.142 A 
HETATM   32  O5  UNL     1      36.449  33.895  50.469  1.00  0.00    -0.334 OA
HETATM   33  C23 UNL     1      36.849  34.400  51.600  1.00  0.00     0.148 A 
ENDBRANCH  16  29
TORSDOF 7
ENDMDL
MODEL 3
REMARK VINA RESULT: -7.884095882      2.148      4.134
REMARK  7 active torsions:
REMARK  status: ('A' for Active; 'I' for Inactive)
REMARK    1  A    between atoms: C2_2  and  C3_3 
REMARK    2  A    between atoms: C3_3  and  C4_4 
REMARK    3  A    between atoms: C4_4  and  O1_5 
REMARK    4  A    between atoms: O1_5  and  C5_6 
REMARK    5  A    between atoms: C5_6  and  C6_8 
REMARK    6  A    between atoms: C19_23  and  C20_24 
REMARK    7  A    between atoms: C25_31  and  O7_32 
ROOT
HETATM    1  C6  UNL     1      41.276  38.063  52.728  1.00  0.00     0.149 C 
HETATM    2  C7  UNL     1      40.046  38.609  52.121  1.00  0.00    -0.003 C 
HETATM    3  C8  UNL     1      38.771  38.674  52.855  1.00  0.00    -0.027 C 
HETATM    4  C9  UNL     1      37.952  39.892  52.999  1.00  0.00     0.049 C 
HETATM    5  C10 UNL     1      38.189  40.892  54.153  1.00  0.00     0.023 C 
HETATM    6  C11 UNL     1      36.844  41.632  54.295  1.00  0.00     0.029 C 
HETATM    7  C12 UNL     1      38.423  40.380  55.444  1.00  0.00    -0.139 C 
HETATM    8  C13 UNL     1      38.442  39.976  56.803  1.00  0.00     0.133 C 
HETATM    9  C14 UNL     1      39.906  39.708  57.143  1.00  0.00     0.290 C 
HETATM   10  O3  UNL     1      40.134  39.580  58.390  1.00  0.00    -0.260 OA
HETATM   11  O4  UNL     1      40.945  39.601  56.264  1.00  0.00    -0.309 OA
HETATM   12  C15 UNL     1      41.117  39.062  55.013  1.00  0.00     0.176 A 
HETATM   13  C16 UNL     1      41.360  40.043  54.021  1.00  0.00     0.057 A 
HETATM   14  C17 UNL     1      41.508  41.371  54.639  1.00  0.00     0.011 C 
HETATM   15  C18 UNL     1      40.356  42.317  54.382  1.00  0.00     0.011 C 
HETATM   16  C19 UNL     1      39.178  41.912  53.580  1.00  0.00     0.040 C 
HETATM   17  C24 UNL     1      41.898  38.849  53.928  1.00  0.00     0.122 A 
HETATM   18  O6  UNL     1      43.073  38.310  53.536  1.00  0.00    -0.344 OA
HETATM   19  C25 UNL     1      42.592  38.527  52.209  1.00  0.00     0.283 C 
ENDROOT
BRANCH   1  20
HETATM   20  C5  UNL     1      41.220  36.621  52.996  1.00  0.00     0.279 C 
HETATM   21  O2  UNL     1      41.395  35.804  52.042  1.00  0.00    -0.264 OA
BRANCH  20  22
HETATM   22  O1  UNL     1      40.987  36.119  54.245  1.00  0.00    -0.320 OA
BRANCH  22  23
HETATM   23  C4  UNL     1      39.876  35.384  54.670  1.00  0.00     0.178 C 
BRANCH  23  24
HETATM   24  C3  UNL     1      39.036  36.186  55.604  1.00  0.00     0.026 C 
BRANCH  24  25
HETATM   25  C2  UNL     1      39.419  35.965  57.057  1.00  0.00    -0.002 C 
HETATM   26  C1  UNL     1      38.268  36.273  57.985  1.00  0.00     0.005 C 
ENDBRANCH  24  25
ENDBRANCH  23  24
ENDBRANCH  22  23
ENDBRANCH  20  22
ENDBRANCH   1  20
BRANCH  19  27
HETATM   27  O7  UNL     1      43.145  37.624  51.313  1.00  0.00    -0.369 OA
ATOM     28  H7  UNL     1      42.843  36.738  51.471  1.00  0.00     0.212 HD
ENDBRANCH  19  27
BRANCH  16  29
HETATM   29  C20 UNL     1      38.491  43.235  53.291  1.00  0.00    -0.028 A 
HETATM   30  C21 UNL     1      38.213  43.825  52.072  1.00  0.00     0.034 A 
HETATM   31  C22 UNL     1      37.594  45.037  52.278  1.00  0.00     0.142 A 
HETATM   32  O5  UNL     1      37.506  45.167  53.563  1.00  0.00    -0.334 OA
HETATM   33  C23 UNL     1      38.007  44.157  54.213  1.00  0.00     0.148 A 
ENDBRANCH  16  29
TORSDOF 7
ENDMDL
MODEL 4
REMARK VINA RESULT: -7.843473631      2.956      7.225
REMARK  7 active torsions:
REMARK  status: ('A' for Active; 'I' for Inactive)
REMARK    1  A    between atoms: C2_2  and  C3_3 
REMARK    2  A    between atoms: C3_3  and  C4_4 
REMARK    3  A    between atoms: C4_4  and  O1_5 
REMARK    4  A    between atoms: O1_5  and  C5_6 
REMARK    5  A    between atoms: C5_6  and  C6_8 
REMARK    6  A    between atoms: C19_23  and  C20_24 
REMARK    7  A    between atoms: C25_31  and  O7_32 
ROOT
HETATM    1  C6  UNL     1      39.039  38.420  57.335  1.00  0.00     0.149 C 
HETATM    2  C7  UNL     1      39.458  37.429  56.323  1.00  0.00    -0.003 C 
HETATM    3  C8  UNL     1      39.111  37.567  54.899  1.00  0.00    -0.027 C 
HETATM    4  C9  UNL     1      40.086  37.507  53.793  1.00  0.00     0.049 C 
HETATM    5  C10 UNL     1      40.831  38.769  53.306  1.00  0.00     0.023 C 
HETATM    6  C11 UNL     1      41.248  38.430  51.861  1.00  0.00     0.029 C 
HETATM    7  C12 UNL     1      40.102  39.967  53.167  1.00  0.00    -0.139 C 
HETATM    8  C13 UNL     1      39.419  41.147  52.784  1.00  0.00     0.133 C 
HETATM    9  C14 UNL     1      39.371  42.030  54.028  1.00  0.00     0.290 C 
HETATM   10  O3  UNL     1      39.017  43.233  53.799  1.00  0.00    -0.260 OA
HETATM   11  O4  UNL     1      39.663  41.659  55.308  1.00  0.00    -0.309 OA
HETATM   12  C15 UNL     1      39.458  40.536  56.073  1.00  0.00     0.176 A 
HETATM   13  C16 UNL     1      40.662  39.865  56.398  1.00  0.00     0.057 A 
HETATM   14  C17 UNL     1      41.824  40.649  55.946  1.00  0.00     0.011 C 
HETATM   15  C18 UNL     1      42.562  40.055  54.766  1.00  0.00     0.011 C 
HETATM   16  C19 UNL     1      42.124  38.792  54.128  1.00  0.00     0.040 C 
HETATM   17  C24 UNL     1      39.646  39.858  57.229  1.00  0.00     0.122 A 
HETATM   18  O6  UNL     1      39.444  39.927  58.563  1.00  0.00    -0.344 OA
HETATM   19  C25 UNL     1      39.852  38.558  58.574  1.00  0.00     0.283 C 
ENDROOT
BRANCH   1  20
HETATM   20  C5  UNL     1      37.591  38.459  57.568  1.00  0.00     0.279 C 
HETATM   21  O2  UNL     1      37.035  37.504  58.192  1.00  0.00    -0.264 OA
BRANCH  20  22
HETATM   22  O1  UNL     1      36.809  39.495  57.138  1.00  0.00    -0.320 OA
BRANCH  22  23
HETATM   23  C4  UNL     1      35.783  40.132  57.842  1.00  0.00     0.178 C 
BRANCH  23  24
HETATM   24  C3  UNL     1      36.227  41.465  58.336  1.00  0.00     0.026 C 
BRANCH  24  25
HETATM   25  C2  UNL     1      36.605  41.437  59.807  1.00  0.00    -0.002 C 
HETATM   26  C1  UNL     1      35.630  42.234  60.642  1.00  0.00     0.005 C 
ENDBRANCH  24  25
ENDBRANCH  23  24
ENDBRANCH  22  23
ENDBRANCH  20  22
ENDBRANCH   1  20
BRANCH  19  27
HETATM   27  O7  UNL     1      39.294  37.870  59.641  1.00  0.00    -0.369 OA
ATOM     28  H7  UNL     1      39.532  38.254  60.476  1.00  0.00     0.212 HD
ENDBRANCH  19  27
BRANCH  16  29
HETATM   29  C20 UNL     1      43.320  38.410  53.273  1.00  0.00    -0.028 A 
HETATM   30  C21 UNL     1      44.421  39.170  52.924  1.00  0.00     0.034 A 
HETATM   31  C22 UNL     1      45.254  38.430  52.116  1.00  0.00     0.142 A 
HETATM   32  O5  UNL     1      44.677  37.278  51.987  1.00  0.00    -0.334 OA
HETATM   33  C23 UNL     1      43.550  37.196  52.632  1.00  0.00     0.148 A 
ENDBRANCH  16  29
TORSDOF 7
ENDMDL
MODEL 5
REMARK VINA RESULT: -7.835648248      2.848      5.740
REMARK  7 active torsions:
REMARK  status: ('A' for Active; 'I' for Inactive)
REMARK    1  A    between atoms: C2_2  and  C3_3 
REMARK    2  A    between atoms: C3_3  and  C4_4 
REMARK    3  A    between atoms: C4_4  and  O1_5 
REMARK    4  A    between atoms: O1_5  and  C5_6 
REMARK    5  A    between atoms: C5_6  and  C6_8 
REMARK    6  A    between atoms: C19_23  and  C20_24 
REMARK    7  A    between atoms: C25_31  and  O7_32 
ROOT
HETATM    1  C6  UNL     1      38.417  36.166  51.960  1.00  0.00     0.149 C 
HETATM    2  C7  UNL     1      39.340  37.239  51.538  1.00  0.00    -0.003 C 
HETATM    3  C8  UNL     1      38.976  38.664  51.618  1.00  0.00    -0.027 C 
HETATM    4  C9  UNL     1      39.794  39.699  52.279  1.00  0.00     0.049 C 
HETATM    5  C10 UNL     1      39.644  40.004  53.786  1.00  0.00     0.023 C 
HETATM    6  C11 UNL     1      40.177  41.442  53.936  1.00  0.00     0.029 C 
HETATM    7  C12 UNL     1      38.346  40.074  54.329  1.00  0.00    -0.139 C 
HETATM    8  C13 UNL     1      37.094  40.386  54.916  1.00  0.00     0.133 C 
HETATM    9  C14 UNL     1      36.534  39.066  55.442  1.00  0.00     0.290 C 
HETATM   10  O3  UNL     1      35.535  39.199  56.222  1.00  0.00    -0.260 OA
HETATM   11  O4  UNL     1      36.993  37.812  55.161  1.00  0.00    -0.309 OA
HETATM   12  C15 UNL     1      37.496  37.179  54.050  1.00  0.00     0.176 A 
HETATM   13  C16 UNL     1      38.863  36.838  54.185  1.00  0.00     0.057 A 
HETATM   14  C17 UNL     1      39.332  37.127  55.550  1.00  0.00     0.011 C 
HETATM   15  C18 UNL     1      40.276  38.305  55.655  1.00  0.00     0.011 C 
HETATM   16  C19 UNL     1      40.673  39.095  54.466  1.00  0.00     0.040 C 
HETATM   17  C24 UNL     1      38.052  36.086  53.478  1.00  0.00     0.122 A 
HETATM   18  O6  UNL     1      37.852  34.769  53.253  1.00  0.00    -0.344 OA
HETATM   19  C25 UNL     1      38.993  34.865  52.399  1.00  0.00     0.283 C 
ENDROOT
BRANCH   1  20
HETATM   20  C5  UNL     1      37.229  36.033  51.110  1.00  0.00     0.279 C 
HETATM   21  O2  UNL     1      36.120  36.498  51.514  1.00  0.00    -0.264 OA
BRANCH  20  22
HETATM   22  O1  UNL     1      37.269  35.423  49.887  1.00  0.00    -0.320 OA
BRANCH  22  23
HETATM   23  C4  UNL     1      36.264  35.402  48.916  1.00  0.00     0.178 C 
BRANCH  23  24
HETATM   24  C3  UNL     1      36.062  34.022  48.392  1.00  0.00     0.026 C 
BRANCH  24  25
HETATM   25  C2  UNL     1      36.199  32.968  49.478  1.00  0.00    -0.002 C 
HETATM   26  C1  UNL     1      37.277  31.966  49.142  1.00  0.00     0.005 C 
ENDBRANCH  24  25
ENDBRANCH  23  24
ENDBRANCH  22  23
ENDBRANCH  20  22
ENDBRANCH   1  20
BRANCH  19  27
HETATM   27  O7  UNL     1      38.954  33.914  51.390  1.00  0.00    -0.369 OA
ATOM     28  H7  UNL     1      39.494  34.161  50.648  1.00  0.00     0.212 HD
ENDBRANCH  19  27
BRANCH  16  29
HETATM   29  C20 UNL     1      41.860  39.897  54.969  1.00  0.00    -0.028 A 
HETATM   30  C21 UNL     1      43.070  40.144  54.349  1.00  0.00     0.034 A 
HETATM   31  C22 UNL     1      43.865  40.904  55.178  1.00  0.00     0.142 A 
HETATM   32  O5  UNL     1      43.162  41.101  56.247  1.00  0.00    -0.334 OA
HETATM   33  C23 UNL     1      41.986  40.545  56.194  1.00  0.00     0.148 A 
ENDBRANCH  16  29
TORSDOF 7
ENDMDL
