MODEL 1
REMARK VINA RESULT: -6.038593281      0.000      0.000
REMARK  7 active torsions:
REMARK  status: ('A' for Active; 'I' for Inactive)
REMARK    1  A    between atoms: N1_1  and  C1_4 
REMARK    2  A    between atoms: C4_11  and  N5_12 
REMARK    3  A    between atoms: N5_12  and  C5_14 
REMARK    4  A    between atoms: C7_16  and  C8_17 
REMARK    5  A    between atoms: C8_17  and  C9_18 
REMARK    6  A    between atoms: C9_18  and  N6_19 
REMARK    7  A    between atoms: C11_26  and  C12_27 
ROOT
HETATM    1  C1  UNL     1      52.398  25.751  15.302  1.00  0.00     0.115 A 
HETATM    2  N2  UNL     1      51.944  24.464  15.313  1.00  0.00    -0.329 N 
ATOM      3  H2  UNL     1      52.618  23.700  15.320  1.00  0.00     0.168 HD
HETATM    4  C2  UNL     1      50.632  24.178  15.316  1.00  0.00     0.144 A 
HETATM    5  N3  UNL     1      50.189  22.826  15.330  1.00  0.00    -0.081 NA
HETATM    6  C3  UNL     1      49.756  25.257  15.304  1.00  0.00     0.115 A 
HETATM    7  N4  UNL     1      48.382  24.912  15.323  1.00  0.00    -0.096 NA
HETATM    8  C4  UNL     1      50.150  26.557  15.290  1.00  0.00     0.075 A 
HETATM    9  C11 UNL     1      51.526  26.815  15.291  1.00  0.00     0.073 A 
ENDROOT
BRANCH   8  10
HETATM   10  N5  UNL     1      49.191  27.604  15.269  1.00  0.00    -0.361 N 
ATOM     11  H5  UNL     1      48.857  27.919  16.180  1.00  0.00     0.162 HD
BRANCH  10  12
HETATM   12  C5  UNL     1      48.643  28.262  14.156  1.00  0.00     0.233 C 
HETATM   13  C6  UNL     1      49.457  28.435  12.928  1.00  0.00     0.092 C 
HETATM   14  C7  UNL     1      48.369  28.928  11.963  1.00  0.00    -0.026 C 
HETATM   15  C10 UNL     1      47.252  28.410  12.403  1.00  0.00     0.156 C 
HETATM   16  N7  UNL     1      45.964  28.591  11.825  1.00  0.00    -0.075 NA
HETATM   17  O1  UNL     1      47.494  27.620  13.568  1.00  0.00    -0.312 OA
BRANCH  14  18
HETATM   18  C8  UNL     1      48.710  29.784  10.815  1.00  0.00     0.065 C 
BRANCH  18  19
HETATM   19  C9  UNL     1      48.117  29.479   9.503  1.00  0.00     0.234 C 
BRANCH  19  20
HETATM   20  N6  UNL     1      46.972  30.254   9.121  1.00  0.00    -0.079 N 
ATOM     21  H63 UNL     1      46.122  29.714   9.284  1.00  0.00     0.274 HD
ATOM     22  H62 UNL     1      46.838  31.018   9.784  1.00  0.00     0.274 HD
ATOM     23  H61 UNL     1      46.967  30.621   8.169  1.00  0.00     0.274 HD
ENDBRANCH  19  20
ENDBRANCH  18  19
ENDBRANCH  14  18
ENDBRANCH  10  12
ENDBRANCH   8  10
BRANCH   9  24
HETATM   24  C12 UNL     1      52.064  28.161  15.368  1.00  0.00     0.276 C 
HETATM   25  O2  UNL     1      52.807  28.569  16.302  1.00  0.00    -0.301 OA
ENDBRANCH   9  24
BRANCH   1  26
HETATM   26  N1  UNL     1      53.660  25.893  15.299  1.00  0.00    -0.385 N 
ATOM     27  H12 UNL     1      54.303  25.144  15.558  1.00  0.00     0.157 HD
ATOM     28  H11 UNL     1      54.005  26.812  15.022  1.00  0.00     0.157 HD
ENDBRANCH   1  26
TORSDOF 7
ENDMDL
MODEL 2
REMARK VINA RESULT: -5.789091321      1.186      1.462
REMARK  7 active torsions:
REMARK  status: ('A' for Active; 'I' for Inactive)
REMARK    1  A    between atoms: N1_1  and  C1_4 
REMARK    2  A    between atoms: C4_11  and  N5_12 
REMARK    3  A    between atoms: N5_12  and  C5_14 
REMARK    4  A    between atoms: C7_16  and  C8_17 
REMARK    5  A    between atoms: C8_17  and  C9_18 
REMARK    6  A    between atoms: C9_18  and  N6_19 
REMARK    7  A    between atoms: C11_26  and  C12_27 
ROOT
HETATM    1  C1  UNL     1      52.546  25.691  15.406  1.00  0.00     0.115 A 
HETATM    2  N2  UNL     1      52.406  24.333  15.386  1.00  0.00    -0.329 N 
ATOM      3  H2  UNL     1      53.229  23.747  15.528  1.00  0.00     0.168 HD
HETATM    4  C2  UNL     1      51.215  23.748  15.184  1.00  0.00     0.144 A 
HETATM    5  N3  UNL     1      51.101  22.330  15.171  1.00  0.00    -0.081 NA
HETATM    6  C3  UNL     1      50.128  24.592  14.993  1.00  0.00     0.115 A 
HETATM    7  N4  UNL     1      48.888  23.936  14.799  1.00  0.00    -0.096 NA
HETATM    8  C4  UNL     1      50.207  25.949  15.000  1.00  0.00     0.075 A 
HETATM    9  C11 UNL     1      51.466  26.521  15.217  1.00  0.00     0.073 A 
ENDROOT
BRANCH   8  10
HETATM   10  N5  UNL     1      49.049  26.743  14.787  1.00  0.00    -0.361 N 
ATOM     11  H5  UNL     1      48.436  26.859  15.594  1.00  0.00     0.162 HD
BRANCH  10  12
HETATM   12  C5  UNL     1      48.638  27.389  13.610  1.00  0.00     0.233 C 
HETATM   13  C6  UNL     1      47.245  27.884  13.488  1.00  0.00     0.092 C 
HETATM   14  C7  UNL     1      47.378  28.718  12.207  1.00  0.00    -0.026 C 
HETATM   15  C10 UNL     1      48.624  29.110  12.173  1.00  0.00     0.156 C 
HETATM   16  N7  UNL     1      49.218  29.915  11.160  1.00  0.00    -0.075 NA
HETATM   17  O1  UNL     1      49.333  28.616  13.310  1.00  0.00    -0.312 OA
BRANCH  14  18
HETATM   18  C8  UNL     1      46.217  28.944  11.330  1.00  0.00     0.065 C 
BRANCH  18  19
HETATM   19  C9  UNL     1      46.449  29.212   9.901  1.00  0.00     0.234 C 
BRANCH  19  20
HETATM   20  N6  UNL     1      45.881  30.419   9.375  1.00  0.00    -0.079 N 
ATOM     21  H63 UNL     1      45.293  30.859  10.083  1.00  0.00     0.274 HD
ATOM     22  H62 UNL     1      46.610  31.125   9.272  1.00  0.00     0.274 HD
ATOM     23  H61 UNL     1      45.360  30.334   8.502  1.00  0.00     0.274 HD
ENDBRANCH  19  20
ENDBRANCH  18  19
ENDBRANCH  14  18
ENDBRANCH  10  12
ENDBRANCH   8  10
BRANCH   9  24
HETATM   24  C12 UNL     1      51.657  27.955  15.336  1.00  0.00     0.276 C 
HETATM   25  O2  UNL     1      52.525  28.490  16.079  1.00  0.00    -0.301 OA
ENDBRANCH   9  24
BRANCH   1  26
HETATM   26  N1  UNL     1      53.724  26.123  15.605  1.00  0.00    -0.385 N 
ATOM     27  H12 UNL     1      54.093  26.319  16.535  1.00  0.00     0.157 HD
ATOM     28  H11 UNL     1      54.292  26.270  14.770  1.00  0.00     0.157 HD
ENDBRANCH   1  26
TORSDOF 7
ENDMDL
MODEL 3
REMARK VINA RESULT: -5.044083760      1.905      2.936
REMARK  7 active torsions:
REMARK  status: ('A' for Active; 'I' for Inactive)
REMARK    1  A    between atoms: N1_1  and  C1_4 
REMARK    2  A    between atoms: C4_11  and  N5_12 
REMARK    3  A    between atoms: N5_12  and  C5_14 
REMARK    4  A    between atoms: C7_16  and  C8_17 
REMARK    5  A    between atoms: C8_17  and  C9_18 
REMARK    6  A    between atoms: C9_18  and  N6_19 
REMARK    7  A    between atoms: C11_26  and  C12_27 
ROOT
HETATM    1  C1  UNL     1      51.426  25.373  15.221  1.00  0.00     0.115 A 
HETATM    2  N2  UNL     1      52.189  26.453  15.560  1.00  0.00    -0.329 N 
ATOM      3  H2  UNL     1      53.123  26.301  15.939  1.00  0.00     0.168 HD
HETATM    4  C2  UNL     1      51.744  27.710  15.406  1.00  0.00     0.144 A 
HETATM    5  N3  UNL     1      52.564  28.815  15.766  1.00  0.00    -0.081 NA
HETATM    6  C3  UNL     1      50.463  27.860  14.888  1.00  0.00     0.115 A 
HETATM    7  N4  UNL     1      50.036  29.202  14.728  1.00  0.00    -0.096 NA
HETATM    8  C4  UNL     1      49.657  26.824  14.535  1.00  0.00     0.075 A 
HETATM    9  C11 UNL     1      50.160  25.528  14.708  1.00  0.00     0.073 A 
ENDROOT
BRANCH   8  10
HETATM   10  N5  UNL     1      48.355  27.061  14.020  1.00  0.00    -0.361 N 
ATOM     11  H5  UNL     1      47.600  26.539  14.464  1.00  0.00     0.162 HD
BRANCH  10  12
HETATM   12  C5  UNL     1      47.973  27.923  12.979  1.00  0.00     0.233 C 
HETATM   13  C6  UNL     1      48.857  28.089  11.798  1.00  0.00     0.092 C 
HETATM   14  C7  UNL     1      47.909  28.864  10.873  1.00  0.00    -0.026 C 
HETATM   15  C10 UNL     1      46.703  28.501  11.224  1.00  0.00     0.156 C 
HETATM   16  N7  UNL     1      45.490  28.963  10.640  1.00  0.00    -0.075 NA
HETATM   17  O1  UNL     1      46.760  27.557  12.294  1.00  0.00    -0.312 OA
BRANCH  14  18
HETATM   18  C8  UNL     1      48.437  29.771   9.840  1.00  0.00     0.065 C 
BRANCH  18  19
HETATM   19  C9  UNL     1      47.645  29.994   8.620  1.00  0.00     0.234 C 
BRANCH  19  20
HETATM   20  N6  UNL     1      46.743  31.109   8.636  1.00  0.00    -0.079 N 
ATOM     21  H63 UNL     1      46.458  31.305   9.596  1.00  0.00     0.274 HD
ATOM     22  H62 UNL     1      47.252  31.964   8.414  1.00  0.00     0.274 HD
ATOM     23  H61 UNL     1      45.917  31.036   8.042  1.00  0.00     0.274 HD
ENDBRANCH  19  20
ENDBRANCH  18  19
ENDBRANCH  14  18
ENDBRANCH  10  12
ENDBRANCH   8  10
BRANCH   9  24
HETATM   24  C12 UNL     1      49.428  24.349  14.283  1.00  0.00     0.276 C 
HETATM   25  O2  UNL     1      49.208  23.353  15.024  1.00  0.00    -0.301 OA
ENDBRANCH   9  24
BRANCH   1  26
HETATM   26  N1  UNL     1      51.959  24.236  15.414  1.00  0.00    -0.385 N 
ATOM     27  H12 UNL     1      52.571  24.037  16.205  1.00  0.00     0.157 HD
ATOM     28  H11 UNL     1      51.741  23.519  14.722  1.00  0.00     0.157 HD
ENDBRANCH   1  26
TORSDOF 7
ENDMDL
MODEL 4
REMARK VINA RESULT: -4.786404914      1.836      2.310
REMARK  7 active torsions:
REMARK  status: ('A' for Active; 'I' for Inactive)
REMARK    1  A    between atoms: N1_1  and  C1_4 
REMARK    2  A    between atoms: C4_11  and  N5_12 
REMARK    3  A    between atoms: N5_12  and  C5_14 
REMARK    4  A    between atoms: C7_16  and  C8_17 
REMARK    5  A    between atoms: C8_17  and  C9_18 
REMARK    6  A    between atoms: C9_18  and  N6_19 
REMARK    7  A    between atoms: C11_26  and  C12_27 
ROOT
HETATM    1  C1  UNL     1      51.482  27.595  15.249  1.00  0.00     0.115 A 
HETATM    2  N2  UNL     1      51.902  26.306  15.409  1.00  0.00    -0.329 N 
ATOM      3  H2  UNL     1      52.831  26.132  15.792  1.00  0.00     0.168 HD
HETATM    4  C2  UNL     1      51.127  25.263  15.075  1.00  0.00     0.144 A 
HETATM    5  N3  UNL     1      51.593  23.931  15.255  1.00  0.00    -0.081 NA
HETATM    6  C3  UNL     1      49.872  25.557  14.553  1.00  0.00     0.115 A 
HETATM    7  N4  UNL     1      49.080  24.429  14.228  1.00  0.00    -0.096 NA
HETATM    8  C4  UNL     1      49.401  26.818  14.369  1.00  0.00     0.075 A 
HETATM    9  C11 UNL     1      50.239  27.880  14.733  1.00  0.00     0.073 A 
ENDROOT
BRANCH   8  10
HETATM   10  N5  UNL     1      48.109  27.036  13.822  1.00  0.00    -0.361 N 
ATOM     11  H5  UNL     1      47.327  26.890  14.459  1.00  0.00     0.162 HD
BRANCH  10  12
HETATM   12  C5  UNL     1      47.770  27.425  12.516  1.00  0.00     0.233 C 
HETATM   13  C6  UNL     1      46.912  28.617  12.302  1.00  0.00     0.092 C 
HETATM   14  C7  UNL     1      47.066  28.777  10.783  1.00  0.00    -0.026 C 
HETATM   15  C10 UNL     1      48.240  28.279  10.496  1.00  0.00     0.156 C 
HETATM   16  N7  UNL     1      48.821  28.208   9.199  1.00  0.00    -0.075 NA
HETATM   17  O1  UNL     1      48.881  27.803  11.680  1.00  0.00    -0.312 OA
BRANCH  14  18
HETATM   18  C8  UNL     1      46.007  29.412   9.981  1.00  0.00     0.065 C 
BRANCH  18  19
HETATM   19  C9  UNL     1      46.293  30.694   9.316  1.00  0.00     0.234 C 
BRANCH  19  20
HETATM   20  N6  UNL     1      47.291  30.672   8.285  1.00  0.00    -0.079 N 
ATOM     21  H63 UNL     1      47.540  29.706   8.070  1.00  0.00     0.274 HD
ATOM     22  H62 UNL     1      46.875  30.959   7.400  1.00  0.00     0.274 HD
ATOM     23  H61 UNL     1      48.137  31.214   8.459  1.00  0.00     0.274 HD
ENDBRANCH  19  20
ENDBRANCH  18  19
ENDBRANCH  14  18
ENDBRANCH  10  12
ENDBRANCH   8  10
BRANCH   9  24
HETATM   24  C12 UNL     1      49.810  29.265  14.667  1.00  0.00     0.276 C 
HETATM   25  O2  UNL     1      49.471  29.846  13.600  1.00  0.00    -0.301 OA
ENDBRANCH   9  24
BRANCH   1  26
HETATM   26  N1  UNL     1      52.306  28.494  15.601  1.00  0.00    -0.385 N 
ATOM     27  H12 UNL     1      52.238  29.463  15.288  1.00  0.00     0.157 HD
ATOM     28  H11 UNL     1      53.056  28.192  16.223  1.00  0.00     0.157 HD
ENDBRANCH   1  26
TORSDOF 7
ENDMDL
MODEL 5
REMARK VINA RESULT: -4.460508792      1.769      6.979
REMARK  7 active torsions:
REMARK  status: ('A' for Active; 'I' for Inactive)
REMARK    1  A    between atoms: N1_1  and  C1_4 
REMARK    2  A    between atoms: C4_11  and  N5_12 
REMARK    3  A    between atoms: N5_12  and  C5_14 
REMARK    4  A    between atoms: C7_16  and  C8_17 
REMARK    5  A    between atoms: C8_17  and  C9_18 
REMARK    6  A    between atoms: C9_18  and  N6_19 
REMARK    7  A    between atoms: C11_26  and  C12_27 
ROOT
HETATM    1  C1  UNL     1      46.052  28.943  10.379  1.00  0.00     0.115 A 
HETATM    2  N2  UNL     1      46.806  29.461   9.366  1.00  0.00    -0.329 N 
ATOM      3  H2  UNL     1      46.386  29.576   8.444  1.00  0.00     0.168 HD
HETATM    4  C2  UNL     1      48.085  29.824   9.550  1.00  0.00     0.144 A 
HETATM    5  N3  UNL     1      48.844  30.364   8.475  1.00  0.00    -0.081 NA
HETATM    6  C3  UNL     1      48.609  29.643  10.825  1.00  0.00     0.115 A 
HETATM    7  N4  UNL     1      49.956  30.052  10.982  1.00  0.00    -0.096 NA
HETATM    8  C4  UNL     1      47.909  29.130  11.871  1.00  0.00     0.075 A 
HETATM    9  C11 UNL     1      46.576  28.767  11.639  1.00  0.00     0.073 A 
ENDROOT
BRANCH   8  10
HETATM   10  N5  UNL     1      48.520  28.968  13.142  1.00  0.00    -0.361 N 
ATOM     11  H5  UNL     1      48.441  29.762  13.777  1.00  0.00     0.162 HD
BRANCH  10  12
HETATM   12  C5  UNL     1      49.219  27.856  13.638  1.00  0.00     0.233 C 
HETATM   13  C6  UNL     1      50.404  28.059  14.508  1.00  0.00     0.092 C 
HETATM   14  C7  UNL     1      50.621  26.618  14.990  1.00  0.00    -0.026 C 
HETATM   15  C10 UNL     1      49.440  26.057  14.959  1.00  0.00     0.156 C 
HETATM   16  N7  UNL     1      49.145  24.713  15.322  1.00  0.00    -0.075 NA
HETATM   17  O1  UNL     1      48.459  26.990  14.503  1.00  0.00    -0.312 OA
BRANCH  14  18
HETATM   18  C8  UNL     1      51.959  26.149  15.388  1.00  0.00     0.065 C 
BRANCH  18  19
HETATM   19  C9  UNL     1      52.563  25.025  14.655  1.00  0.00     0.234 C 
BRANCH  19  20
HETATM   20  N6  UNL     1      51.971  23.734  14.860  1.00  0.00    -0.079 N 
ATOM     21  H63 UNL     1      52.636  23.006  14.597  1.00  0.00     0.274 HD
ATOM     22  H62 UNL     1      51.882  23.553  15.860  1.00  0.00     0.274 HD
ATOM     23  H61 UNL     1      51.077  23.565  14.400  1.00  0.00     0.274 HD
ENDBRANCH  19  20
ENDBRANCH  18  19
ENDBRANCH  14  18
ENDBRANCH  10  12
ENDBRANCH   8  10
BRANCH   9  24
HETATM   24  C12 UNL     1      45.705  28.295  12.699  1.00  0.00     0.276 C 
HETATM   25  O2  UNL     1      45.201  27.139  12.733  1.00  0.00    -0.301 OA
ENDBRANCH   9  24
BRANCH   1  26
HETATM   26  N1  UNL     1      44.857  28.637  10.080  1.00  0.00    -0.385 N 
ATOM     27  H12 UNL     1      44.056  28.909  10.649  1.00  0.00     0.157 HD
ATOM     28  H11 UNL     1      44.737  28.094   9.225  1.00  0.00     0.157 HD
ENDBRANCH   1  26
TORSDOF 7
ENDMDL
