MODEL 1
REMARK VINA RESULT: -6.213554896      0.000      0.000
REMARK  8 active torsions:
REMARK  status: ('A' for Active; 'I' for Inactive)
REMARK    1  A    between atoms: N1_1  and  C1_4 
REMARK    2  A    between atoms: C2_10  and  C3_11 
REMARK       I    between atoms: C3_11  and  N4_13 
REMARK    3  A    between atoms: N4_13  and  C4_15 
REMARK    4  A    between atoms: C6_23  and  N7_24 
REMARK    5  A    between atoms: N7_24  and  C7_26 
REMARK    6  A    between atoms: C7_26  and  C8_27 
REMARK    7  A    between atoms: C8_27  and  C9_28 
REMARK    8  A    between atoms: C9_28  and  N8_29 
ROOT
HETATM    1  C4  UNL     1      48.316  27.481  13.435  1.00  0.00     0.203 A 
HETATM    2  O3  UNL     1      47.248  27.517  14.274  1.00  0.00    -0.215 OA
HETATM    3  N5  UNL     1      46.227  28.016  13.690  1.00  0.00    -0.241 N 
ATOM      4  H5  UNL     1      45.308  28.148  14.113  1.00  0.00     0.196 HD
HETATM    5  C5  UNL     1      46.557  28.338  12.434  1.00  0.00     0.150 A 
HETATM    6  N6  UNL     1      45.806  28.859  11.560  1.00  0.00    -0.382 N 
ATOM      7  H61 UNL     1      46.058  29.105  10.603  1.00  0.00     0.157 HD
ATOM      8  H62 UNL     1      44.826  29.109  11.692  1.00  0.00     0.157 HD
HETATM    9  C6  UNL     1      47.916  27.991  12.252  1.00  0.00     0.128 A 
ENDROOT
BRANCH   1  10
HETATM   10  N4  UNL     1      49.534  26.967  13.903  1.00  0.00    -0.298 N 
HETATM   11  C3  UNL     1      49.884  25.864  14.650  1.00  0.00     0.280 C 
HETATM   12  O2  UNL     1      49.116  25.016  15.079  1.00  0.00    -0.265 OA
ATOM     13  H4  UNL     1      50.336  27.535  13.630  1.00  0.00     0.171 HD
BRANCH  11  14
HETATM   14  C2  UNL     1      51.319  25.653  14.983  1.00  0.00     0.169 A 
HETATM   15  C1  UNL     1      51.984  24.452  15.027  1.00  0.00     0.155 A 
HETATM   16  N2  UNL     1      53.269  24.763  15.376  1.00  0.00    -0.224 N 
HETATM   17  O1  UNL     1      53.362  26.029  15.526  1.00  0.00    -0.155 OA
ATOM     18  H2  UNL     1      54.029  24.093  15.497  1.00  0.00     0.198 HD
HETATM   19  N3  UNL     1      52.223  26.609  15.302  1.00  0.00    -0.233 N 
ATOM     20  H3  UNL     1      52.040  27.612  15.357  1.00  0.00     0.197 HD
BRANCH  15  21
HETATM   21  N1  UNL     1      51.564  23.294  14.804  1.00  0.00    -0.382 N 
ATOM     22  H12 UNL     1      51.324  22.845  13.920  1.00  0.00     0.157 HD
ATOM     23  H11 UNL     1      51.393  22.588  15.521  1.00  0.00     0.157 HD
ENDBRANCH  15  21
ENDBRANCH  11  14
ENDBRANCH   1  10
BRANCH   9  24
HETATM   24  N7  UNL     1      48.600  28.085  11.013  1.00  0.00    -0.383 N 
ATOM     25  H7  UNL     1      48.866  27.234  10.517  1.00  0.00     0.159 HD
BRANCH  24  26
HETATM   26  C7  UNL     1      48.928  29.389  10.437  1.00  0.00     0.121 C 
BRANCH  26  27
HETATM   27  C8  UNL     1      48.285  29.475   9.047  1.00  0.00     0.047 C 
BRANCH  27  28
HETATM   28  C9  UNL     1      47.104  30.393   9.173  1.00  0.00     0.231 C 
BRANCH  28  29
HETATM   29  N8  UNL     1      46.965  31.148   7.924  1.00  0.00    -0.079 N 
ATOM     30  H83 UNL     1      47.684  30.909   7.240  1.00  0.00     0.274 HD
ATOM     31  H82 UNL     1      46.152  30.858   7.381  1.00  0.00     0.274 HD
ATOM     32  H81 UNL     1      46.953  32.143   8.146  1.00  0.00     0.274 HD
ENDBRANCH  28  29
ENDBRANCH  27  28
ENDBRANCH  26  27
ENDBRANCH  24  26
ENDBRANCH   9  24
TORSDOF 8
ENDMDL
MODEL 2
REMARK VINA RESULT: -6.211509028      0.798      1.405
REMARK  8 active torsions:
REMARK  status: ('A' for Active; 'I' for Inactive)
REMARK    1  A    between atoms: N1_1  and  C1_4 
REMARK    2  A    between atoms: C2_10  and  C3_11 
REMARK       I    between atoms: C3_11  and  N4_13 
REMARK    3  A    between atoms: N4_13  and  C4_15 
REMARK    4  A    between atoms: C6_23  and  N7_24 
REMARK    5  A    between atoms: N7_24  and  C7_26 
REMARK    6  A    between atoms: C7_26  and  C8_27 
REMARK    7  A    between atoms: C8_27  and  C9_28 
REMARK    8  A    between atoms: C9_28  and  N8_29 
ROOT
HETATM    1  C4  UNL     1      48.046  27.585  13.092  1.00  0.00     0.203 A 
HETATM    2  O3  UNL     1      46.953  27.659  13.896  1.00  0.00    -0.215 OA
HETATM    3  N5  UNL     1      45.957  28.154  13.266  1.00  0.00    -0.241 N 
ATOM      4  H5  UNL     1      45.027  28.310  13.656  1.00  0.00     0.196 HD
HETATM    5  C5  UNL     1      46.330  28.434  12.012  1.00  0.00     0.150 A 
HETATM    6  N6  UNL     1      45.613  28.939  11.100  1.00  0.00    -0.382 N 
ATOM      7  H61 UNL     1      45.898  29.153  10.145  1.00  0.00     0.157 HD
ATOM      8  H62 UNL     1      44.633  29.205  11.194  1.00  0.00     0.157 HD
HETATM    9  C6  UNL     1      47.689  28.065  11.883  1.00  0.00     0.128 A 
ENDROOT
BRANCH   1  10
HETATM   10  N4  UNL     1      49.241  27.070  13.613  1.00  0.00    -0.298 N 
HETATM   11  C3  UNL     1      49.543  26.185  14.625  1.00  0.00     0.280 C 
HETATM   12  O2  UNL     1      48.734  25.599  15.328  1.00  0.00    -0.265 OA
ATOM     13  H4  UNL     1      50.069  27.429  13.137  1.00  0.00     0.171 HD
BRANCH  11  14
HETATM   14  C2  UNL     1      50.972  25.892  14.914  1.00  0.00     0.169 A 
HETATM   15  C1  UNL     1      51.935  26.794  15.297  1.00  0.00     0.155 A 
HETATM   16  N2  UNL     1      53.080  26.062  15.442  1.00  0.00    -0.224 N 
HETATM   17  O1  UNL     1      52.825  24.838  15.172  1.00  0.00    -0.155 OA
ATOM     18  H2  UNL     1      53.989  26.431  15.720  1.00  0.00     0.198 HD
HETATM   19  N3  UNL     1      51.578  24.682  14.850  1.00  0.00    -0.233 N 
ATOM     20  H3  UNL     1      51.131  23.802  14.594  1.00  0.00     0.197 HD
BRANCH  15  21
HETATM   21  N1  UNL     1      51.845  28.028  15.490  1.00  0.00    -0.382 N 
ATOM     22  H12 UNL     1      51.706  28.785  14.820  1.00  0.00     0.157 HD
ATOM     23  H11 UNL     1      51.900  28.480  16.402  1.00  0.00     0.157 HD
ENDBRANCH  15  21
ENDBRANCH  11  14
ENDBRANCH   1  10
BRANCH   9  24
HETATM   24  N7  UNL     1      48.412  28.113  10.663  1.00  0.00    -0.383 N 
ATOM     25  H7  UNL     1      48.598  27.251  10.152  1.00  0.00     0.159 HD
BRANCH  24  26
HETATM   26  C7  UNL     1      48.893  29.387  10.129  1.00  0.00     0.121 C 
BRANCH  26  27
HETATM   27  C8  UNL     1      48.190  29.641   8.789  1.00  0.00     0.047 C 
BRANCH  27  28
HETATM   28  C9  UNL     1      47.154  30.697   9.038  1.00  0.00     0.231 C 
BRANCH  28  29
HETATM   29  N8  UNL     1      46.798  31.313   7.756  1.00  0.00    -0.079 N 
ATOM     30  H83 UNL     1      47.101  30.756   6.957  1.00  0.00     0.274 HD
ATOM     31  H82 UNL     1      45.794  31.286   7.575  1.00  0.00     0.274 HD
ATOM     32  H81 UNL     1      47.174  32.261   7.737  1.00  0.00     0.274 HD
ENDBRANCH  28  29
ENDBRANCH  27  28
ENDBRANCH  26  27
ENDBRANCH  24  26
ENDBRANCH   9  24
TORSDOF 8
ENDMDL
MODEL 3
REMARK VINA RESULT: -5.824018931      1.338      1.502
REMARK  8 active torsions:
REMARK  status: ('A' for Active; 'I' for Inactive)
REMARK    1  A    between atoms: N1_1  and  C1_4 
REMARK    2  A    between atoms: C2_10  and  C3_11 
REMARK       I    between atoms: C3_11  and  N4_13 
REMARK    3  A    between atoms: N4_13  and  C4_15 
REMARK    4  A    between atoms: C6_23  and  N7_24 
REMARK    5  A    between atoms: N7_24  and  C7_26 
REMARK    6  A    between atoms: C7_26  and  C8_27 
REMARK    7  A    between atoms: C8_27  and  C9_28 
REMARK    8  A    between atoms: C9_28  and  N8_29 
ROOT
HETATM    1  C4  UNL     1      47.723  28.115  12.628  1.00  0.00     0.203 A 
HETATM    2  O3  UNL     1      46.533  27.817  13.213  1.00  0.00    -0.215 OA
HETATM    3  N5  UNL     1      45.562  28.064  12.420  1.00  0.00    -0.241 N 
ATOM      4  H5  UNL     1      44.574  27.924  12.631  1.00  0.00     0.196 HD
HETATM    5  C5  UNL     1      46.050  28.538  11.267  1.00  0.00     0.150 A 
HETATM    6  N6  UNL     1      45.388  28.895  10.251  1.00  0.00    -0.382 N 
ATOM      7  H61 UNL     1      45.759  29.256   9.373  1.00  0.00     0.157 HD
ATOM      8  H62 UNL     1      44.372  28.870  10.165  1.00  0.00     0.157 HD
HETATM    9  C6  UNL     1      47.459  28.572  11.388  1.00  0.00     0.128 A 
ENDROOT
BRANCH   1  10
HETATM   10  N4  UNL     1      48.907  27.912  13.351  1.00  0.00    -0.298 N 
HETATM   11  C3  UNL     1      49.265  27.080  14.390  1.00  0.00     0.280 C 
HETATM   12  O2  UNL     1      48.543  26.254  14.927  1.00  0.00    -0.265 OA
ATOM     13  H4  UNL     1      49.671  28.511  13.039  1.00  0.00     0.171 HD
BRANCH  11  14
HETATM   14  C2  UNL     1      50.648  27.169  14.931  1.00  0.00     0.169 A 
HETATM   15  C1  UNL     1      51.553  26.141  15.045  1.00  0.00     0.155 A 
HETATM   16  N2  UNL     1      52.672  26.704  15.594  1.00  0.00    -0.224 N 
HETATM   17  O1  UNL     1      52.455  27.950  15.789  1.00  0.00    -0.155 OA
ATOM     18  H2  UNL     1      53.538  26.211  15.812  1.00  0.00     0.198 HD
HETATM   19  N3  UNL     1      51.259  28.279  15.409  1.00  0.00    -0.233 N 
ATOM     20  H3  UNL     1      50.850  29.212  15.461  1.00  0.00     0.197 HD
BRANCH  15  21
HETATM   21  N1  UNL     1      51.439  24.935  14.732  1.00  0.00    -0.382 N 
ATOM     22  H12 UNL     1      51.074  24.514  13.878  1.00  0.00     0.157 HD
ATOM     23  H11 UNL     1      51.717  24.151  15.323  1.00  0.00     0.157 HD
ENDBRANCH  15  21
ENDBRANCH  11  14
ENDBRANCH   1  10
BRANCH   9  24
HETATM   24  N7  UNL     1      48.337  28.918  10.328  1.00  0.00    -0.383 N 
ATOM     25  H7  UNL     1      49.027  28.241  10.004  1.00  0.00     0.159 HD
BRANCH  24  26
HETATM   26  C7  UNL     1      48.264  30.235   9.696  1.00  0.00     0.121 C 
BRANCH  26  27
HETATM   27  C8  UNL     1      47.787  30.046   8.250  1.00  0.00     0.047 C 
BRANCH  27  28
HETATM   28  C9  UNL     1      47.041  31.293   7.875  1.00  0.00     0.231 C 
BRANCH  28  29
HETATM   29  N8  UNL     1      46.248  31.728   9.028  1.00  0.00    -0.079 N 
ATOM     30  H83 UNL     1      46.695  31.504   9.917  1.00  0.00     0.274 HD
ATOM     31  H82 UNL     1      46.230  32.743   9.130  1.00  0.00     0.274 HD
ATOM     32  H81 UNL     1      45.313  31.327   8.949  1.00  0.00     0.274 HD
ENDBRANCH  28  29
ENDBRANCH  27  28
ENDBRANCH  26  27
ENDBRANCH  24  26
ENDBRANCH   9  24
TORSDOF 8
ENDMDL
MODEL 4
REMARK VINA RESULT: -5.755421806      2.386      7.216
REMARK  8 active torsions:
REMARK  status: ('A' for Active; 'I' for Inactive)
REMARK    1  A    between atoms: N1_1  and  C1_4 
REMARK    2  A    between atoms: C2_10  and  C3_11 
REMARK       I    between atoms: C3_11  and  N4_13 
REMARK    3  A    between atoms: N4_13  and  C4_15 
REMARK    4  A    between atoms: C6_23  and  N7_24 
REMARK    5  A    between atoms: N7_24  and  C7_26 
REMARK    6  A    between atoms: C7_26  and  C8_27 
REMARK    7  A    between atoms: C8_27  and  C9_28 
REMARK    8  A    between atoms: C9_28  and  N8_29 
ROOT
HETATM    1  C4  UNL     1      49.441  28.310  13.563  1.00  0.00     0.203 A 
HETATM    2  O3  UNL     1      50.343  29.273  13.890  1.00  0.00    -0.215 OA
HETATM    3  N5  UNL     1      51.129  28.865  14.812  1.00  0.00    -0.241 N 
ATOM      4  H5  UNL     1      51.888  29.407  15.225  1.00  0.00     0.196 HD
HETATM    5  C5  UNL     1      50.795  27.613  15.147  1.00  0.00     0.150 A 
HETATM    6  N6  UNL     1      51.347  26.889  16.025  1.00  0.00    -0.382 N 
ATOM      7  H61 UNL     1      51.092  25.935  16.281  1.00  0.00     0.157 HD
ATOM      8  H62 UNL     1      52.138  27.161  16.608  1.00  0.00     0.157 HD
HETATM    9  C6  UNL     1      49.698  27.237  14.338  1.00  0.00     0.128 A 
ENDROOT
BRANCH   1  10
HETATM   10  N4  UNL     1      48.489  28.578  12.569  1.00  0.00    -0.298 N 
HETATM   11  C3  UNL     1      48.513  29.280  11.383  1.00  0.00     0.280 C 
HETATM   12  O2  UNL     1      49.484  29.851  10.909  1.00  0.00    -0.265 OA
ATOM     13  H4  UNL     1      47.579  28.161  12.766  1.00  0.00     0.171 HD
BRANCH  11  14
HETATM   14  C2  UNL     1      47.263  29.371  10.581  1.00  0.00     0.169 A 
HETATM   15  C1  UNL     1      46.040  28.837  10.905  1.00  0.00     0.155 A 
HETATM   16  N2  UNL     1      45.212  29.178   9.871  1.00  0.00    -0.224 N 
HETATM   17  O1  UNL     1      45.879  29.851   9.012  1.00  0.00    -0.155 OA
ATOM     18  H2  UNL     1      44.224  28.934   9.797  1.00  0.00     0.198 HD
HETATM   19  N3  UNL     1      47.112  29.995   9.389  1.00  0.00    -0.233 N 
ATOM     20  H3  UNL     1      47.841  30.492   8.877  1.00  0.00     0.197 HD
BRANCH  15  21
HETATM   21  N1  UNL     1      45.693  28.178  11.910  1.00  0.00    -0.382 N 
ATOM     22  H12 UNL     1      46.169  27.408  12.382  1.00  0.00     0.157 HD
ATOM     23  H11 UNL     1      44.833  28.327  12.437  1.00  0.00     0.157 HD
ENDBRANCH  15  21
ENDBRANCH  11  14
ENDBRANCH   1  10
BRANCH   9  24
HETATM   24  N7  UNL     1      49.128  25.938  14.328  1.00  0.00    -0.383 N 
ATOM     25  H7  UNL     1      48.652  25.602  13.491  1.00  0.00     0.159 HD
BRANCH  24  26
HETATM   26  C7  UNL     1      49.216  25.074  15.506  1.00  0.00     0.121 C 
BRANCH  26  27
HETATM   27  C8  UNL     1      49.518  23.647  15.031  1.00  0.00     0.047 C 
BRANCH  27  28
HETATM   28  C9  UNL     1      50.937  23.352  15.422  1.00  0.00     0.231 C 
BRANCH  28  29
HETATM   29  N8  UNL     1      51.824  23.849  14.367  1.00  0.00    -0.079 N 
ATOM     30  H83 UNL     1      52.789  23.954  14.684  1.00  0.00     0.274 HD
ATOM     31  H82 UNL     1      51.991  23.156  13.637  1.00  0.00     0.274 HD
ATOM     32  H81 UNL     1      51.437  24.718  14.000  1.00  0.00     0.274 HD
ENDBRANCH  28  29
ENDBRANCH  27  28
ENDBRANCH  26  27
ENDBRANCH  24  26
ENDBRANCH   9  24
TORSDOF 8
ENDMDL
MODEL 5
REMARK VINA RESULT: -5.684071096      2.200      7.415
REMARK  8 active torsions:
REMARK  status: ('A' for Active; 'I' for Inactive)
REMARK    1  A    between atoms: N1_1  and  C1_4 
REMARK    2  A    between atoms: C2_10  and  C3_11 
REMARK       I    between atoms: C3_11  and  N4_13 
REMARK    3  A    between atoms: N4_13  and  C4_15 
REMARK    4  A    between atoms: C6_23  and  N7_24 
REMARK    5  A    between atoms: N7_24  and  C7_26 
REMARK    6  A    between atoms: C7_26  and  C8_27 
REMARK    7  A    between atoms: C8_27  and  C9_28 
REMARK    8  A    between atoms: C9_28  and  N8_29 
ROOT
HETATM    1  C4  UNL     1      49.418  28.180  13.627  1.00  0.00     0.203 A 
HETATM    2  O3  UNL     1      50.225  29.214  13.982  1.00  0.00    -0.215 OA
HETATM    3  N5  UNL     1      51.100  28.836  14.834  1.00  0.00    -0.241 N 
ATOM      4  H5  UNL     1      51.816  29.432  15.251  1.00  0.00     0.196 HD
HETATM    5  C5  UNL     1      50.924  27.535  15.092  1.00  0.00     0.150 A 
HETATM    6  N6  UNL     1      51.599  26.821  15.888  1.00  0.00    -0.382 N 
ATOM      7  H61 UNL     1      51.465  25.829  16.085  1.00  0.00     0.157 HD
ATOM      8  H62 UNL     1      52.386  27.140  16.453  1.00  0.00     0.157 HD
HETATM    9  C6  UNL     1      49.833  27.093  14.309  1.00  0.00     0.128 A 
ENDROOT
BRANCH   1  10
HETATM   10  N4  UNL     1      48.391  28.405  12.700  1.00  0.00    -0.298 N 
HETATM   11  C3  UNL     1      48.291  29.141  11.540  1.00  0.00     0.280 C 
HETATM   12  O2  UNL     1      49.186  29.797  11.029  1.00  0.00    -0.265 OA
ATOM     13  H4  UNL     1      47.527  27.915  12.936  1.00  0.00     0.171 HD
BRANCH  11  14
HETATM   14  C2  UNL     1      46.991  29.161  10.816  1.00  0.00     0.169 A 
HETATM   15  C1  UNL     1      46.721  29.799   9.630  1.00  0.00     0.155 A 
HETATM   16  N2  UNL     1      45.406  29.534   9.368  1.00  0.00    -0.224 N 
HETATM   17  O1  UNL     1      44.935  28.806  10.309  1.00  0.00    -0.155 OA
ATOM     18  H2  UNL     1      44.885  29.863   8.555  1.00  0.00     0.198 HD
HETATM   19  N3  UNL     1      45.843  28.554  11.200  1.00  0.00    -0.233 N 
ATOM     20  H3  UNL     1      45.715  27.996  12.045  1.00  0.00     0.197 HD
BRANCH  15  21
HETATM   21  N1  UNL     1      47.471  30.485   8.900  1.00  0.00    -0.382 N 
ATOM     22  H12 UNL     1      47.236  31.146   8.159  1.00  0.00     0.157 HD
ATOM     23  H11 UNL     1      48.491  30.484   8.947  1.00  0.00     0.157 HD
ENDBRANCH  15  21
ENDBRANCH  11  14
ENDBRANCH   1  10
BRANCH   9  24
HETATM   24  N7  UNL     1      49.410  25.741  14.230  1.00  0.00    -0.383 N 
ATOM     25  H7  UNL     1      49.219  25.324  13.319  1.00  0.00     0.159 HD
BRANCH  24  26
HETATM   26  C7  UNL     1      49.245  24.937  15.441  1.00  0.00     0.121 C 
BRANCH  26  27
HETATM   27  C8  UNL     1      49.633  23.490  15.113  1.00  0.00     0.047 C 
BRANCH  27  28
HETATM   28  C9  UNL     1      51.117  23.386  15.307  1.00  0.00     0.231 C 
BRANCH  28  29
HETATM   29  N8  UNL     1      51.659  22.486  14.284  1.00  0.00    -0.079 N 
ATOM     30  H83 UNL     1      52.154  21.690  14.687  1.00  0.00     0.274 HD
ATOM     31  H82 UNL     1      50.931  21.966  13.794  1.00  0.00     0.274 HD
ATOM     32  H81 UNL     1      52.245  23.030  13.651  1.00  0.00     0.274 HD
ENDBRANCH  28  29
ENDBRANCH  27  28
ENDBRANCH  26  27
ENDBRANCH  24  26
ENDBRANCH   9  24
TORSDOF 8
ENDMDL
