MODEL 1
REMARK VINA RESULT: -6.403605639      0.000      0.000
REMARK  9 active torsions:
REMARK  status: ('A' for Active; 'I' for Inactive)
REMARK    1  A    between atoms: C2_2  and  C3_3 
REMARK    2  A    between atoms: C3_3  and  C4_4 
REMARK    3  A    between atoms: C4_4  and  N1_5 
REMARK    4  A    between atoms: N1_5  and  C5_8 
REMARK    5  A    between atoms: C5_8  and  C6_9 
REMARK    6  A    between atoms: C6_9  and  N2_10 
REMARK    7  A    between atoms: C8_14  and  N4_15 
REMARK    8  A    between atoms: C9_20  and  N6_21 
REMARK    9  A    between atoms: C11_29  and  N9_30 
ROOT
HETATM    1  N2  UNL     1      48.476  27.786  14.038  1.00  0.00    -0.122 N 
HETATM    2  N3  UNL     1      48.734  26.528  14.340  1.00  0.00    -0.277 N 
ATOM      3  H3  UNL     1      47.979  25.843  14.296  1.00  0.00     0.188 HD
HETATM    4  C7  UNL     1      49.944  26.128  14.696  1.00  0.00     0.138 A 
HETATM    5  C8  UNL     1      50.263  24.828  15.019  1.00  0.00     0.146 A 
HETATM    6  N5  UNL     1      51.508  24.529  15.364  1.00  0.00    -0.175 N 
ATOM      7  H5  UNL     1      51.723  23.559  15.598  1.00  0.00     0.186 HD
HETATM    8  C9  UNL     1      52.504  25.431  15.423  1.00  0.00     0.679 A 
HETATM    9  N7  UNL     1      52.216  26.702  15.113  1.00  0.00    -0.174 N 
ATOM     10  H7  UNL     1      52.954  27.406  15.150  1.00  0.00     0.186 HD
HETATM   11  C10 UNL     1      50.957  27.072  14.751  1.00  0.00     0.168 A 
HETATM   12  N8  UNL     1      50.673  28.343  14.442  1.00  0.00    -0.172 N 
ATOM     13  H8  UNL     1      51.414  29.044  14.479  1.00  0.00     0.186 HD
HETATM   14  C11 UNL     1      49.429  28.718  14.082  1.00  0.00     0.694 A 
ENDROOT
BRANCH   1  15
HETATM   15  C6  UNL     1      47.128  28.106  13.650  1.00  0.00     0.195 C 
BRANCH  15  16
HETATM   16  C5  UNL     1      46.910  27.867  12.176  1.00  0.00     0.254 C 
BRANCH  16  17
HETATM   17  N1  UNL     1      45.980  28.813  11.652  1.00  0.00    -0.074 N 
ATOM     18  H12 UNL     1      45.924  29.632  12.257  1.00  0.00     0.277 HD
ATOM     19  H11 UNL     1      45.025  28.464  11.742  1.00  0.00     0.277 HD
BRANCH  17  20
HETATM   20  C4  UNL     1      46.245  29.208  10.293  1.00  0.00     0.232 C 
BRANCH  20  21
HETATM   21  C3  UNL     1      47.764  29.213  10.116  1.00  0.00     0.027 C 
BRANCH  21  22
HETATM   22  C2  UNL     1      48.065  29.990   8.839  1.00  0.00    -0.003 C 
HETATM   23  C1  UNL     1      46.956  30.957   8.517  1.00  0.00     0.005 C 
ENDBRANCH  21  22
ENDBRANCH  20  21
ENDBRANCH  17  20
ENDBRANCH  16  17
ENDBRANCH  15  16
ENDBRANCH   1  15
BRANCH  14  24
HETATM   24  N9  UNL     1      49.207  29.985  13.802  1.00  0.00    -0.233 N 
ATOM     25  H92 UNL     1      49.422  30.325  12.865  1.00  0.00     0.174 HD
ATOM     26  H91 UNL     1      48.837  30.647  14.484  1.00  0.00     0.174 HD
ENDBRANCH  14  24
BRANCH   5  27
HETATM   27  N4  UNL     1      49.291  23.966  14.959  1.00  0.00    -0.383 N 
ATOM     28  H42 UNL     1      48.737  23.666  15.761  1.00  0.00     0.157 HD
ATOM     29  H41 UNL     1      49.089  23.579  14.037  1.00  0.00     0.157 HD
ENDBRANCH   5  27
BRANCH   8  30
HETATM   30  N6  UNL     1      53.717  25.073  15.772  1.00  0.00    -0.234 N 
ATOM     31  H62 UNL     1      53.932  24.799  16.730  1.00  0.00     0.174 HD
ATOM     32  H61 UNL     1      54.477  25.063  15.091  1.00  0.00     0.174 HD
ENDBRANCH   8  30
TORSDOF 9
ENDMDL
MODEL 2
REMARK VINA RESULT: -5.784224484      1.555      6.923
REMARK  9 active torsions:
REMARK  status: ('A' for Active; 'I' for Inactive)
REMARK    1  A    between atoms: C2_2  and  C3_3 
REMARK    2  A    between atoms: C3_3  and  C4_4 
REMARK    3  A    between atoms: C4_4  and  N1_5 
REMARK    4  A    between atoms: N1_5  and  C5_8 
REMARK    5  A    between atoms: C5_8  and  C6_9 
REMARK    6  A    between atoms: C6_9  and  N2_10 
REMARK    7  A    between atoms: C8_14  and  N4_15 
REMARK    8  A    between atoms: C9_20  and  N6_21 
REMARK    9  A    between atoms: C11_29  and  N9_30 
ROOT
HETATM    1  N2  UNL     1      49.249  28.075  13.928  1.00  0.00    -0.122 N 
HETATM    2  N3  UNL     1      49.391  28.707  12.777  1.00  0.00    -0.277 N 
ATOM      3  H3  UNL     1      50.312  29.061  12.518  1.00  0.00     0.188 HD
HETATM    4  C7  UNL     1      48.375  28.894  11.952  1.00  0.00     0.138 A 
HETATM    5  C8  UNL     1      48.473  29.545  10.743  1.00  0.00     0.146 A 
HETATM    6  N5  UNL     1      47.392  29.681   9.986  1.00  0.00    -0.175 N 
ATOM      7  H5  UNL     1      47.487  30.165   9.093  1.00  0.00     0.186 HD
HETATM    8  C9  UNL     1      46.178  29.215  10.328  1.00  0.00     0.679 A 
HETATM    9  N7  UNL     1      46.059  28.578  11.501  1.00  0.00    -0.174 N 
ATOM     10  H7  UNL     1      45.149  28.215  11.784  1.00  0.00     0.186 HD
HETATM   11  C10 UNL     1      47.132  28.407  12.322  1.00  0.00     0.168 A 
HETATM   12  N8  UNL     1      47.009  27.769  13.493  1.00  0.00    -0.172 N 
ATOM     13  H8  UNL     1      46.097  27.408  13.772  1.00  0.00     0.186 HD
HETATM   14  C11 UNL     1      48.066  27.595  14.312  1.00  0.00     0.694 A 
ENDROOT
BRANCH   1  15
HETATM   15  C6  UNL     1      50.426  27.916  14.740  1.00  0.00     0.195 C 
BRANCH  15  16
HETATM   16  C5  UNL     1      51.179  26.659  14.377  1.00  0.00     0.254 C 
BRANCH  16  17
HETATM   17  N1  UNL     1      52.285  26.471  15.258  1.00  0.00    -0.074 N 
ATOM     18  H12 UNL     1      52.057  26.807  16.194  1.00  0.00     0.277 HD
ATOM     19  H11 UNL     1      53.043  27.112  15.022  1.00  0.00     0.277 HD
BRANCH  17  20
HETATM   20  C4  UNL     1      52.769  25.116  15.313  1.00  0.00     0.232 C 
BRANCH  20  21
HETATM   21  C3  UNL     1      51.854  24.276  14.420  1.00  0.00     0.027 C 
BRANCH  21  22
HETATM   22  C2  UNL     1      51.062  23.349  15.335  1.00  0.00    -0.003 C 
HETATM   23  C1  UNL     1      49.585  23.635  15.253  1.00  0.00     0.005 C 
ENDBRANCH  21  22
ENDBRANCH  20  21
ENDBRANCH  17  20
ENDBRANCH  16  17
ENDBRANCH  15  16
ENDBRANCH   1  15
BRANCH  14  24
HETATM   24  N9  UNL     1      47.882  26.973  15.457  1.00  0.00    -0.233 N 
ATOM     25  H92 UNL     1      47.730  25.964  15.447  1.00  0.00     0.174 HD
ATOM     26  H91 UNL     1      47.875  27.455  16.355  1.00  0.00     0.174 HD
ENDBRANCH  14  24
BRANCH   5  27
HETATM   27  N4  UNL     1      49.652  29.991  10.424  1.00  0.00    -0.383 N 
ATOM     28  H42 UNL     1      50.513  29.738  10.910  1.00  0.00     0.157 HD
ATOM     29  H41 UNL     1      49.692  30.633   9.634  1.00  0.00     0.157 HD
ENDBRANCH   5  27
BRANCH   8  30
HETATM   30  N6  UNL     1      45.144  29.381   9.536  1.00  0.00    -0.234 N 
ATOM     31  H62 UNL     1      44.578  28.588   9.235  1.00  0.00     0.174 HD
ATOM     32  H61 UNL     1      44.883  30.308   9.202  1.00  0.00     0.174 HD
ENDBRANCH   8  30
TORSDOF 9
ENDMDL
MODEL 3
REMARK VINA RESULT: -5.756819319      1.385      2.575
REMARK  9 active torsions:
REMARK  status: ('A' for Active; 'I' for Inactive)
REMARK    1  A    between atoms: C2_2  and  C3_3 
REMARK    2  A    between atoms: C3_3  and  C4_4 
REMARK    3  A    between atoms: C4_4  and  N1_5 
REMARK    4  A    between atoms: N1_5  and  C5_8 
REMARK    5  A    between atoms: C5_8  and  C6_9 
REMARK    6  A    between atoms: C6_9  and  N2_10 
REMARK    7  A    between atoms: C8_14  and  N4_15 
REMARK    8  A    between atoms: C9_20  and  N6_21 
REMARK    9  A    between atoms: C11_29  and  N9_30 
ROOT
HETATM    1  N2  UNL     1      49.794  27.743  14.547  1.00  0.00    -0.122 N 
HETATM    2  N3  UNL     1      50.948  27.109  14.635  1.00  0.00    -0.277 N 
ATOM      3  H3  UNL     1      51.811  27.623  14.458  1.00  0.00     0.188 HD
HETATM    4  C7  UNL     1      51.019  25.825  14.948  1.00  0.00     0.138 A 
HETATM    5  C8  UNL     1      52.197  25.121  15.053  1.00  0.00     0.146 A 
HETATM    6  N5  UNL     1      52.160  23.834  15.373  1.00  0.00    -0.175 N 
ATOM      7  H5  UNL     1      53.045  23.331  15.447  1.00  0.00     0.186 HD
HETATM    8  C9  UNL     1      51.024  23.154  15.606  1.00  0.00     0.679 A 
HETATM    9  N7  UNL     1      49.865  23.821  15.509  1.00  0.00    -0.174 N 
ATOM     10  H7  UNL     1      48.989  23.328  15.682  1.00  0.00     0.186 HD
HETATM   11  C10 UNL     1      49.837  25.143  15.185  1.00  0.00     0.168 A 
HETATM   12  N8  UNL     1      48.677  25.805  15.090  1.00  0.00    -0.172 N 
ATOM     13  H8  UNL     1      47.803  25.308  15.263  1.00  0.00     0.186 HD
HETATM   14  C11 UNL     1      48.640  27.114  14.769  1.00  0.00     0.694 A 
ENDROOT
BRANCH   1  15
HETATM   15  C6  UNL     1      49.837  29.142  14.215  1.00  0.00     0.195 C 
BRANCH  15  16
HETATM   16  C5  UNL     1      48.700  29.524  13.299  1.00  0.00     0.254 C 
BRANCH  16  17
HETATM   17  N1  UNL     1      49.101  29.409  11.934  1.00  0.00    -0.074 N 
ATOM     18  H12 UNL     1      50.000  28.932  11.865  1.00  0.00     0.277 HD
ATOM     19  H11 UNL     1      49.359  30.322  11.559  1.00  0.00     0.277 HD
BRANCH  17  20
HETATM   20  C4  UNL     1      48.127  28.774  11.086  1.00  0.00     0.232 C 
BRANCH  20  21
HETATM   21  C3  UNL     1      48.271  29.393   9.695  1.00  0.00     0.027 C 
BRANCH  21  22
HETATM   22  C2  UNL     1      46.928  30.021   9.340  1.00  0.00    -0.003 C 
HETATM   23  C1  UNL     1      47.077  31.037   8.238  1.00  0.00     0.005 C 
ENDBRANCH  21  22
ENDBRANCH  20  21
ENDBRANCH  17  20
ENDBRANCH  16  17
ENDBRANCH  15  16
ENDBRANCH   1  15
BRANCH  14  24
HETATM   24  N9  UNL     1      47.469  27.709  14.676  1.00  0.00    -0.233 N 
ATOM     25  H92 UNL     1      47.424  28.639  14.261  1.00  0.00     0.174 HD
ATOM     26  H91 UNL     1      46.604  27.285  15.011  1.00  0.00     0.174 HD
ENDBRANCH  14  24
BRANCH   5  27
HETATM   27  N4  UNL     1      53.288  25.789  14.824  1.00  0.00    -0.383 N 
ATOM     28  H42 UNL     1      53.856  26.230  15.548  1.00  0.00     0.157 HD
ATOM     29  H41 UNL     1      53.574  25.864  13.848  1.00  0.00     0.157 HD
ENDBRANCH   5  27
BRANCH   8  30
HETATM   30  N6  UNL     1      51.052  21.880  15.919  1.00  0.00    -0.234 N 
ATOM     31  H62 UNL     1      50.383  21.223  15.519  1.00  0.00     0.174 HD
ATOM     32  H61 UNL     1      51.746  21.516  16.572  1.00  0.00     0.174 HD
ENDBRANCH   8  30
TORSDOF 9
ENDMDL
MODEL 4
REMARK VINA RESULT: -5.436455706      3.072      7.271
REMARK  9 active torsions:
REMARK  status: ('A' for Active; 'I' for Inactive)
REMARK    1  A    between atoms: C2_2  and  C3_3 
REMARK    2  A    between atoms: C3_3  and  C4_4 
REMARK    3  A    between atoms: C4_4  and  N1_5 
REMARK    4  A    between atoms: N1_5  and  C5_8 
REMARK    5  A    between atoms: C5_8  and  C6_9 
REMARK    6  A    between atoms: C6_9  and  N2_10 
REMARK    7  A    between atoms: C8_14  and  N4_15 
REMARK    8  A    between atoms: C9_20  and  N6_21 
REMARK    9  A    between atoms: C11_29  and  N9_30 
ROOT
HETATM    1  N2  UNL     1      51.002  24.412  15.206  1.00  0.00    -0.122 N 
HETATM    2  N3  UNL     1      51.294  25.699  15.180  1.00  0.00    -0.277 N 
ATOM      3  H3  UNL     1      52.265  25.989  15.299  1.00  0.00     0.188 HD
HETATM    4  C7  UNL     1      50.365  26.624  15.003  1.00  0.00     0.138 A 
HETATM    5  C8  UNL     1      50.620  27.977  14.967  1.00  0.00     0.146 A 
HETATM    6  N5  UNL     1      49.617  28.824  14.782  1.00  0.00    -0.175 N 
ATOM      7  H5  UNL     1      49.828  29.822  14.758  1.00  0.00     0.186 HD
HETATM    8  C9  UNL     1      48.336  28.443  14.626  1.00  0.00     0.679 A 
HETATM    9  N7  UNL     1      48.065  27.131  14.658  1.00  0.00    -0.174 N 
ATOM     10  H7  UNL     1      47.102  26.816  14.541  1.00  0.00     0.186 HD
HETATM   11  C10 UNL     1      49.052  26.211  14.843  1.00  0.00     0.168 A 
HETATM   12  N8  UNL     1      48.777  24.902  14.874  1.00  0.00    -0.172 N 
ATOM     13  H8  UNL     1      47.813  24.591  14.756  1.00  0.00     0.186 HD
HETATM   14  C11 UNL     1      49.748  23.985  15.056  1.00  0.00     0.694 A 
ENDROOT
BRANCH   1  15
HETATM   15  C6  UNL     1      52.094  23.495  15.391  1.00  0.00     0.195 C 
BRANCH  15  16
HETATM   16  C5  UNL     1      52.164  22.491  14.267  1.00  0.00     0.254 C 
BRANCH  16  17
HETATM   17  N1  UNL     1      52.578  21.218  14.762  1.00  0.00    -0.074 N 
ATOM     18  H12 UNL     1      52.174  21.044  15.683  1.00  0.00     0.277 HD
ATOM     19  H11 UNL     1      53.568  21.234  15.007  1.00  0.00     0.277 HD
BRANCH  17  20
HETATM   20  C4  UNL     1      52.296  20.121  13.874  1.00  0.00     0.232 C 
BRANCH  20  21
HETATM   21  C3  UNL     1      52.274  20.688  12.453  1.00  0.00     0.027 C 
BRANCH  21  22
HETATM   22  C2  UNL     1      51.564  19.667  11.572  1.00  0.00    -0.003 C 
HETATM   23  C1  UNL     1      51.305  18.388  12.324  1.00  0.00     0.005 C 
ENDBRANCH  21  22
ENDBRANCH  20  21
ENDBRANCH  17  20
ENDBRANCH  16  17
ENDBRANCH  15  16
ENDBRANCH   1  15
BRANCH  14  24
HETATM   24  N9  UNL     1      49.416  22.711  15.091  1.00  0.00    -0.233 N 
ATOM     25  H92 UNL     1      48.916  22.358  15.907  1.00  0.00     0.174 HD
ATOM     26  H91 UNL     1      49.645  22.057  14.344  1.00  0.00     0.174 HD
ENDBRANCH  14  24
BRANCH   5  27
HETATM   27  N4  UNL     1      51.861  28.331  15.120  1.00  0.00    -0.383 N 
ATOM     28  H42 UNL     1      52.297  28.530  16.021  1.00  0.00     0.157 HD
ATOM     29  H41 UNL     1      52.415  28.410  14.267  1.00  0.00     0.157 HD
ENDBRANCH   5  27
BRANCH   8  30
HETATM   30  N6  UNL     1      47.386  29.330  14.447  1.00  0.00    -0.234 N 
ATOM     31  H62 UNL     1      46.840  29.353  13.586  1.00  0.00     0.174 HD
ATOM     32  H61 UNL     1      47.170  30.020  15.167  1.00  0.00     0.174 HD
ENDBRANCH   8  30
TORSDOF 9
ENDMDL
MODEL 5
REMARK VINA RESULT: -5.344501492      1.568      3.040
REMARK  9 active torsions:
REMARK  status: ('A' for Active; 'I' for Inactive)
REMARK    1  A    between atoms: C2_2  and  C3_3 
REMARK    2  A    between atoms: C3_3  and  C4_4 
REMARK    3  A    between atoms: C4_4  and  N1_5 
REMARK    4  A    between atoms: N1_5  and  C5_8 
REMARK    5  A    between atoms: C5_8  and  C6_9 
REMARK    6  A    between atoms: C6_9  and  N2_10 
REMARK    7  A    between atoms: C8_14  and  N4_15 
REMARK    8  A    between atoms: C9_20  and  N6_21 
REMARK    9  A    between atoms: C11_29  and  N9_30 
ROOT
HETATM    1  N2  UNL     1      50.018  27.296  14.968  1.00  0.00    -0.122 N 
HETATM    2  N3  UNL     1      51.221  26.753  15.006  1.00  0.00    -0.277 N 
ATOM      3  H3  UNL     1      52.038  27.362  15.042  1.00  0.00     0.188 HD
HETATM    4  C7  UNL     1      51.396  25.442  15.001  1.00  0.00     0.138 A 
HETATM    5  C8  UNL     1      52.628  24.828  15.041  1.00  0.00     0.146 A 
HETATM    6  N5  UNL     1      52.698  23.504  15.032  1.00  0.00    -0.175 N 
ATOM      7  H5  UNL     1      53.621  23.070  15.064  1.00  0.00     0.186 HD
HETATM    8  C9  UNL     1      51.621  22.700  14.984  1.00  0.00     0.679 A 
HETATM    9  N7  UNL     1      50.411  23.276  14.945  1.00  0.00    -0.174 N 
ATOM     10  H7  UNL     1      49.578  22.688  14.909  1.00  0.00     0.186 HD
HETATM   11  C10 UNL     1      50.274  24.630  14.952  1.00  0.00     0.168 A 
HETATM   12  N8  UNL     1      49.064  25.202  14.913  1.00  0.00    -0.172 N 
ATOM     13  H8  UNL     1      48.234  24.610  14.877  1.00  0.00     0.186 HD
HETATM   14  C11 UNL     1      48.920  26.542  14.920  1.00  0.00     0.694 A 
ENDROOT
BRANCH   1  15
HETATM   15  C6  UNL     1      49.945  28.732  14.992  1.00  0.00     0.195 C 
BRANCH  15  16
HETATM   16  C5  UNL     1      50.083  29.314  13.607  1.00  0.00     0.254 C 
BRANCH  16  17
HETATM   17  N1  UNL     1      48.798  29.591  13.053  1.00  0.00    -0.074 N 
ATOM     18  H12 UNL     1      48.531  30.558  13.236  1.00  0.00     0.277 HD
ATOM     19  H11 UNL     1      48.070  29.107  13.581  1.00  0.00     0.277 HD
BRANCH  17  20
HETATM   20  C4  UNL     1      48.684  29.293  11.650  1.00  0.00     0.232 C 
BRANCH  20  21
HETATM   21  C3  UNL     1      47.784  28.063  11.523  1.00  0.00     0.027 C 
BRANCH  21  22
HETATM   22  C2  UNL     1      46.348  28.565  11.422  1.00  0.00    -0.003 C 
HETATM   23  C1  UNL     1      46.124  29.314  10.135  1.00  0.00     0.005 C 
ENDBRANCH  21  22
ENDBRANCH  20  21
ENDBRANCH  17  20
ENDBRANCH  16  17
ENDBRANCH  15  16
ENDBRANCH   1  15
BRANCH  14  24
HETATM   24  N9  UNL     1      47.705  27.047  14.865  1.00  0.00    -0.233 N 
ATOM     25  H92 UNL     1      47.058  26.848  15.628  1.00  0.00     0.174 HD
ATOM     26  H91 UNL     1      47.377  27.621  14.089  1.00  0.00     0.174 HD
ENDBRANCH  14  24
BRANCH   5  27
HETATM   27  N4  UNL     1      53.661  25.617  15.086  1.00  0.00    -0.383 N 
ATOM     28  H42 UNL     1      54.498  25.504  14.512  1.00  0.00     0.157 HD
ATOM     29  H41 UNL     1      53.607  26.391  15.747  1.00  0.00     0.157 HD
ENDBRANCH   5  27
BRANCH   8  30
HETATM   30  N6  UNL     1      51.753  21.394  14.978  1.00  0.00    -0.234 N 
ATOM     31  H62 UNL     1      52.666  20.956  14.856  1.00  0.00     0.174 HD
ATOM     32  H61 UNL     1      50.944  20.785  15.095  1.00  0.00     0.174 HD
ENDBRANCH   8  30
TORSDOF 9
ENDMDL
