MODEL 1
REMARK VINA RESULT: -8.001753187      0.000      0.000
REMARK  9 active torsions:
REMARK  status: ('A' for Active; 'I' for Inactive)
REMARK    1  A    between atoms: N1_1  and  C1_4 
REMARK    2  A    between atoms: C3_9  and  N4_10 
REMARK    3  A    between atoms: N5_12  and  C4_14 
REMARK    4  A    between atoms: C4_14  and  C5_15 
REMARK    5  A    between atoms: C5_15  and  C6_16 
REMARK    6  A    between atoms: C6_16  and  S1_17 
REMARK    7  A    between atoms: S1_17  and  C7_18 
REMARK    8  A    between atoms: C7_18  and  C8_19 
REMARK    9  A    between atoms: C9_22  and  N6_23 
ROOT
HETATM    1  C1  UNL     1      52.511  25.330  15.315  1.00  0.00     0.678 A 
HETATM    2  N2  UNL     1      52.294  26.647  15.252  1.00  0.00    -0.177 N 
ATOM      3  H2  UNL     1      53.085  27.285  15.330  1.00  0.00     0.185 HD
HETATM    4  C2  UNL     1      51.064  27.148  15.091  1.00  0.00     0.163 A 
HETATM    5  N3  UNL     1      50.856  28.583  15.026  1.00  0.00    -0.080 NA
HETATM    6  C3  UNL     1      49.983  26.301  14.985  1.00  0.00     0.134 A 
HETATM    7  C9  UNL     1      50.225  24.945  15.052  1.00  0.00     0.146 A 
HETATM    8  N7  UNL     1      51.476  24.482  15.215  1.00  0.00    -0.175 N 
ATOM      9  H7  UNL     1      51.640  23.477  15.264  1.00  0.00     0.186 HD
ENDROOT
BRANCH   6  10
HETATM   10  N4  UNL     1      48.703  26.857  14.801  1.00  0.00    -0.299 N 
HETATM   11  N5  UNL     1      48.374  27.631  13.877  1.00  0.00    -0.336 N 
ATOM     12  H5  UNL     1      49.070  27.902  13.181  1.00  0.00     0.180 HD
ATOM     13  H4  UNL     1      47.984  26.607  15.479  1.00  0.00     0.186 HD
BRANCH  11  14
HETATM   14  C4  UNL     1      47.030  28.153  13.772  1.00  0.00     0.140 C 
BRANCH  14  15
HETATM   15  C5  UNL     1      46.660  28.504  12.347  1.00  0.00     0.031 C 
BRANCH  15  16
HETATM   16  C6  UNL     1      47.739  28.050  11.435  1.00  0.00     0.076 C 
BRANCH  16  17
HETATM   17  S1  UNL     1      48.687  29.399  10.709  1.00  0.00    -0.158 SA
BRANCH  17  18
HETATM   18  C7  UNL     1      48.090  29.814   9.072  1.00  0.00     0.186 C 
BRANCH  18  19
HETATM   19  C8  UNL     1      46.774  30.456   9.074  1.00  0.00     0.182 C 
HETATM   20  O1  UNL     1      45.692  29.801   9.139  1.00  0.00    -0.647 OA
HETATM   21  O2  UNL     1      46.707  31.853   9.000  1.00  0.00    -0.647 OA
ENDBRANCH  18  19
ENDBRANCH  17  18
ENDBRANCH  16  17
ENDBRANCH  15  16
ENDBRANCH  14  15
ENDBRANCH  11  14
ENDBRANCH   6  10
BRANCH   7  22
HETATM   22  N6  UNL     1      49.228  24.171  14.948  1.00  0.00    -0.383 N 
ATOM     23  H62 UNL     1      48.638  24.156  14.116  1.00  0.00     0.157 HD
ATOM     24  H61 UNL     1      49.029  23.556  15.737  1.00  0.00     0.157 HD
ENDBRANCH   7  22
BRANCH   1  25
HETATM   25  N1  UNL     1      53.744  24.921  15.468  1.00  0.00    -0.234 N 
ATOM     26  H12 UNL     1      54.509  25.247  14.877  1.00  0.00     0.174 HD
ATOM     27  H11 UNL     1      53.935  24.254  16.216  1.00  0.00     0.174 HD
ENDBRANCH   1  25
TORSDOF 9
ENDMDL
MODEL 2
REMARK VINA RESULT: -7.455748163      0.342      1.878
REMARK  9 active torsions:
REMARK  status: ('A' for Active; 'I' for Inactive)
REMARK    1  A    between atoms: N1_1  and  C1_4 
REMARK    2  A    between atoms: C3_9  and  N4_10 
REMARK    3  A    between atoms: N5_12  and  C4_14 
REMARK    4  A    between atoms: C4_14  and  C5_15 
REMARK    5  A    between atoms: C5_15  and  C6_16 
REMARK    6  A    between atoms: C6_16  and  S1_17 
REMARK    7  A    between atoms: S1_17  and  C7_18 
REMARK    8  A    between atoms: C7_18  and  C8_19 
REMARK    9  A    between atoms: C9_22  and  N6_23 
ROOT
HETATM    1  C1  UNL     1      52.659  25.164  15.317  1.00  0.00     0.678 A 
HETATM    2  N2  UNL     1      51.491  24.531  15.173  1.00  0.00    -0.177 N 
ATOM      3  H2  UNL     1      51.477  23.512  15.159  1.00  0.00     0.185 HD
HETATM    4  C2  UNL     1      50.340  25.202  15.046  1.00  0.00     0.163 A 
HETATM    5  N3  UNL     1      49.086  24.489  14.892  1.00  0.00    -0.080 NA
HETATM    6  C3  UNL     1      50.340  26.579  15.063  1.00  0.00     0.134 A 
HETATM    7  C9  UNL     1      51.554  27.216  15.212  1.00  0.00     0.146 A 
HETATM    8  N7  UNL     1      52.688  26.506  15.335  1.00  0.00    -0.175 N 
ATOM      9  H7  UNL     1      53.578  26.990  15.444  1.00  0.00     0.186 HD
ENDROOT
BRANCH   6  10
HETATM   10  N4  UNL     1      49.112  27.257  14.942  1.00  0.00    -0.299 N 
HETATM   11  N5  UNL     1      48.459  27.392  13.886  1.00  0.00    -0.336 N 
ATOM     12  H5  UNL     1      48.819  26.988  13.021  1.00  0.00     0.180 HD
ATOM     13  H4  UNL     1      48.724  27.672  15.789  1.00  0.00     0.186 HD
BRANCH  11  14
HETATM   14  C4  UNL     1      47.203  28.109  13.862  1.00  0.00     0.140 C 
BRANCH  14  15
HETATM   15  C5  UNL     1      46.789  28.496  12.459  1.00  0.00     0.031 C 
BRANCH  15  16
HETATM   16  C6  UNL     1      47.831  28.049  11.501  1.00  0.00     0.076 C 
BRANCH  16  17
HETATM   17  S1  UNL     1      48.724  29.404  10.719  1.00  0.00    -0.158 SA
BRANCH  17  18
HETATM   18  C7  UNL     1      48.059  29.783   9.100  1.00  0.00     0.186 C 
BRANCH  18  19
HETATM   19  C8  UNL     1      46.751  30.440   9.144  1.00  0.00     0.182 C 
HETATM   20  O1  UNL     1      45.672  29.807   9.342  1.00  0.00    -0.647 OA
HETATM   21  O2  UNL     1      46.690  31.827   8.958  1.00  0.00    -0.647 OA
ENDBRANCH  18  19
ENDBRANCH  17  18
ENDBRANCH  16  17
ENDBRANCH  15  16
ENDBRANCH  14  15
ENDBRANCH  11  14
ENDBRANCH   6  10
BRANCH   7  22
HETATM   22  N6  UNL     1      51.547  28.483  15.232  1.00  0.00    -0.383 N 
ATOM     23  H62 UNL     1      50.860  29.013  15.768  1.00  0.00     0.157 HD
ATOM     24  H61 UNL     1      52.260  28.963  14.682  1.00  0.00     0.157 HD
ENDBRANCH   7  22
BRANCH   1  25
HETATM   25  N1  UNL     1      53.737  24.435  15.440  1.00  0.00    -0.234 N 
ATOM     26  H12 UNL     1      54.252  24.358  16.317  1.00  0.00     0.174 HD
ATOM     27  H11 UNL     1      54.062  23.924  14.619  1.00  0.00     0.174 HD
ENDBRANCH   1  25
TORSDOF 9
ENDMDL
MODEL 3
REMARK VINA RESULT: -6.844032034      1.366      1.445
REMARK  9 active torsions:
REMARK  status: ('A' for Active; 'I' for Inactive)
REMARK    1  A    between atoms: N1_1  and  C1_4 
REMARK    2  A    between atoms: C3_9  and  N4_10 
REMARK    3  A    between atoms: N5_12  and  C4_14 
REMARK    4  A    between atoms: C4_14  and  C5_15 
REMARK    5  A    between atoms: C5_15  and  C6_16 
REMARK    6  A    between atoms: C6_16  and  S1_17 
REMARK    7  A    between atoms: S1_17  and  C7_18 
REMARK    8  A    between atoms: C7_18  and  C8_19 
REMARK    9  A    between atoms: C9_22  and  N6_23 
ROOT
HETATM    1  C1  UNL     1      52.538  25.320  15.257  1.00  0.00     0.678 A 
HETATM    2  N2  UNL     1      52.291  26.633  15.240  1.00  0.00    -0.177 N 
ATOM      3  H2  UNL     1      53.070  27.286  15.314  1.00  0.00     0.185 HD
HETATM    4  C2  UNL     1      51.047  27.112  15.129  1.00  0.00     0.163 A 
HETATM    5  N3  UNL     1      50.806  28.542  15.112  1.00  0.00    -0.080 NA
HETATM    6  C3  UNL     1      49.981  26.244  15.029  1.00  0.00     0.134 A 
HETATM    7  C9  UNL     1      50.255  24.892  15.048  1.00  0.00     0.146 A 
HETATM    8  N7  UNL     1      51.519  24.453  15.162  1.00  0.00    -0.175 N 
ATOM      9  H7  UNL     1      51.706  23.450  15.177  1.00  0.00     0.186 HD
ENDROOT
BRANCH   6  10
HETATM   10  N4  UNL     1      48.685  26.776  14.898  1.00  0.00    -0.299 N 
HETATM   11  N5  UNL     1      48.299  27.529  13.979  1.00  0.00    -0.336 N 
ATOM     12  H5  UNL     1      48.956  27.799  13.246  1.00  0.00     0.180 HD
ATOM     13  H4  UNL     1      48.003  26.526  15.614  1.00  0.00     0.186 HD
BRANCH  11  14
HETATM   14  C4  UNL     1      46.942  28.028  13.930  1.00  0.00     0.140 C 
BRANCH  14  15
HETATM   15  C5  UNL     1      46.731  29.010  12.799  1.00  0.00     0.031 C 
BRANCH  15  16
HETATM   16  C6  UNL     1      46.411  28.264  11.556  1.00  0.00     0.076 C 
BRANCH  16  17
HETATM   17  S1  UNL     1      45.763  29.303  10.235  1.00  0.00    -0.158 SA
BRANCH  17  18
HETATM   18  C7  UNL     1      47.082  30.076   9.301  1.00  0.00     0.186 C 
BRANCH  18  19
HETATM   19  C8  UNL     1      48.391  29.456   9.515  1.00  0.00     0.182 C 
HETATM   20  O1  UNL     1      48.783  28.442   8.866  1.00  0.00    -0.647 OA
HETATM   21  O2  UNL     1      49.245  30.006  10.479  1.00  0.00    -0.647 OA
ENDBRANCH  18  19
ENDBRANCH  17  18
ENDBRANCH  16  17
ENDBRANCH  15  16
ENDBRANCH  14  15
ENDBRANCH  11  14
ENDBRANCH   6  10
BRANCH   7  22
HETATM   22  N6  UNL     1      49.272  24.099  14.950  1.00  0.00    -0.383 N 
ATOM     23  H62 UNL     1      48.366  24.400  14.588  1.00  0.00     0.157 HD
ATOM     24  H61 UNL     1      49.416  23.136  15.253  1.00  0.00     0.157 HD
ENDBRANCH   7  22
BRANCH   1  25
HETATM   25  N1  UNL     1      53.784  24.935  15.363  1.00  0.00    -0.234 N 
ATOM     26  H12 UNL     1      54.490  25.159  14.662  1.00  0.00     0.174 HD
ATOM     27  H11 UNL     1      54.046  24.394  16.187  1.00  0.00     0.174 HD
ENDBRANCH   1  25
TORSDOF 9
ENDMDL
MODEL 4
REMARK VINA RESULT: -6.254358165      4.919      7.688
REMARK  9 active torsions:
REMARK  status: ('A' for Active; 'I' for Inactive)
REMARK    1  A    between atoms: N1_1  and  C1_4 
REMARK    2  A    between atoms: C3_9  and  N4_10 
REMARK    3  A    between atoms: N5_12  and  C4_14 
REMARK    4  A    between atoms: C4_14  and  C5_15 
REMARK    5  A    between atoms: C5_15  and  C6_16 
REMARK    6  A    between atoms: C6_16  and  S1_17 
REMARK    7  A    between atoms: S1_17  and  C7_18 
REMARK    8  A    between atoms: C7_18  and  C8_19 
REMARK    9  A    between atoms: C9_22  and  N6_23 
ROOT
HETATM    1  C1  UNL     1      46.868  30.423   8.907  1.00  0.00     0.678 A 
HETATM    2  N2  UNL     1      48.161  30.362   9.238  1.00  0.00    -0.177 N 
ATOM      3  H2  UNL     1      48.843  30.863   8.670  1.00  0.00     0.185 HD
HETATM    4  C2  UNL     1      48.582  29.661  10.297  1.00  0.00     0.163 A 
HETATM    5  N3  UNL     1      49.992  29.613  10.636  1.00  0.00    -0.080 NA
HETATM    6  C3  UNL     1      47.674  28.979  11.077  1.00  0.00     0.134 A 
HETATM    7  C9  UNL     1      46.344  29.052  10.720  1.00  0.00     0.146 A 
HETATM    8  N7  UNL     1      45.962  29.767   9.648  1.00  0.00    -0.175 N 
ATOM      9  H7  UNL     1      44.975  29.811   9.395  1.00  0.00     0.186 HD
ENDROOT
BRANCH   6  10
HETATM   10  N4  UNL     1      48.144  28.262  12.193  1.00  0.00    -0.299 N 
HETATM   11  N5  UNL     1      48.466  28.760  13.292  1.00  0.00    -0.336 N 
ATOM     12  H5  UNL     1      48.392  29.770  13.424  1.00  0.00     0.180 HD
ATOM     13  H4  UNL     1      48.230  27.250  12.096  1.00  0.00     0.186 HD
BRANCH  11  14
HETATM   14  C4  UNL     1      48.941  27.939  14.384  1.00  0.00     0.140 C 
BRANCH  14  15
HETATM   15  C5  UNL     1      50.239  28.453  14.967  1.00  0.00     0.031 C 
BRANCH  15  16
HETATM   16  C6  UNL     1      51.102  27.302  15.333  1.00  0.00     0.076 C 
BRANCH  16  17
HETATM   17  S1  UNL     1      50.386  25.702  14.919  1.00  0.00    -0.158 SA
BRANCH  17  18
HETATM   18  C7  UNL     1      51.644  24.531  14.412  1.00  0.00     0.186 C 
BRANCH  18  19
HETATM   19  C8  UNL     1      51.389  23.164  14.871  1.00  0.00     0.182 C 
HETATM   20  O1  UNL     1      50.828  22.905  15.976  1.00  0.00    -0.647 OA
HETATM   21  O2  UNL     1      51.785  22.097  14.055  1.00  0.00    -0.647 OA
ENDBRANCH  18  19
ENDBRANCH  17  18
ENDBRANCH  16  17
ENDBRANCH  15  16
ENDBRANCH  14  15
ENDBRANCH  11  14
ENDBRANCH   6  10
BRANCH   7  22
HETATM   22  N6  UNL     1      45.512  28.427  11.443  1.00  0.00    -0.383 N 
ATOM     23  H62 UNL     1      45.469  28.556  12.455  1.00  0.00     0.157 HD
ATOM     24  H61 UNL     1      44.881  27.777  10.976  1.00  0.00     0.157 HD
ENDBRANCH   7  22
BRANCH   1  25
HETATM   25  N1  UNL     1      46.539  31.135   7.860  1.00  0.00    -0.234 N 
ATOM     26  H12 UNL     1      46.952  32.047   7.664  1.00  0.00     0.174 HD
ATOM     27  H11 UNL     1      45.845  30.748   7.220  1.00  0.00     0.174 HD
ENDBRANCH   1  25
TORSDOF 9
ENDMDL
MODEL 5
REMARK VINA RESULT: -6.185469441      1.578      2.728
REMARK  9 active torsions:
REMARK  status: ('A' for Active; 'I' for Inactive)
REMARK    1  A    between atoms: N1_1  and  C1_4 
REMARK    2  A    between atoms: C3_9  and  N4_10 
REMARK    3  A    between atoms: N5_12  and  C4_14 
REMARK    4  A    between atoms: C4_14  and  C5_15 
REMARK    5  A    between atoms: C5_15  and  C6_16 
REMARK    6  A    between atoms: C6_16  and  S1_17 
REMARK    7  A    between atoms: S1_17  and  C7_18 
REMARK    8  A    between atoms: C7_18  and  C8_19 
REMARK    9  A    between atoms: C9_22  and  N6_23 
ROOT
HETATM    1  C1  UNL     1      51.880  22.635  14.761  1.00  0.00     0.678 A 
HETATM    2  N2  UNL     1      50.597  22.997  14.851  1.00  0.00    -0.177 N 
ATOM      3  H2  UNL     1      49.873  22.282  14.791  1.00  0.00     0.185 HD
HETATM    4  C2  UNL     1      50.239  24.275  15.018  1.00  0.00     0.163 A 
HETATM    5  N3  UNL     1      48.838  24.642  15.113  1.00  0.00    -0.080 NA
HETATM    6  C3  UNL     1      51.203  25.256  15.101  1.00  0.00     0.134 A 
HETATM    7  C9  UNL     1      52.522  24.864  15.006  1.00  0.00     0.146 A 
HETATM    8  N7  UNL     1      52.839  23.570  14.838  1.00  0.00    -0.175 N 
ATOM      9  H7  UNL     1      53.819  23.295  14.768  1.00  0.00     0.186 HD
ENDROOT
BRANCH   6  10
HETATM   10  N4  UNL     1      50.796  26.590  15.292  1.00  0.00    -0.299 N 
HETATM   11  N5  UNL     1      50.068  27.244  14.516  1.00  0.00    -0.336 N 
ATOM     12  H5  UNL     1      49.722  26.802  13.664  1.00  0.00     0.180 HD
ATOM     13  H4  UNL     1      51.124  27.062  16.134  1.00  0.00     0.186 HD
BRANCH  11  14
HETATM   14  C4  UNL     1      49.703  28.615  14.799  1.00  0.00     0.140 C 
BRANCH  14  15
HETATM   15  C5  UNL     1      48.425  29.025  14.100  1.00  0.00     0.031 C 
BRANCH  15  16
HETATM   16  C6  UNL     1      48.739  29.442  12.710  1.00  0.00     0.076 C 
BRANCH  16  17
HETATM   17  S1  UNL     1      47.779  28.571  11.460  1.00  0.00    -0.158 SA
BRANCH  17  18
HETATM   18  C7  UNL     1      47.950  29.336   9.849  1.00  0.00     0.186 C 
BRANCH  18  19
HETATM   19  C8  UNL     1      46.747  30.042   9.405  1.00  0.00     0.182 C 
HETATM   20  O1  UNL     1      46.747  31.272   9.103  1.00  0.00    -0.647 OA
HETATM   21  O2  UNL     1      45.545  29.330   9.314  1.00  0.00    -0.647 OA
ENDBRANCH  18  19
ENDBRANCH  17  18
ENDBRANCH  16  17
ENDBRANCH  15  16
ENDBRANCH  14  15
ENDBRANCH  11  14
ENDBRANCH   6  10
BRANCH   7  22
HETATM   22  N6  UNL     1      53.404  25.770  15.089  1.00  0.00    -0.383 N 
ATOM     23  H62 UNL     1      53.558  26.300  15.947  1.00  0.00     0.157 HD
ATOM     24  H61 UNL     1      53.961  25.958  14.256  1.00  0.00     0.157 HD
ENDBRANCH   7  22
BRANCH   1  25
HETATM   25  N1  UNL     1      52.146  21.364  14.604  1.00  0.00    -0.234 N 
ATOM     26  H12 UNL     1      51.540  20.738  14.072  1.00  0.00     0.174 HD
ATOM     27  H11 UNL     1      52.997  20.999  15.031  1.00  0.00     0.174 HD
ENDBRANCH   1  25
TORSDOF 9
ENDMDL
