MODEL 1
REMARK VINA RESULT: -8.733600696      0.000      0.000
REMARK  6 active torsions:
REMARK  status: ('A' for Active; 'I' for Inactive)
REMARK    1  A    between atoms: C2_2  and  N1_4 
REMARK    2  A    between atoms: N1_4  and  C4_6 
REMARK    3  A    between atoms: C5_9  and  N3_10 
REMARK    4  A    between atoms: N3_10  and  C6_12 
REMARK    5  A    between atoms: C7_17  and  C8_18 
REMARK    6  A    between atoms: C10_25  and  C11_26 
ROOT
HETATM    1  C4  UNL     1      16.979  17.548  32.769  1.00  0.00     0.132 A 
HETATM    2  N2  UNL     1      16.884  18.880  32.623  1.00  0.00    -0.176 N 
ATOM      3  H2  UNL     1      16.042  19.342  32.964  1.00  0.00     0.186 HD
HETATM    4  C5  UNL     1      17.839  19.642  32.051  1.00  0.00     0.685 A 
HETATM    5  N7  UNL     1      18.959  19.055  31.592  1.00  0.00    -0.201 N 
ATOM      6  H7  UNL     1      19.695  19.610  31.155  1.00  0.00     0.183 HD
HETATM    7  C9  UNL     1      19.092  17.733  31.720  1.00  0.00     0.125 A 
HETATM    8  C10 UNL     1      18.121  16.930  32.305  1.00  0.00     0.071 A 
ENDROOT
BRANCH   4   9
HETATM    9  N3  UNL     1      17.719  21.043  31.907  1.00  0.00    -0.168 N 
ATOM     10  H3  UNL     1      18.396  21.667  32.345  1.00  0.00     0.186 HD
BRANCH   9  11
HETATM   11  C6  UNL     1      16.732  21.527  31.208  1.00  0.00     0.180 A 
HETATM   12  N4  UNL     1      16.337  22.802  31.145  1.00  0.00    -0.278 N 
HETATM   13  N5  UNL     1      15.348  23.097  30.406  1.00  0.00    -0.287 N 
ATOM     14  H4  UNL     1      16.820  23.523  31.680  1.00  0.00     0.189 HD
HETATM   15  C7  UNL     1      14.715  22.175  29.711  1.00  0.00     0.158 A 
ATOM     16  H5  UNL     1      15.037  24.068  30.350  1.00  0.00     0.188 HD
HETATM   17  S1  UNL     1      15.618  20.770  30.159  1.00  0.00    -0.028 SA
BRANCH  15  18
HETATM   18  C8  UNL     1      13.568  22.277  28.807  1.00  0.00     0.289 C 
HETATM   19  N6  UNL     1      12.369  21.637  29.177  1.00  0.00    -0.055 NA
HETATM   20  O1  UNL     1      13.647  22.900  27.755  1.00  0.00    -0.269 OA
ENDBRANCH  15  18
ENDBRANCH   9  11
ENDBRANCH   4   9
BRANCH   1  21
HETATM   21  N1  UNL     1      16.083  16.838  33.306  1.00  0.00    -0.371 N 
ATOM     22  H1  UNL     1      16.310  16.466  34.228  1.00  0.00     0.161 HD
BRANCH  21  23
HETATM   23  C2  UNL     1      14.809  16.488  32.801  1.00  0.00     0.075 C 
HETATM   24  C1  UNL     1      14.716  16.378  31.314  1.00  0.00     0.031 C 
HETATM   25  C3  UNL     1      13.777  17.463  33.303  1.00  0.00     0.031 C 
ENDBRANCH  21  23
ENDBRANCH   1  21
BRANCH   8  26
HETATM   26  C11 UNL     1      18.319  15.499  32.416  1.00  0.00     0.152 A 
HETATM   27  N8  UNL     1      19.045  14.887  33.362  1.00  0.00    -0.268 N 
HETATM   28  N9  UNL     1      19.000  13.577  33.147  1.00  0.00    -0.227 N 
ATOM     29  H8  UNL     1      19.546  15.349  34.120  1.00  0.00     0.190 HD
HETATM   30  N10 UNL     1      18.262  13.344  32.085  1.00  0.00    -0.227 N 
ATOM     31  H9  UNL     1      19.464  12.868  33.713  1.00  0.00     0.210 HD
HETATM   32  N11 UNL     1      17.850  14.515  31.645  1.00  0.00    -0.268 N 
ATOM     33  H10 UNL     1      18.049  12.432  31.681  1.00  0.00     0.210 HD
ATOM     34  H11 UNL     1      17.255  14.652  30.828  1.00  0.00     0.190 HD
ENDBRANCH   8  26
TORSDOF 6
ENDMDL
MODEL 2
REMARK VINA RESULT: -8.707810095      2.359      3.241
REMARK  6 active torsions:
REMARK  status: ('A' for Active; 'I' for Inactive)
REMARK    1  A    between atoms: C2_2  and  N1_4 
REMARK    2  A    between atoms: N1_4  and  C4_6 
REMARK    3  A    between atoms: C5_9  and  N3_10 
REMARK    4  A    between atoms: N3_10  and  C6_12 
REMARK    5  A    between atoms: C7_17  and  C8_18 
REMARK    6  A    between atoms: C10_25  and  C11_26 
ROOT
HETATM    1  C4  UNL     1      15.234  16.667  31.573  1.00  0.00     0.132 A 
HETATM    2  N2  UNL     1      14.341  17.453  30.949  1.00  0.00    -0.176 N 
ATOM      3  H2  UNL     1      13.935  17.119  30.075  1.00  0.00     0.186 HD
HETATM    4  C5  UNL     1      13.948  18.658  31.411  1.00  0.00     0.685 A 
HETATM    5  N7  UNL     1      14.470  19.120  32.562  1.00  0.00    -0.201 N 
ATOM      6  H7  UNL     1      14.190  20.029  32.931  1.00  0.00     0.183 HD
HETATM    7  C9  UNL     1      15.361  18.369  33.214  1.00  0.00     0.125 A 
HETATM    8  C10 UNL     1      15.778  17.126  32.755  1.00  0.00     0.071 A 
ENDROOT
BRANCH   4   9
HETATM    9  N3  UNL     1      13.007  19.468  30.738  1.00  0.00    -0.168 N 
ATOM     10  H3  UNL     1      12.014  19.237  30.766  1.00  0.00     0.186 HD
BRANCH   9  11
HETATM   11  C6  UNL     1      13.423  20.514  30.082  1.00  0.00     0.180 A 
HETATM   12  N4  UNL     1      13.332  21.792  30.460  1.00  0.00    -0.278 N 
HETATM   13  N5  UNL     1      13.793  22.690  29.690  1.00  0.00    -0.287 N 
ATOM     14  H4  UNL     1      12.900  22.042  31.350  1.00  0.00     0.189 HD
HETATM   15  C7  UNL     1      14.352  22.380  28.539  1.00  0.00     0.158 A 
ATOM     16  H5  UNL     1      13.730  23.669  29.969  1.00  0.00     0.188 HD
HETATM   17  S1  UNL     1      14.200  20.658  28.569  1.00  0.00    -0.028 SA
BRANCH  15  18
HETATM   18  C8  UNL     1      14.945  23.229  27.503  1.00  0.00     0.289 C 
HETATM   19  N6  UNL     1      14.078  23.926  26.638  1.00  0.00    -0.055 NA
HETATM   20  O1  UNL     1      16.160  23.332  27.391  1.00  0.00    -0.269 OA
ENDBRANCH  15  18
ENDBRANCH   9  11
ENDBRANCH   4   9
BRANCH   1  21
HETATM   21  N1  UNL     1      15.598  15.540  31.138  1.00  0.00    -0.371 N 
ATOM     22  H1  UNL     1      15.333  14.739  31.712  1.00  0.00     0.161 HD
BRANCH  21  23
HETATM   23  C2  UNL     1      16.326  15.236  29.963  1.00  0.00     0.075 C 
HETATM   24  C1  UNL     1      17.333  16.259  29.550  1.00  0.00     0.031 C 
HETATM   25  C3  UNL     1      15.372  14.974  28.828  1.00  0.00     0.031 C 
ENDBRANCH  21  23
ENDBRANCH   1  21
BRANCH   8  26
HETATM   26  C11 UNL     1      16.749  16.354  33.504  1.00  0.00     0.152 A 
HETATM   27  N8  UNL     1      18.077  16.535  33.471  1.00  0.00    -0.268 N 
HETATM   28  N9  UNL     1      18.644  15.648  34.280  1.00  0.00    -0.227 N 
ATOM     29  H8  UNL     1      18.569  17.237  32.918  1.00  0.00     0.190 HD
HETATM   30  N10 UNL     1      17.706  14.907  34.826  1.00  0.00    -0.227 N 
ATOM     31  H9  UNL     1      19.645  15.556  34.450  1.00  0.00     0.210 HD
HETATM   32  N11 UNL     1      16.556  15.341  34.351  1.00  0.00    -0.268 N 
ATOM     33  H10 UNL     1      17.843  14.145  35.489  1.00  0.00     0.210 HD
ATOM     34  H11 UNL     1      15.644  14.955  34.596  1.00  0.00     0.190 HD
ENDBRANCH   8  26
TORSDOF 6
ENDMDL
MODEL 3
REMARK VINA RESULT: -8.588234090      2.031      3.152
REMARK  6 active torsions:
REMARK  status: ('A' for Active; 'I' for Inactive)
REMARK    1  A    between atoms: C2_2  and  N1_4 
REMARK    2  A    between atoms: N1_4  and  C4_6 
REMARK    3  A    between atoms: C5_9  and  N3_10 
REMARK    4  A    between atoms: N3_10  and  C6_12 
REMARK    5  A    between atoms: C7_17  and  C8_18 
REMARK    6  A    between atoms: C10_25  and  C11_26 
ROOT
HETATM    1  C4  UNL     1      16.286  17.759  31.634  1.00  0.00     0.132 A 
HETATM    2  N2  UNL     1      15.336  18.621  31.237  1.00  0.00    -0.176 N 
ATOM      3  H2  UNL     1      15.406  19.014  30.299  1.00  0.00     0.186 HD
HETATM    4  C5  UNL     1      14.295  18.998  32.008  1.00  0.00     0.685 A 
HETATM    5  N7  UNL     1      14.182  18.493  33.250  1.00  0.00    -0.201 N 
ATOM      6  H7  UNL     1      13.404  18.764  33.851  1.00  0.00     0.183 HD
HETATM    7  C9  UNL     1      15.106  17.632  33.682  1.00  0.00     0.125 A 
HETATM    8  C10 UNL     1      16.185  17.231  32.905  1.00  0.00     0.071 A 
ENDROOT
BRANCH   4   9
HETATM    9  N3  UNL     1      13.306  19.908  31.570  1.00  0.00    -0.168 N 
ATOM     10  H3  UNL     1      12.346  19.826  31.904  1.00  0.00     0.186 HD
BRANCH   9  11
HETATM   11  C6  UNL     1      13.637  20.852  30.736  1.00  0.00     0.180 A 
HETATM   12  N4  UNL     1      13.821  22.146  31.013  1.00  0.00    -0.278 N 
HETATM   13  N5  UNL     1      14.142  22.932  30.070  1.00  0.00    -0.287 N 
ATOM     14  H4  UNL     1      13.705  22.496  31.965  1.00  0.00     0.189 HD
HETATM   15  C7  UNL     1      14.294  22.493  28.837  1.00  0.00     0.158 A 
ATOM     16  H5  UNL     1      14.286  23.922  30.270  1.00  0.00     0.188 HD
HETATM   17  S1  UNL     1      13.946  20.813  29.057  1.00  0.00    -0.028 SA
BRANCH  15  18
HETATM   18  C8  UNL     1      14.656  23.200  27.607  1.00  0.00     0.289 C 
HETATM   19  N6  UNL     1      16.023  23.355  27.306  1.00  0.00    -0.055 NA
HETATM   20  O1  UNL     1      13.794  23.646  26.859  1.00  0.00    -0.269 OA
ENDBRANCH  15  18
ENDBRANCH   9  11
ENDBRANCH   4   9
BRANCH   1  21
HETATM   21  N1  UNL     1      17.259  17.408  30.910  1.00  0.00    -0.371 N 
ATOM     22  H1  UNL     1      18.183  17.657  31.262  1.00  0.00     0.161 HD
BRANCH  21  23
HETATM   23  C2  UNL     1      17.241  16.716  29.676  1.00  0.00     0.075 C 
HETATM   24  C1  UNL     1      16.525  15.405  29.685  1.00  0.00     0.031 C 
HETATM   25  C3  UNL     1      18.650  16.521  29.182  1.00  0.00     0.031 C 
ENDBRANCH  21  23
ENDBRANCH   1  21
BRANCH   8  26
HETATM   26  C11 UNL     1      17.159  16.293  33.426  1.00  0.00     0.152 A 
HETATM   27  N8  UNL     1      16.994  14.965  33.499  1.00  0.00    -0.268 N 
HETATM   28  N9  UNL     1      18.089  14.433  34.029  1.00  0.00    -0.227 N 
ATOM     29  H8  UNL     1      16.167  14.449  33.198  1.00  0.00     0.190 HD
HETATM   30  N10 UNL     1      18.946  15.393  34.293  1.00  0.00    -0.227 N 
ATOM     31  H9  UNL     1      18.241  13.439  34.202  1.00  0.00     0.210 HD
HETATM   32  N11 UNL     1      18.376  16.522  33.924  1.00  0.00    -0.268 N 
ATOM     33  H10 UNL     1      19.873  15.285  34.704  1.00  0.00     0.210 HD
ATOM     34  H11 UNL     1      18.804  17.443  34.009  1.00  0.00     0.190 HD
ENDBRANCH   8  26
TORSDOF 6
ENDMDL
MODEL 4
REMARK VINA RESULT: -8.576900847      1.830      3.278
REMARK  6 active torsions:
REMARK  status: ('A' for Active; 'I' for Inactive)
REMARK    1  A    between atoms: C2_2  and  N1_4 
REMARK    2  A    between atoms: N1_4  and  C4_6 
REMARK    3  A    between atoms: C5_9  and  N3_10 
REMARK    4  A    between atoms: N3_10  and  C6_12 
REMARK    5  A    between atoms: C7_17  and  C8_18 
REMARK    6  A    between atoms: C10_25  and  C11_26 
ROOT
HETATM    1  C4  UNL     1      16.367  17.759  31.849  1.00  0.00     0.132 A 
HETATM    2  N2  UNL     1      15.370  18.627  31.613  1.00  0.00    -0.176 N 
ATOM      3  H2  UNL     1      15.445  19.564  32.009  1.00  0.00     0.186 HD
HETATM    4  C5  UNL     1      14.274  18.332  30.883  1.00  0.00     0.685 A 
HETATM    5  N7  UNL     1      14.153  17.103  30.351  1.00  0.00    -0.201 N 
ATOM      6  H7  UNL     1      13.333  16.856  29.796  1.00  0.00     0.183 HD
HETATM    7  C9  UNL     1      15.123  16.211  30.561  1.00  0.00     0.125 A 
HETATM    8  C10 UNL     1      16.259  16.494  31.310  1.00  0.00     0.071 A 
ENDROOT
BRANCH   4   9
HETATM    9  N3  UNL     1      13.236  19.262  30.648  1.00  0.00    -0.168 N 
ATOM     10  H3  UNL     1      12.297  19.089  31.006  1.00  0.00     0.186 HD
BRANCH   9  11
HETATM   11  C6  UNL     1      13.494  20.343  29.967  1.00  0.00     0.180 A 
HETATM   12  N4  UNL     1      13.109  21.589  30.256  1.00  0.00    -0.278 N 
HETATM   13  N5  UNL     1      13.452  22.529  29.476  1.00  0.00    -0.287 N 
ATOM     14  H4  UNL     1      12.550  21.781  31.088  1.00  0.00     0.189 HD
HETATM   15  C7  UNL     1      14.173  22.293  28.399  1.00  0.00     0.158 A 
ATOM     16  H5  UNL     1      13.164  23.485  29.687  1.00  0.00     0.188 HD
HETATM   17  S1  UNL     1      14.371  20.580  28.523  1.00  0.00    -0.028 SA
BRANCH  15  18
HETATM   18  C8  UNL     1      14.680  23.202  27.369  1.00  0.00     0.289 C 
HETATM   19  N6  UNL     1      16.068  23.436  27.313  1.00  0.00    -0.055 NA
HETATM   20  O1  UNL     1      13.919  23.746  26.577  1.00  0.00    -0.269 OA
ENDBRANCH  15  18
ENDBRANCH   9  11
ENDBRANCH   4   9
BRANCH   1  21
HETATM   21  N1  UNL     1      17.391  18.038  32.532  1.00  0.00    -0.371 N 
ATOM     22  H1  UNL     1      17.574  17.421  33.324  1.00  0.00     0.161 HD
BRANCH  21  23
HETATM   23  C2  UNL     1      18.318  19.091  32.350  1.00  0.00     0.075 C 
HETATM   24  C1  UNL     1      19.680  18.675  31.899  1.00  0.00     0.031 C 
HETATM   25  C3  UNL     1      18.427  19.898  33.616  1.00  0.00     0.031 C 
ENDBRANCH  21  23
ENDBRANCH   1  21
BRANCH   8  26
HETATM   26  C11 UNL     1      17.281  15.485  31.506  1.00  0.00     0.152 A 
HETATM   27  N8  UNL     1      18.332  15.280  30.701  1.00  0.00    -0.268 N 
HETATM   28  N9  UNL     1      19.051  14.277  31.194  1.00  0.00    -0.227 N 
ATOM     29  H8  UNL     1      18.545  15.805  29.853  1.00  0.00     0.190 HD
HETATM   30  N10 UNL     1      18.479  13.842  32.294  1.00  0.00    -0.227 N 
ATOM     31  H9  UNL     1      19.907  13.905  30.784  1.00  0.00     0.210 HD
HETATM   32  N11 UNL     1      17.404  14.580  32.479  1.00  0.00    -0.268 N 
ATOM     33  H10 UNL     1      18.806  13.081  32.889  1.00  0.00     0.210 HD
ATOM     34  H11 UNL     1      16.755  14.474  33.259  1.00  0.00     0.190 HD
ENDBRANCH   8  26
TORSDOF 6
ENDMDL
MODEL 5
REMARK VINA RESULT: -8.545959182      1.763      3.183
REMARK  6 active torsions:
REMARK  status: ('A' for Active; 'I' for Inactive)
REMARK    1  A    between atoms: C2_2  and  N1_4 
REMARK    2  A    between atoms: N1_4  and  C4_6 
REMARK    3  A    between atoms: C5_9  and  N3_10 
REMARK    4  A    between atoms: N3_10  and  C6_12 
REMARK    5  A    between atoms: C7_17  and  C8_18 
REMARK    6  A    between atoms: C10_25  and  C11_26 
ROOT
HETATM    1  C4  UNL     1      16.406  17.794  31.891  1.00  0.00     0.132 A 
HETATM    2  N2  UNL     1      15.606  18.870  31.814  1.00  0.00    -0.176 N 
ATOM      3  H2  UNL     1      16.039  19.793  31.836  1.00  0.00     0.186 HD
HETATM    4  C5  UNL     1      14.263  18.801  31.709  1.00  0.00     0.685 A 
HETATM    5  N7  UNL     1      13.669  17.594  31.679  1.00  0.00    -0.201 N 
ATOM      6  H7  UNL     1      12.655  17.517  31.601  1.00  0.00     0.183 HD
HETATM    7  C9  UNL     1      14.429  16.499  31.752  1.00  0.00     0.125 A 
HETATM    8  C10 UNL     1      15.814  16.548  31.861  1.00  0.00     0.071 A 
ENDROOT
BRANCH   4   9
HETATM    9  N3  UNL     1      13.440  19.947  31.629  1.00  0.00    -0.168 N 
ATOM     10  H3  UNL     1      12.628  20.042  32.239  1.00  0.00     0.186 HD
BRANCH   9  11
HETATM   11  C6  UNL     1      13.732  20.879  30.768  1.00  0.00     0.180 A 
HETATM   12  N4  UNL     1      13.779  22.196  30.990  1.00  0.00    -0.278 N 
HETATM   13  N5  UNL     1      14.084  22.965  30.027  1.00  0.00    -0.287 N 
ATOM     14  H4  UNL     1      13.575  22.576  31.914  1.00  0.00     0.189 HD
HETATM   15  C7  UNL     1      14.349  22.487  28.828  1.00  0.00     0.158 A 
ATOM     16  H5  UNL     1      14.123  23.973  30.184  1.00  0.00     0.188 HD
HETATM   17  S1  UNL     1      14.143  20.794  29.113  1.00  0.00    -0.028 SA
BRANCH  15  18
HETATM   18  C8  UNL     1      14.717  23.169  27.586  1.00  0.00     0.289 C 
HETATM   19  N6  UNL     1      16.085  23.369  27.317  1.00  0.00    -0.055 NA
HETATM   20  O1  UNL     1      13.860  23.557  26.801  1.00  0.00    -0.269 OA
ENDBRANCH  15  18
ENDBRANCH   9  11
ENDBRANCH   4   9
BRANCH   1  21
HETATM   21  N1  UNL     1      17.663  17.862  31.988  1.00  0.00    -0.371 N 
ATOM     22  H1  UNL     1      18.059  17.487  32.850  1.00  0.00     0.161 HD
BRANCH  21  23
HETATM   23  C2  UNL     1      18.597  18.387  31.064  1.00  0.00     0.075 C 
HETATM   24  C1  UNL     1      18.861  17.536  29.865  1.00  0.00     0.031 C 
HETATM   25  C3  UNL     1      19.894  18.690  31.767  1.00  0.00     0.031 C 
ENDBRANCH  21  23
ENDBRANCH   1  21
BRANCH   8  26
HETATM   26  C11 UNL     1      16.589  15.327  31.937  1.00  0.00     0.152 A 
HETATM   27  N8  UNL     1      16.976  14.723  33.070  1.00  0.00    -0.268 N 
HETATM   28  N9  UNL     1      17.667  13.634  32.753  1.00  0.00    -0.227 N 
ATOM     29  H8  UNL     1      16.774  15.046  34.016  1.00  0.00     0.190 HD
HETATM   30  N10 UNL     1      17.726  13.532  31.444  1.00  0.00    -0.227 N 
ATOM     31  H9  UNL     1      18.083  12.982  33.417  1.00  0.00     0.210 HD
HETATM   32  N11 UNL     1      17.070  14.563  30.953  1.00  0.00    -0.268 N 
ATOM     33  H10 UNL     1      18.191  12.797  30.912  1.00  0.00     0.210 HD
ATOM     34  H11 UNL     1      16.945  14.753  29.959  1.00  0.00     0.190 HD
ENDBRANCH   8  26
TORSDOF 6
ENDMDL
