MODEL 1
REMARK VINA RESULT: -7.903465183      0.000      0.000
REMARK  11 active torsions:
REMARK  status: ('A' for Active; 'I' for Inactive)
REMARK    1  A    between atoms: O1_2  and  C2_3 
REMARK    2  A    between atoms: C5_6  and  C6_7 
REMARK    3  A    between atoms: C6_7  and  C7_8 
REMARK    4  A    between atoms: C7_8  and  C8_9 
REMARK    5  A    between atoms: C8_9  and  O3_11 
REMARK    6  A    between atoms: O3_11  and  C9_12 
REMARK    7  A    between atoms: C10_13  and  O4_14 
REMARK    8  A    between atoms: C11_16  and  O5_17 
REMARK    9  A    between atoms: C12_19  and  O6_20 
REMARK   10  A    between atoms: C13_22  and  O7_23 
REMARK   11  A    between atoms: C14_25  and  O8_26 
ROOT
HETATM    1  C9  UNL     1      17.932  18.162  31.206  1.00  0.00     0.194 C 
HETATM    2  C10 UNL     1      18.817  17.502  30.164  1.00  0.00     0.181 C 
HETATM    3  C11 UNL     1      19.174  16.112  30.512  1.00  0.00     0.180 C 
HETATM    4  C12 UNL     1      19.493  15.862  31.952  1.00  0.00     0.180 C 
HETATM    5  C13 UNL     1      18.573  16.565  32.909  1.00  0.00     0.180 C 
HETATM    6  C14 UNL     1      18.524  18.058  32.588  1.00  0.00     0.181 C 
ENDROOT
BRANCH   1   7
HETATM    7  O3  UNL     1      17.534  19.435  30.844  1.00  0.00    -0.307 OA
BRANCH   7   8
HETATM    8  C8  UNL     1      16.644  20.235  31.542  1.00  0.00     0.283 C 
HETATM    9  O2  UNL     1      17.139  21.245  32.098  1.00  0.00    -0.260 OA
BRANCH   8  10
HETATM   10  C7  UNL     1      15.237  19.978  31.657  1.00  0.00     0.083 C 
BRANCH  10  11
HETATM   11  C6  UNL     1      14.439  20.039  30.614  1.00  0.00     0.025 C 
BRANCH  11  12
HETATM   12  C5  UNL     1      14.718  21.014  29.534  1.00  0.00     0.007 A 
HETATM   13  C4  UNL     1      15.149  20.751  28.269  1.00  0.00     0.022 A 
HETATM   14  C3  UNL     1      15.340  21.792  27.446  1.00  0.00     0.046 A 
HETATM   15  C2  UNL     1      15.083  23.042  27.951  1.00  0.00     0.109 A 
HETATM   16  S1  UNL     1      14.588  22.716  29.549  1.00  0.00    -0.066 SA
BRANCH  15  17
HETATM   17  O1  UNL     1      15.207  24.283  27.290  1.00  0.00    -0.349 OA
HETATM   18  C1  UNL     1      14.901  24.373  25.934  1.00  0.00     0.211 C 
ENDBRANCH  15  17
ENDBRANCH  11  12
ENDBRANCH  10  11
ENDBRANCH   8  10
ENDBRANCH   7   8
ENDBRANCH   1   7
BRANCH   2  19
HETATM   19  O4  UNL     1      18.032  17.457  28.986  1.00  0.00    -0.390 OA
ATOM     20  H4  UNL     1      18.643  17.612  28.275  1.00  0.00     0.210 HD
ENDBRANCH   2  19
BRANCH   6  21
HETATM   21  O8  UNL     1      19.814  18.552  32.664  1.00  0.00    -0.390 OA
ATOM     22  H8  UNL     1      20.471  17.869  32.729  1.00  0.00     0.210 HD
ENDBRANCH   6  21
BRANCH   3  23
HETATM   23  O5  UNL     1      20.280  15.717  29.754  1.00  0.00    -0.390 OA
ATOM     24  H5  UNL     1      20.236  14.781  29.602  1.00  0.00     0.210 HD
ENDBRANCH   3  23
BRANCH   5  25
HETATM   25  O7  UNL     1      19.094  16.356  34.201  1.00  0.00    -0.390 OA
ATOM     26  H7  UNL     1      19.153  17.209  34.614  1.00  0.00     0.210 HD
ENDBRANCH   5  25
BRANCH   4  27
HETATM   27  O6  UNL     1      19.384  14.487  32.183  1.00  0.00    -0.390 OA
ATOM     28  H6  UNL     1      20.261  14.124  32.202  1.00  0.00     0.210 HD
ENDBRANCH   4  27
TORSDOF 11
ENDMDL
MODEL 2
REMARK VINA RESULT: -7.785249763      1.162      2.539
REMARK  11 active torsions:
REMARK  status: ('A' for Active; 'I' for Inactive)
REMARK    1  A    between atoms: O1_2  and  C2_3 
REMARK    2  A    between atoms: C5_6  and  C6_7 
REMARK    3  A    between atoms: C6_7  and  C7_8 
REMARK    4  A    between atoms: C7_8  and  C8_9 
REMARK    5  A    between atoms: C8_9  and  O3_11 
REMARK    6  A    between atoms: O3_11  and  C9_12 
REMARK    7  A    between atoms: C10_13  and  O4_14 
REMARK    8  A    between atoms: C11_16  and  O5_17 
REMARK    9  A    between atoms: C12_19  and  O6_20 
REMARK   10  A    between atoms: C13_22  and  O7_23 
REMARK   11  A    between atoms: C14_25  and  O8_26 
ROOT
HETATM    1  C9  UNL     1      18.586  17.684  32.265  1.00  0.00     0.194 C 
HETATM    2  C10 UNL     1      18.592  16.316  32.922  1.00  0.00     0.181 C 
HETATM    3  C11 UNL     1      19.451  15.345  32.216  1.00  0.00     0.180 C 
HETATM    4  C12 UNL     1      19.403  15.396  30.722  1.00  0.00     0.180 C 
HETATM    5  C13 UNL     1      19.388  16.790  30.163  1.00  0.00     0.180 C 
HETATM    6  C14 UNL     1      18.255  17.598  30.796  1.00  0.00     0.181 C 
ENDROOT
BRANCH   1   7
HETATM    7  O3  UNL     1      17.845  18.615  32.967  1.00  0.00    -0.307 OA
BRANCH   7   8
HETATM    8  C8  UNL     1      17.932  19.991  32.832  1.00  0.00     0.283 C 
HETATM    9  O2  UNL     1      18.691  20.572  33.645  1.00  0.00    -0.260 OA
BRANCH   8  10
HETATM   10  C7  UNL     1      17.227  20.758  31.845  1.00  0.00     0.083 C 
BRANCH  10  11
HETATM   11  C6  UNL     1      16.008  20.440  31.468  1.00  0.00     0.025 C 
BRANCH  11  12
HETATM   12  C5  UNL     1      15.474  20.971  30.192  1.00  0.00     0.007 A 
HETATM   13  C4  UNL     1      15.313  20.301  29.017  1.00  0.00     0.022 A 
HETATM   14  C3  UNL     1      14.808  20.980  27.977  1.00  0.00     0.046 A 
HETATM   15  C2  UNL     1      14.495  22.299  28.185  1.00  0.00     0.109 A 
HETATM   16  S1  UNL     1      14.916  22.541  29.819  1.00  0.00    -0.066 SA
BRANCH  15  17
HETATM   17  O1  UNL     1      13.956  23.217  27.257  1.00  0.00    -0.349 OA
HETATM   18  C1  UNL     1      14.790  23.802  26.307  1.00  0.00     0.211 C 
ENDBRANCH  15  17
ENDBRANCH  11  12
ENDBRANCH  10  11
ENDBRANCH   8  10
ENDBRANCH   7   8
ENDBRANCH   1   7
BRANCH   2  19
HETATM   19  O4  UNL     1      19.151  16.524  34.206  1.00  0.00    -0.390 OA
ATOM     20  H4  UNL     1      19.830  15.865  34.291  1.00  0.00     0.210 HD
ENDBRANCH   2  19
BRANCH   6  21
HETATM   21  O8  UNL     1      17.068  16.934  30.546  1.00  0.00    -0.390 OA
ATOM     22  H8  UNL     1      16.688  17.154  29.704  1.00  0.00     0.210 HD
ENDBRANCH   6  21
BRANCH   3  23
HETATM   23  O5  UNL     1      19.102  14.050  32.611  1.00  0.00    -0.390 OA
ATOM     24  H5  UNL     1      19.377  13.434  31.942  1.00  0.00     0.210 HD
ENDBRANCH   3  23
BRANCH   5  25
HETATM   25  O7  UNL     1      19.187  16.668  28.773  1.00  0.00    -0.390 OA
ATOM     26  H7  UNL     1      18.485  17.266  28.545  1.00  0.00     0.210 HD
ENDBRANCH   5  25
BRANCH   4  27
HETATM   27  O6  UNL     1      20.542  14.750  30.233  1.00  0.00    -0.390 OA
ATOM     28  H6  UNL     1      20.257  14.049  29.659  1.00  0.00     0.210 HD
ENDBRANCH   4  27
TORSDOF 11
ENDMDL
MODEL 3
REMARK VINA RESULT: -7.771255042      1.329      1.728
REMARK  11 active torsions:
REMARK  status: ('A' for Active; 'I' for Inactive)
REMARK    1  A    between atoms: O1_2  and  C2_3 
REMARK    2  A    between atoms: C5_6  and  C6_7 
REMARK    3  A    between atoms: C6_7  and  C7_8 
REMARK    4  A    between atoms: C7_8  and  C8_9 
REMARK    5  A    between atoms: C8_9  and  O3_11 
REMARK    6  A    between atoms: O3_11  and  C9_12 
REMARK    7  A    between atoms: C10_13  and  O4_14 
REMARK    8  A    between atoms: C11_16  and  O5_17 
REMARK    9  A    between atoms: C12_19  and  O6_20 
REMARK   10  A    between atoms: C13_22  and  O7_23 
REMARK   11  A    between atoms: C14_25  and  O8_26 
ROOT
HETATM    1  C9  UNL     1      18.471  17.005  31.510  1.00  0.00     0.194 C 
HETATM    2  C10 UNL     1      19.817  16.349  31.259  1.00  0.00     0.181 C 
HETATM    3  C11 UNL     1      19.876  14.956  31.744  1.00  0.00     0.180 C 
HETATM    4  C12 UNL     1      19.212  14.695  33.059  1.00  0.00     0.180 C 
HETATM    5  C13 UNL     1      17.893  15.394  33.222  1.00  0.00     0.180 C 
HETATM    6  C14 UNL     1      18.055  16.890  32.955  1.00  0.00     0.181 C 
ENDROOT
BRANCH   1   7
HETATM    7  O3  UNL     1      18.389  18.281  30.988  1.00  0.00    -0.307 OA
BRANCH   7   8
HETATM    8  C8  UNL     1      18.375  19.458  31.720  1.00  0.00     0.283 C 
HETATM    9  O2  UNL     1      19.482  19.828  32.178  1.00  0.00    -0.260 OA
BRANCH   8  10
HETATM   10  C7  UNL     1      17.202  20.246  31.970  1.00  0.00     0.083 C 
BRANCH  10  11
HETATM   11  C6  UNL     1      16.022  19.891  31.510  1.00  0.00     0.025 C 
BRANCH  11  12
HETATM   12  C5  UNL     1      15.485  20.542  30.292  1.00  0.00     0.007 A 
HETATM   13  C4  UNL     1      15.299  19.982  29.065  1.00  0.00     0.022 A 
HETATM   14  C3  UNL     1      14.796  20.759  28.095  1.00  0.00     0.046 A 
HETATM   15  C2  UNL     1      14.509  22.060  28.423  1.00  0.00     0.109 A 
HETATM   16  S1  UNL     1      14.952  22.148  30.066  1.00  0.00    -0.066 SA
BRANCH  15  17
HETATM   17  O1  UNL     1      13.978  23.065  27.586  1.00  0.00    -0.349 OA
HETATM   18  C1  UNL     1      14.736  23.542  26.519  1.00  0.00     0.211 C 
ENDBRANCH  15  17
ENDBRANCH  11  12
ENDBRANCH  10  11
ENDBRANCH   8  10
ENDBRANCH   7   8
ENDBRANCH   1   7
BRANCH   2  19
HETATM   19  O4  UNL     1      19.955  16.315  29.850  1.00  0.00    -0.390 OA
ATOM     20  H4  UNL     1      20.221  17.194  29.605  1.00  0.00     0.210 HD
ENDBRANCH   2  19
BRANCH   6  21
HETATM   21  O8  UNL     1      19.005  17.378  33.833  1.00  0.00    -0.390 OA
ATOM     22  H8  UNL     1      19.657  16.732  34.074  1.00  0.00     0.210 HD
ENDBRANCH   6  21
BRANCH   3  23
HETATM   23  O5  UNL     1      21.212  14.563  31.854  1.00  0.00    -0.390 OA
ATOM     24  H5  UNL     1      21.257  13.732  32.312  1.00  0.00     0.210 HD
ENDBRANCH   3  23
BRANCH   5  25
HETATM   25  O7  UNL     1      17.479  15.174  34.551  1.00  0.00    -0.390 OA
ATOM     26  H7  UNL     1      16.825  15.834  34.747  1.00  0.00     0.210 HD
ENDBRANCH   5  25
BRANCH   4  27
HETATM   27  O6  UNL     1      18.984  13.319  33.158  1.00  0.00    -0.390 OA
ATOM     28  H6  UNL     1      18.463  13.055  32.409  1.00  0.00     0.210 HD
ENDBRANCH   4  27
TORSDOF 11
ENDMDL
MODEL 4
REMARK VINA RESULT: -7.749809653      2.917      7.566
REMARK  11 active torsions:
REMARK  status: ('A' for Active; 'I' for Inactive)
REMARK    1  A    between atoms: O1_2  and  C2_3 
REMARK    2  A    between atoms: C5_6  and  C6_7 
REMARK    3  A    between atoms: C6_7  and  C7_8 
REMARK    4  A    between atoms: C7_8  and  C8_9 
REMARK    5  A    between atoms: C8_9  and  O3_11 
REMARK    6  A    between atoms: O3_11  and  C9_12 
REMARK    7  A    between atoms: C10_13  and  O4_14 
REMARK    8  A    between atoms: C11_16  and  O5_17 
REMARK    9  A    between atoms: C12_19  and  O6_20 
REMARK   10  A    between atoms: C13_22  and  O7_23 
REMARK   11  A    between atoms: C14_25  and  O8_26 
ROOT
HETATM    1  C9  UNL     1      15.051  19.841  29.914  1.00  0.00     0.194 C 
HETATM    2  C10 UNL     1      16.056  20.696  30.664  1.00  0.00     0.181 C 
HETATM    3  C11 UNL     1      15.530  22.032  31.006  1.00  0.00     0.180 C 
HETATM    4  C12 UNL     1      14.704  22.698  29.952  1.00  0.00     0.180 C 
HETATM    5  C13 UNL     1      13.747  21.772  29.256  1.00  0.00     0.180 C 
HETATM    6  C14 UNL     1      14.497  20.558  28.708  1.00  0.00     0.181 C 
ENDROOT
BRANCH   1   7
HETATM    7  O3  UNL     1      15.514  18.564  29.661  1.00  0.00    -0.307 OA
BRANCH   7   8
HETATM    8  C8  UNL     1      15.019  17.397  30.218  1.00  0.00     0.283 C 
HETATM    9  O2  UNL     1      14.727  17.455  31.437  1.00  0.00    -0.260 OA
BRANCH   8  10
HETATM   10  C7  UNL     1      14.827  16.169  29.500  1.00  0.00     0.083 C 
BRANCH  10  11
HETATM   11  C6  UNL     1      15.844  15.418  29.137  1.00  0.00     0.025 C 
BRANCH  11  12
HETATM   12  C5  UNL     1      17.098  15.452  29.926  1.00  0.00     0.007 A 
HETATM   13  C4  UNL     1      18.237  16.144  29.645  1.00  0.00     0.022 A 
HETATM   14  C3  UNL     1      19.262  16.032  30.502  1.00  0.00     0.046 A 
HETATM   15  C2  UNL     1      19.075  15.224  31.595  1.00  0.00     0.109 A 
HETATM   16  S1  UNL     1      17.483  14.655  31.385  1.00  0.00    -0.066 SA
BRANCH  15  17
HETATM   17  O1  UNL     1      19.994  14.945  32.631  1.00  0.00    -0.349 OA
HETATM   18  C1  UNL     1      19.573  14.227  33.748  1.00  0.00     0.211 C 
ENDBRANCH  15  17
ENDBRANCH  11  12
ENDBRANCH  10  11
ENDBRANCH   8  10
ENDBRANCH   7   8
ENDBRANCH   1   7
BRANCH   2  19
HETATM   19  O4  UNL     1      16.294  20.008  31.879  1.00  0.00    -0.390 OA
ATOM     20  H4  UNL     1      16.927  19.334  31.663  1.00  0.00     0.210 HD
ENDBRANCH   2  19
BRANCH   6  21
HETATM   21  O8  UNL     1      15.481  21.016  27.851  1.00  0.00    -0.390 OA
ATOM     22  H8  UNL     1      15.963  20.315  27.429  1.00  0.00     0.210 HD
ENDBRANCH   6  21
BRANCH   3  23
HETATM   23  O5  UNL     1      16.596  22.882  31.314  1.00  0.00    -0.390 OA
ATOM     24  H5  UNL     1      16.471  23.237  32.186  1.00  0.00     0.210 HD
ENDBRANCH   3  23
BRANCH   5  25
HETATM   25  O7  UNL     1      13.166  22.507  28.203  1.00  0.00    -0.390 OA
ATOM     26  H7  UNL     1      13.530  22.164  27.396  1.00  0.00     0.210 HD
ENDBRANCH   5  25
BRANCH   4  27
HETATM   27  O6  UNL     1      13.955  23.706  30.567  1.00  0.00    -0.390 OA
ATOM     28  H6  UNL     1      13.117  23.758  30.124  1.00  0.00     0.210 HD
ENDBRANCH   4  27
TORSDOF 11
ENDMDL
MODEL 5
REMARK VINA RESULT: -7.632248933      3.238      6.524
REMARK  11 active torsions:
REMARK  status: ('A' for Active; 'I' for Inactive)
REMARK    1  A    between atoms: O1_2  and  C2_3 
REMARK    2  A    between atoms: C5_6  and  C6_7 
REMARK    3  A    between atoms: C6_7  and  C7_8 
REMARK    4  A    between atoms: C7_8  and  C8_9 
REMARK    5  A    between atoms: C8_9  and  O3_11 
REMARK    6  A    between atoms: O3_11  and  C9_12 
REMARK    7  A    between atoms: C10_13  and  O4_14 
REMARK    8  A    between atoms: C11_16  and  O5_17 
REMARK    9  A    between atoms: C12_19  and  O6_20 
REMARK   10  A    between atoms: C13_22  and  O7_23 
REMARK   11  A    between atoms: C14_25  and  O8_26 
ROOT
HETATM    1  C9  UNL     1      15.786  18.794  31.023  1.00  0.00     0.194 C 
HETATM    2  C10 UNL     1      15.639  20.305  31.023  1.00  0.00     0.181 C 
HETATM    3  C11 UNL     1      16.910  21.004  31.293  1.00  0.00     0.180 C 
HETATM    4  C12 UNL     1      17.781  20.393  32.344  1.00  0.00     0.180 C 
HETATM    5  C13 UNL     1      17.856  18.894  32.274  1.00  0.00     0.180 C 
HETATM    6  C14 UNL     1      16.449  18.297  32.283  1.00  0.00     0.181 C 
ENDROOT
BRANCH   1   7
HETATM    7  O3  UNL     1      14.614  18.139  30.694  1.00  0.00    -0.307 OA
BRANCH   7   8
HETATM    8  C8  UNL     1      14.483  16.781  30.454  1.00  0.00     0.283 C 
HETATM    9  O2  UNL     1      13.921  16.119  31.359  1.00  0.00    -0.260 OA
BRANCH   8  10
HETATM   10  C7  UNL     1      14.940  16.117  29.267  1.00  0.00     0.083 C 
BRANCH  10  11
HETATM   11  C6  UNL     1      15.761  15.092  29.323  1.00  0.00     0.025 C 
BRANCH  11  12
HETATM   12  C5  UNL     1      17.030  15.211  30.079  1.00  0.00     0.007 A 
HETATM   13  C4  UNL     1      18.106  15.990  29.778  1.00  0.00     0.022 A 
HETATM   14  C3  UNL     1      19.160  15.945  30.606  1.00  0.00     0.046 A 
HETATM   15  C2  UNL     1      19.064  15.114  31.693  1.00  0.00     0.109 A 
HETATM   16  S1  UNL     1      17.513  14.429  31.518  1.00  0.00    -0.066 SA
BRANCH  15  17
HETATM   17  O1  UNL     1      20.029  14.894  32.700  1.00  0.00    -0.349 OA
HETATM   18  C1  UNL     1      19.668  14.212  33.860  1.00  0.00     0.211 C 
ENDBRANCH  15  17
ENDBRANCH  11  12
ENDBRANCH  10  11
ENDBRANCH   8  10
ENDBRANCH   7   8
ENDBRANCH   1   7
BRANCH   2  19
HETATM   19  O4  UNL     1      15.241  20.638  29.705  1.00  0.00    -0.390 OA
ATOM     20  H4  UNL     1      15.235  21.587  29.680  1.00  0.00     0.210 HD
ENDBRANCH   2  19
BRANCH   6  21
HETATM   21  O8  UNL     1      15.813  18.724  33.435  1.00  0.00    -0.390 OA
ATOM     22  H8  UNL     1      15.231  18.070  33.803  1.00  0.00     0.210 HD
ENDBRANCH   6  21
BRANCH   3  23
HETATM   23  O5  UNL     1      16.639  22.321  31.675  1.00  0.00    -0.390 OA
ATOM     24  H5  UNL     1      15.864  22.626  31.218  1.00  0.00     0.210 HD
ENDBRANCH   3  23
BRANCH   5  25
HETATM   25  O7  UNL     1      18.577  18.471  33.408  1.00  0.00    -0.390 OA
ATOM     26  H7  UNL     1      18.306  19.026  34.129  1.00  0.00     0.210 HD
ENDBRANCH   5  25
BRANCH   4  27
HETATM   27  O6  UNL     1      19.075  20.896  32.176  1.00  0.00    -0.390 OA
ATOM     28  H6  UNL     1      19.640  20.172  31.935  1.00  0.00     0.210 HD
ENDBRANCH   4  27
TORSDOF 11
ENDMDL
