MODEL 1
REMARK VINA RESULT: -5.560086863      0.000      0.000
REMARK  2 active torsions:
REMARK  status: ('A' for Active; 'I' for Inactive)
REMARK       I    between atoms: C1_4  and  N3_6 
REMARK    1  A    between atoms: N3_6  and  N4_8 
REMARK       I    between atoms: N4_8  and  C2_10 
REMARK    2  A    between atoms: C2_10  and  C3_12 
ROOT
HETATM    1  N4  UNL     1       8.167  36.587  12.598  1.00  0.00    -0.261 N 
ATOM      2  H4  UNL     1       7.685  36.603  13.497  1.00  0.00     0.190 HD
HETATM    3  C2  UNL     1       7.411  36.532  11.420  1.00  0.00     0.306 C 
HETATM    4  O1  UNL     1       8.004  36.517  10.282  1.00  0.00    -0.262 OA
ENDROOT
BRANCH   3   5
HETATM    5  C3  UNL     1       5.954  36.493  11.394  1.00  0.00     0.208 A 
HETATM    6  N5  UNL     1       5.162  36.023  10.403  1.00  0.00    -0.264 N 
HETATM    7  N6  UNL     1       3.892  36.151  10.775  1.00  0.00    -0.226 N 
ATOM      8  H5  UNL     1       5.486  35.635   9.517  1.00  0.00     0.190 HD
HETATM    9  N7  UNL     1       3.856  36.690  11.975  1.00  0.00    -0.226 N 
ATOM     10  H6  UNL     1       3.080  35.878  10.223  1.00  0.00     0.210 HD
HETATM   11  N8  UNL     1       5.102  36.901  12.360  1.00  0.00    -0.264 N 
ATOM     12  H7  UNL     1       3.016  36.905  12.512  1.00  0.00     0.210 HD
ATOM     13  H8  UNL     1       5.379  37.312  13.251  1.00  0.00     0.190 HD
ENDBRANCH   3   5
BRANCH   1  14
HETATM   14  N3  UNL     1       9.550  36.621  12.576  1.00  0.00    -0.271 N 
HETATM   15  C1  UNL     1      10.317  37.811  12.588  1.00  0.00     0.200 C 
HETATM   16  N1  UNL     1      10.540  38.469  11.498  1.00  0.00    -0.372 N 
HETATM   17  N2  UNL     1      10.884  38.340  13.781  1.00  0.00    -0.062 NA
ATOM     18  H12 UNL     1      11.094  39.325  11.507  1.00  0.00     0.158 HD
ATOM     19  H11 UNL     1      10.134  38.089  10.643  1.00  0.00     0.158 HD
ATOM     20  H3  UNL     1      10.049  35.732  12.549  1.00  0.00     0.189 HD
ENDBRANCH   1  14
TORSDOF 2
ENDMDL
MODEL 2
REMARK VINA RESULT: -5.453369360      1.108      1.315
REMARK  2 active torsions:
REMARK  status: ('A' for Active; 'I' for Inactive)
REMARK       I    between atoms: C1_4  and  N3_6 
REMARK    1  A    between atoms: N3_6  and  N4_8 
REMARK       I    between atoms: N4_8  and  C2_10 
REMARK    2  A    between atoms: C2_10  and  C3_12 
ROOT
HETATM    1  N4  UNL     1       8.519  36.710  12.304  1.00  0.00    -0.261 N 
ATOM      2  H4  UNL     1       7.813  36.463  12.998  1.00  0.00     0.190 HD
HETATM    3  C2  UNL     1       8.133  36.869  10.967  1.00  0.00     0.306 C 
HETATM    4  O1  UNL     1       9.009  37.184  10.084  1.00  0.00    -0.262 OA
ENDROOT
BRANCH   3   5
HETATM    5  C3  UNL     1       6.765  36.701  10.494  1.00  0.00     0.208 A 
HETATM    6  N5  UNL     1       6.146  37.392   9.508  1.00  0.00    -0.264 N 
HETATM    7  N6  UNL     1       4.908  36.923   9.373  1.00  0.00    -0.226 N 
ATOM      8  H5  UNL     1       6.559  38.145   8.960  1.00  0.00     0.190 HD
HETATM    9  N7  UNL     1       4.725  35.957  10.246  1.00  0.00    -0.226 N 
ATOM     10  H6  UNL     1       4.216  37.259   8.704  1.00  0.00     0.210 HD
HETATM   11  N8  UNL     1       5.845  35.814  10.932  1.00  0.00    -0.264 N 
ATOM     12  H7  UNL     1       3.870  35.414  10.370  1.00  0.00     0.210 HD
ATOM     13  H8  UNL     1       5.993  35.136  11.679  1.00  0.00     0.190 HD
ENDBRANCH   3   5
BRANCH   1  14
HETATM   14  N3  UNL     1       9.831  36.877  12.709  1.00  0.00    -0.271 N 
HETATM   15  C1  UNL     1      10.435  38.135  12.951  1.00  0.00     0.200 C 
HETATM   16  N1  UNL     1      10.916  38.838  11.980  1.00  0.00    -0.372 N 
HETATM   17  N2  UNL     1      10.552  38.686  14.258  1.00  0.00    -0.062 NA
ATOM     18  H12 UNL     1      11.352  39.744  12.153  1.00  0.00     0.158 HD
ATOM     19  H11 UNL     1      10.832  38.443  11.043  1.00  0.00     0.158 HD
ATOM     20  H3  UNL     1      10.400  36.041  12.843  1.00  0.00     0.189 HD
ENDBRANCH   1  14
TORSDOF 2
ENDMDL
MODEL 3
REMARK VINA RESULT: -5.437395688      1.112      1.434
REMARK  2 active torsions:
REMARK  status: ('A' for Active; 'I' for Inactive)
REMARK       I    between atoms: C1_4  and  N3_6 
REMARK    1  A    between atoms: N3_6  and  N4_8 
REMARK       I    between atoms: N4_8  and  C2_10 
REMARK    2  A    between atoms: C2_10  and  C3_12 
ROOT
HETATM    1  N4  UNL     1       8.521  36.701  12.276  1.00  0.00    -0.261 N 
ATOM      2  H4  UNL     1       7.818  36.447  12.970  1.00  0.00     0.190 HD
HETATM    3  C2  UNL     1       8.133  36.861  10.940  1.00  0.00     0.306 C 
HETATM    4  O1  UNL     1       9.005  37.186  10.057  1.00  0.00    -0.262 OA
ENDROOT
BRANCH   3   5
HETATM    5  C3  UNL     1       6.765  36.685  10.468  1.00  0.00     0.208 A 
HETATM    6  N5  UNL     1       5.848  35.797  10.918  1.00  0.00    -0.264 N 
HETATM    7  N6  UNL     1       4.719  35.969  10.237  1.00  0.00    -0.226 N 
ATOM      8  H5  UNL     1       5.999  35.110  11.655  1.00  0.00     0.190 HD
HETATM    9  N7  UNL     1       4.893  36.941   9.369  1.00  0.00    -0.226 N 
ATOM     10  H6  UNL     1       3.859  35.436  10.368  1.00  0.00     0.210 HD
HETATM   11  N8  UNL     1       6.132  37.382   9.499  1.00  0.00    -0.264 N 
ATOM     12  H7  UNL     1       4.196  37.292   8.711  1.00  0.00     0.210 HD
ATOM     13  H8  UNL     1       6.547  38.136   8.952  1.00  0.00     0.190 HD
ENDBRANCH   3   5
BRANCH   1  14
HETATM   14  N3  UNL     1       9.832  36.876  12.680  1.00  0.00    -0.271 N 
HETATM   15  C1  UNL     1      10.426  38.137  12.929  1.00  0.00     0.200 C 
HETATM   16  N1  UNL     1      10.899  38.852  11.962  1.00  0.00    -0.372 N 
HETATM   17  N2  UNL     1      10.541  38.680  14.240  1.00  0.00    -0.062 NA
ATOM     18  H12 UNL     1      11.328  39.760  12.142  1.00  0.00     0.158 HD
ATOM     19  H11 UNL     1      10.817  38.463  11.023  1.00  0.00     0.158 HD
ATOM     20  H3  UNL     1      10.409  36.044  12.806  1.00  0.00     0.189 HD
ENDBRANCH   1  14
TORSDOF 2
ENDMDL
MODEL 4
REMARK VINA RESULT: -5.210514231      2.746      5.930
REMARK  2 active torsions:
REMARK  status: ('A' for Active; 'I' for Inactive)
REMARK       I    between atoms: C1_4  and  N3_6 
REMARK    1  A    between atoms: N3_6  and  N4_8 
REMARK       I    between atoms: N4_8  and  C2_10 
REMARK    2  A    between atoms: C2_10  and  C3_12 
ROOT
HETATM    1  N4  UNL     1       3.772  36.194  10.771  1.00  0.00    -0.261 N 
ATOM      2  H4  UNL     1       3.925  35.422  10.123  1.00  0.00     0.190 HD
HETATM    3  C2  UNL     1       4.872  36.942  11.212  1.00  0.00     0.306 C 
HETATM    4  O1  UNL     1       4.695  37.919  12.023  1.00  0.00    -0.262 OA
ENDROOT
BRANCH   3   5
HETATM    5  C3  UNL     1       6.245  36.683  10.797  1.00  0.00     0.208 A 
HETATM    6  N5  UNL     1       7.161  35.908  11.424  1.00  0.00    -0.264 N 
HETATM    7  N6  UNL     1       8.286  35.920  10.715  1.00  0.00    -0.226 N 
ATOM      8  H5  UNL     1       7.012  35.400  12.295  1.00  0.00     0.190 HD
HETATM    9  N7  UNL     1       8.110  36.681   9.656  1.00  0.00    -0.226 N 
ATOM     10  H6  UNL     1       9.143  35.422  10.952  1.00  0.00     0.210 HD
HETATM   11  N8  UNL     1       6.875  37.149   9.697  1.00  0.00    -0.264 N 
ATOM     12  H7  UNL     1       8.803  36.874   8.934  1.00  0.00     0.210 HD
ATOM     13  H8  UNL     1       6.460  37.770   9.001  1.00  0.00     0.190 HD
ENDBRANCH   3   5
BRANCH   1  14
HETATM   14  N3  UNL     1       2.485  36.475  11.192  1.00  0.00    -0.271 N 
HETATM   15  C1  UNL     1       1.814  35.774  12.224  1.00  0.00     0.200 C 
HETATM   16  N1  UNL     1       1.217  34.653  11.986  1.00  0.00    -0.372 N 
HETATM   17  N2  UNL     1       1.754  36.259  13.561  1.00  0.00    -0.062 NA
ATOM     18  H12 UNL     1       0.733  34.149  12.729  1.00  0.00     0.158 HD
ATOM     19  H11 UNL     1       1.259  34.306  11.028  1.00  0.00     0.158 HD
ATOM     20  H3  UNL     1       1.986  37.235  10.730  1.00  0.00     0.189 HD
ENDBRANCH   1  14
TORSDOF 2
ENDMDL
MODEL 5
REMARK VINA RESULT: -5.056044733      1.532      1.872
REMARK  2 active torsions:
REMARK  status: ('A' for Active; 'I' for Inactive)
REMARK       I    between atoms: C1_4  and  N3_6 
REMARK    1  A    between atoms: N3_6  and  N4_8 
REMARK       I    between atoms: N4_8  and  C2_10 
REMARK    2  A    between atoms: C2_10  and  C3_12 
ROOT
HETATM    1  N4  UNL     1       8.178  36.490  11.525  1.00  0.00    -0.261 N 
ATOM      2  H4  UNL     1       8.517  36.063  10.662  1.00  0.00     0.190 HD
HETATM    3  C2  UNL     1       6.869  36.985  11.572  1.00  0.00     0.306 C 
HETATM    4  O1  UNL     1       6.428  37.519  12.652  1.00  0.00    -0.262 OA
ENDROOT
BRANCH   3   5
HETATM    5  C3  UNL     1       5.942  36.932  10.449  1.00  0.00     0.208 A 
HETATM    6  N5  UNL     1       4.939  36.045  10.252  1.00  0.00    -0.264 N 
HETATM    7  N6  UNL     1       4.318  36.349   9.116  1.00  0.00    -0.226 N 
ATOM      8  H5  UNL     1       4.700  35.271  10.872  1.00  0.00     0.190 HD
HETATM    9  N7  UNL     1       4.899  37.404   8.587  1.00  0.00    -0.226 N 
ATOM     10  H6  UNL     1       3.523  35.848   8.721  1.00  0.00     0.210 HD
HETATM   11  N8  UNL     1       5.886  37.765   9.387  1.00  0.00    -0.264 N 
ATOM     12  H7  UNL     1       4.634  37.861   7.714  1.00  0.00     0.210 HD
ATOM     13  H8  UNL     1       6.512  38.555   9.227  1.00  0.00     0.190 HD
ENDBRANCH   3   5
BRANCH   1  14
HETATM   14  N3  UNL     1       9.025  36.563  12.616  1.00  0.00    -0.271 N 
HETATM   15  C1  UNL     1       9.909  37.640  12.867  1.00  0.00     0.200 C 
HETATM   16  N1  UNL     1      11.065  37.699  12.292  1.00  0.00    -0.372 N 
HETATM   17  N2  UNL     1       9.584  38.700  13.759  1.00  0.00    -0.062 NA
ATOM     18  H12 UNL     1      11.702  38.475  12.473  1.00  0.00     0.158 HD
ATOM     19  H11 UNL     1      11.297  36.940  11.653  1.00  0.00     0.158 HD
ATOM     20  H3  UNL     1       9.012  35.790  13.282  1.00  0.00     0.189 HD
ENDBRANCH   1  14
TORSDOF 2
ENDMDL
