MODEL 1
REMARK VINA RESULT: -4.809792027      0.000      0.000
REMARK  3 active torsions:
REMARK  status: ('A' for Active; 'I' for Inactive)
REMARK    1  A    between atoms: C6_10  and  N3_11 
REMARK    2  A    between atoms: N3_11  and  N4_13 
REMARK    3  A    between atoms: N5_16  and  N6_17 
ROOT
HETATM    1  C1  UNL     1       9.044  37.244  12.332  1.00  0.00     0.051 C 
HETATM    2  C2  UNL     1       8.125  37.474  11.431  1.00  0.00     0.116 A 
HETATM    3  C3  UNL     1       8.244  38.618  10.519  1.00  0.00     0.274 A 
HETATM    4  O1  UNL     1       9.229  39.404  10.581  1.00  0.00    -0.266 OA
HETATM    5  N1  UNL     1       7.188  38.778   9.576  1.00  0.00    -0.310 N 
ATOM      6  H1  UNL     1       7.235  39.562   8.925  1.00  0.00     0.170 HD
HETATM    7  C4  UNL     1       6.079  37.906   9.495  1.00  0.00     0.164 A 
HETATM    8  C5  UNL     1       5.014  38.086   8.527  1.00  0.00     0.122 C 
HETATM    9  N2  UNL     1       4.173  38.223   7.738  1.00  0.00    -0.190 NA
HETATM   10  C6  UNL     1       5.989  36.879  10.325  1.00  0.00     0.179 A 
HETATM   11  N5  UNL     1       6.997  36.617  11.323  1.00  0.00    -0.238 N 
ENDROOT
BRANCH  10  12
HETATM   12  N3  UNL     1       4.868  36.002  10.241  1.00  0.00    -0.288 N 
ATOM     13  H3  UNL     1       4.898  35.218   9.590  1.00  0.00     0.188 HD
BRANCH  12  14
HETATM   14  N4  UNL     1       3.725  36.191  11.029  1.00  0.00    -0.343 N 
ATOM     15  H42 UNL     1       3.805  36.781  11.858  1.00  0.00     0.176 HD
ATOM     16  H41 UNL     1       2.833  35.757  10.791  1.00  0.00     0.176 HD
ENDBRANCH  12  14
ENDBRANCH  10  12
BRANCH  11  17
HETATM   17  N6  UNL     1       6.896  35.545  12.184  1.00  0.00    -0.336 N 
ATOM     18  H62 UNL     1       7.693  34.940  12.377  1.00  0.00     0.177 HD
ATOM     19  H61 UNL     1       5.998  35.361  12.633  1.00  0.00     0.177 HD
ENDBRANCH  11  17
TORSDOF 3
ENDMDL
MODEL 2
REMARK VINA RESULT: -4.615144876      1.937      2.685
REMARK  3 active torsions:
REMARK  status: ('A' for Active; 'I' for Inactive)
REMARK    1  A    between atoms: C6_10  and  N3_11 
REMARK    2  A    between atoms: N3_11  and  N4_13 
REMARK    3  A    between atoms: N5_16  and  N6_17 
ROOT
HETATM    1  C1  UNL     1       9.684  37.857  11.297  1.00  0.00     0.051 C 
HETATM    2  C2  UNL     1       8.425  37.765  11.636  1.00  0.00     0.116 A 
HETATM    3  C3  UNL     1       7.880  38.597  12.716  1.00  0.00     0.274 A 
HETATM    4  O1  UNL     1       8.608  39.417  13.339  1.00  0.00    -0.266 OA
HETATM    5  N1  UNL     1       6.497  38.419  13.005  1.00  0.00    -0.310 N 
ATOM      6  H1  UNL     1       6.081  38.979  13.749  1.00  0.00     0.170 HD
HETATM    7  C4  UNL     1       5.669  37.504  12.314  1.00  0.00     0.164 A 
HETATM    8  C5  UNL     1       4.262  37.338  12.624  1.00  0.00     0.122 C 
HETATM    9  N2  UNL     1       3.132  37.220  12.863  1.00  0.00    -0.190 NA
HETATM   10  C6  UNL     1       6.177  36.762  11.343  1.00  0.00     0.179 A 
HETATM   11  N5  UNL     1       7.566  36.856  10.961  1.00  0.00    -0.238 N 
ENDROOT
BRANCH  10  12
HETATM   12  N3  UNL     1       5.339  35.841  10.649  1.00  0.00    -0.288 N 
ATOM     13  H3  UNL     1       5.266  34.883  10.988  1.00  0.00     0.188 HD
BRANCH  12  14
HETATM   14  N4  UNL     1       4.614  36.220   9.512  1.00  0.00    -0.343 N 
ATOM     15  H42 UNL     1       3.610  36.038   9.499  1.00  0.00     0.176 HD
ATOM     16  H41 UNL     1       5.066  36.666   8.714  1.00  0.00     0.176 HD
ENDBRANCH  12  14
ENDBRANCH  10  12
BRANCH  11  17
HETATM   17  N6  UNL     1       8.087  36.079   9.949  1.00  0.00    -0.336 N 
ATOM     18  H62 UNL     1       7.835  36.236   8.974  1.00  0.00     0.177 HD
ATOM     19  H61 UNL     1       8.740  35.334  10.191  1.00  0.00     0.177 HD
ENDBRANCH  11  17
TORSDOF 3
ENDMDL
MODEL 3
REMARK VINA RESULT: -4.544177854      1.395      1.544
REMARK  3 active torsions:
REMARK  status: ('A' for Active; 'I' for Inactive)
REMARK    1  A    between atoms: C6_10  and  N3_11 
REMARK    2  A    between atoms: N3_11  and  N4_13 
REMARK    3  A    between atoms: N5_16  and  N6_17 
ROOT
HETATM    1  C1  UNL     1       8.624  36.957  10.809  1.00  0.00     0.051 C 
HETATM    2  C2  UNL     1       7.427  37.141  10.317  1.00  0.00     0.116 A 
HETATM    3  C3  UNL     1       7.232  37.964   9.117  1.00  0.00     0.274 A 
HETATM    4  O1  UNL     1       8.207  38.510   8.533  1.00  0.00    -0.266 OA
HETATM    5  N1  UNL     1       5.888  38.101   8.664  1.00  0.00    -0.310 N 
ATOM      6  H1  UNL     1       5.712  38.665   7.833  1.00  0.00     0.170 HD
HETATM    7  C4  UNL     1       4.785  37.495   9.308  1.00  0.00     0.164 A 
HETATM    8  C5  UNL     1       3.424  37.647   8.831  1.00  0.00     0.122 C 
HETATM    9  N2  UNL     1       2.338  37.756   8.436  1.00  0.00    -0.190 NA
HETATM   10  C6  UNL     1       4.980  36.757  10.389  1.00  0.00     0.179 A 
HETATM   11  N5  UNL     1       6.296  36.547  10.940  1.00  0.00    -0.238 N 
ENDROOT
BRANCH  10  12
HETATM   12  N3  UNL     1       3.864  36.148  11.036  1.00  0.00    -0.288 N 
ATOM     13  H3  UNL     1       3.488  35.276  10.663  1.00  0.00     0.188 HD
BRANCH  12  14
HETATM   14  N4  UNL     1       3.271  36.717  12.170  1.00  0.00    -0.343 N 
ATOM     15  H42 UNL     1       3.611  37.626  12.486  1.00  0.00     0.176 HD
ATOM     16  H41 UNL     1       2.520  36.246  12.675  1.00  0.00     0.176 HD
ENDBRANCH  12  14
ENDBRANCH  10  12
BRANCH  11  17
HETATM   17  N6  UNL     1       6.490  35.776  12.066  1.00  0.00    -0.336 N 
ATOM     18  H62 UNL     1       6.349  36.156  13.002  1.00  0.00     0.177 HD
ATOM     19  H61 UNL     1       6.781  34.805  11.951  1.00  0.00     0.177 HD
ENDBRANCH  11  17
TORSDOF 3
ENDMDL
MODEL 4
REMARK VINA RESULT: -4.535329518      2.596      4.407
REMARK  3 active torsions:
REMARK  status: ('A' for Active; 'I' for Inactive)
REMARK    1  A    between atoms: C6_10  and  N3_11 
REMARK    2  A    between atoms: N3_11  and  N4_13 
REMARK    3  A    between atoms: N5_16  and  N6_17 
ROOT
HETATM    1  C1  UNL     1       3.361  37.552  11.705  1.00  0.00     0.051 C 
HETATM    2  C2  UNL     1       4.645  37.594  11.944  1.00  0.00     0.116 A 
HETATM    3  C3  UNL     1       5.190  38.534  12.932  1.00  0.00     0.274 A 
HETATM    4  O1  UNL     1       4.437  39.318  13.571  1.00  0.00    -0.266 OA
HETATM    5  N1  UNL     1       6.602  38.499  13.116  1.00  0.00    -0.310 N 
ATOM      6  H1  UNL     1       7.018  39.137  13.794  1.00  0.00     0.170 HD
HETATM    7  C4  UNL     1       7.457  37.625  12.407  1.00  0.00     0.164 A 
HETATM    8  C5  UNL     1       8.894  37.606  12.609  1.00  0.00     0.122 C 
HETATM    9  N2  UNL     1      10.040  37.580  12.787  1.00  0.00    -0.190 NA
HETATM   10  C6  UNL     1       6.949  36.784  11.520  1.00  0.00     0.179 A 
HETATM   11  N5  UNL     1       5.533  36.730  11.248  1.00  0.00    -0.238 N 
ENDROOT
BRANCH  10  12
HETATM   12  N3  UNL     1       7.816  35.905  10.806  1.00  0.00    -0.288 N 
ATOM     13  H3  UNL     1       8.015  34.983  11.192  1.00  0.00     0.188 HD
BRANCH  12  14
HETATM   14  N4  UNL     1       8.400  36.278   9.589  1.00  0.00    -0.343 N 
ATOM     15  H42 UNL     1       7.795  36.373   8.773  1.00  0.00     0.176 HD
ATOM     16  H41 UNL     1       9.402  36.451   9.508  1.00  0.00     0.176 HD
ENDBRANCH  12  14
ENDBRANCH  10  12
BRANCH  11  17
HETATM   17  N6  UNL     1       5.012  35.851  10.323  1.00  0.00    -0.336 N 
ATOM     18  H62 UNL     1       4.777  34.891  10.574  1.00  0.00     0.177 HD
ATOM     19  H61 UNL     1       4.860  36.178   9.369  1.00  0.00     0.177 HD
ENDBRANCH  11  17
TORSDOF 3
ENDMDL
MODEL 5
REMARK VINA RESULT: -4.373112499      1.452      2.058
REMARK  3 active torsions:
REMARK  status: ('A' for Active; 'I' for Inactive)
REMARK    1  A    between atoms: C6_10  and  N3_11 
REMARK    2  A    between atoms: N3_11  and  N4_13 
REMARK    3  A    between atoms: N5_16  and  N6_17 
ROOT
HETATM    1  C1  UNL     1       6.893  36.099  12.005  1.00  0.00     0.051 C 
HETATM    2  C2  UNL     1       6.675  36.829  10.943  1.00  0.00     0.116 A 
HETATM    3  C3  UNL     1       7.748  37.650  10.369  1.00  0.00     0.274 A 
HETATM    4  O1  UNL     1       8.900  37.672  10.882  1.00  0.00    -0.266 OA
HETATM    5  N1  UNL     1       7.405  38.407   9.212  1.00  0.00    -0.310 N 
ATOM      6  H1  UNL     1       8.124  38.990   8.784  1.00  0.00     0.170 HD
HETATM    7  C4  UNL     1       6.119  38.392   8.626  1.00  0.00     0.164 A 
HETATM    8  C5  UNL     1       5.790  39.171   7.447  1.00  0.00     0.122 C 
HETATM    9  N2  UNL     1       5.535  39.781   6.493  1.00  0.00    -0.190 NA
HETATM   10  C6  UNL     1       5.164  37.646   9.157  1.00  0.00     0.179 A 
HETATM   11  N5  UNL     1       5.394  36.837  10.329  1.00  0.00    -0.238 N 
ENDROOT
BRANCH  10  12
HETATM   12  N3  UNL     1       3.867  37.634   8.563  1.00  0.00    -0.288 N 
ATOM     13  H3  UNL     1       3.244  38.426   8.715  1.00  0.00     0.188 HD
BRANCH  12  14
HETATM   14  N4  UNL     1       3.430  36.561   7.776  1.00  0.00    -0.343 N 
ATOM     15  H42 UNL     1       3.831  36.453   6.844  1.00  0.00     0.176 HD
ATOM     16  H41 UNL     1       2.730  35.900   8.114  1.00  0.00     0.176 HD
ENDBRANCH  12  14
ENDBRANCH  10  12
BRANCH  11  17
HETATM   17  N6  UNL     1       4.394  36.062  10.876  1.00  0.00    -0.336 N 
ATOM     18  H62 UNL     1       4.389  35.048  10.773  1.00  0.00     0.177 HD
ATOM     19  H61 UNL     1       3.645  36.523  11.394  1.00  0.00     0.177 HD
ENDBRANCH  11  17
TORSDOF 3
ENDMDL
