MODEL 1
REMARK VINA RESULT: -5.248102817      0.000      0.000
REMARK  3 active torsions:
REMARK  status: ('A' for Active; 'I' for Inactive)
REMARK    1  A    between atoms: N1_2  and  N2_3 
REMARK       I    between atoms: N1_2  and  C2_6 
REMARK       I    between atoms: C2_6  and  N3_8 
REMARK       I    between atoms: N3_8  and  C3_9 
REMARK       I    between atoms: C3_9  and  N5_13 
REMARK    2  A    between atoms: N5_13  and  N6_15 
REMARK    3  A    between atoms: N7_17  and  N8_19 
ROOT
HETATM    1  C1  UNL     1      11.645  39.215   9.862  1.00  0.00     0.183 C 
HETATM    2  N1  UNL     1      11.247  38.937   8.503  1.00  0.00    -0.242 N 
HETATM    3  C2  UNL     1      10.126  38.052   8.220  1.00  0.00     0.416 C 
HETATM    4  O1  UNL     1       9.955  37.927   6.947  1.00  0.00    -0.228 OA
HETATM    5  N3  UNL     1       9.433  37.489   9.219  1.00  0.00    -0.314 NA
HETATM    6  C3  UNL     1       8.722  36.914  10.239  1.00  0.00     0.273 C 
HETATM    7  N4  UNL     1       8.979  37.121  11.512  1.00  0.00    -0.358 N 
ATOM      8  H41 UNL     1       8.450  36.692  12.271  1.00  0.00     0.160 HD
ATOM      9  H42 UNL     1       9.768  37.761  11.592  1.00  0.00     0.160 HD
HETATM   10  N5  UNL     1       7.600  36.003  10.126  1.00  0.00    -0.244 N 
ATOM     11  H5  UNL     1       7.753  35.016   9.919  1.00  0.00     0.192 HD
ENDROOT
BRANCH  10  12
HETATM   12  N6  UNL     1       6.307  36.497  10.304  1.00  0.00    -0.225 N 
HETATM   13  N7  UNL     1       5.293  35.803  10.479  1.00  0.00    -0.235 N 
ATOM     14  H7  UNL     1       5.360  34.785  10.503  1.00  0.00     0.209 HD
ATOM     15  H6  UNL     1       6.186  37.509  10.288  1.00  0.00     0.210 HD
BRANCH  13  16
HETATM   16  N8  UNL     1       4.069  36.429  10.643  1.00  0.00    -0.330 N 
ATOM     17  H82 UNL     1       3.349  36.318   9.930  1.00  0.00     0.178 HD
ATOM     18  H81 UNL     1       3.909  36.995  11.477  1.00  0.00     0.178 HD
ENDBRANCH  13  16
ENDBRANCH  10  12
BRANCH   2  19
HETATM   19  N2  UNL     1      11.969  39.534   7.493  1.00  0.00    -0.339 N 
ATOM     20  H22 UNL     1      12.360  40.470   7.596  1.00  0.00     0.177 HD
ATOM     21  H21 UNL     1      12.097  39.006   6.630  1.00  0.00     0.177 HD
ENDBRANCH   2  19
TORSDOF 3
ENDMDL
MODEL 2
REMARK VINA RESULT: -5.187805333      1.803      2.562
REMARK  3 active torsions:
REMARK  status: ('A' for Active; 'I' for Inactive)
REMARK    1  A    between atoms: N1_2  and  N2_3 
REMARK       I    between atoms: N1_2  and  C2_6 
REMARK       I    between atoms: C2_6  and  N3_8 
REMARK       I    between atoms: N3_8  and  C3_9 
REMARK       I    between atoms: C3_9  and  N5_13 
REMARK    2  A    between atoms: N5_13  and  N6_15 
REMARK    3  A    between atoms: N7_17  and  N8_19 
ROOT
HETATM    1  C1  UNL     1       9.803  37.554  11.816  1.00  0.00     0.183 C 
HETATM    2  N1  UNL     1       9.599  38.038  10.472  1.00  0.00    -0.242 N 
HETATM    3  C2  UNL     1       8.379  37.725   9.743  1.00  0.00     0.416 C 
HETATM    4  O1  UNL     1       8.410  38.237   8.559  1.00  0.00    -0.228 OA
HETATM    5  N3  UNL     1       7.413  36.992  10.313  1.00  0.00    -0.314 NA
HETATM    6  C3  UNL     1       6.425  36.242  10.896  1.00  0.00     0.273 C 
HETATM    7  N4  UNL     1       6.493  35.775  12.122  1.00  0.00    -0.358 N 
ATOM      8  H41 UNL     1       5.757  35.217  12.556  1.00  0.00     0.160 HD
ATOM      9  H42 UNL     1       7.377  36.064  12.540  1.00  0.00     0.160 HD
HETATM   10  N5  UNL     1       5.167  35.831  10.303  1.00  0.00    -0.244 N 
ATOM     11  H5  UNL     1       5.133  35.043   9.656  1.00  0.00     0.192 HD
ENDROOT
BRANCH  10  12
HETATM   12  N6  UNL     1       4.005  36.530  10.630  1.00  0.00    -0.225 N 
HETATM   13  N7  UNL     1       3.102  36.112  11.373  1.00  0.00    -0.235 N 
ATOM     14  H7  UNL     1       3.171  35.188  11.802  1.00  0.00     0.209 HD
ATOM     15  H6  UNL     1       3.886  37.459  10.226  1.00  0.00     0.210 HD
BRANCH  13  16
HETATM   16  N8  UNL     1       2.001  36.916  11.612  1.00  0.00    -0.330 N 
ATOM     17  H82 UNL     1       1.065  36.552  11.434  1.00  0.00     0.178 HD
ATOM     18  H81 UNL     1       2.145  37.862  11.963  1.00  0.00     0.178 HD
ENDBRANCH  13  16
ENDBRANCH  10  12
BRANCH   2  19
HETATM   19  N2  UNL     1      10.601  38.798   9.909  1.00  0.00    -0.339 N 
ATOM     20  H22 UNL     1      11.438  39.051  10.434  1.00  0.00     0.177 HD
ATOM     21  H21 UNL     1      10.475  39.105   8.945  1.00  0.00     0.177 HD
ENDBRANCH   2  19
TORSDOF 3
ENDMDL
MODEL 3
REMARK VINA RESULT: -5.125055564      2.208      3.125
REMARK  3 active torsions:
REMARK  status: ('A' for Active; 'I' for Inactive)
REMARK    1  A    between atoms: N1_2  and  N2_3 
REMARK       I    between atoms: N1_2  and  C2_6 
REMARK       I    between atoms: C2_6  and  N3_8 
REMARK       I    between atoms: N3_8  and  C3_9 
REMARK       I    between atoms: C3_9  and  N5_13 
REMARK    2  A    between atoms: N5_13  and  N6_15 
REMARK    3  A    between atoms: N7_17  and  N8_19 
ROOT
HETATM    1  C1  UNL     1       8.890  38.051  12.598  1.00  0.00     0.183 C 
HETATM    2  N1  UNL     1       9.349  37.852  11.245  1.00  0.00    -0.242 N 
HETATM    3  C2  UNL     1       8.492  37.221  10.251  1.00  0.00     0.416 C 
HETATM    4  O1  UNL     1       9.102  37.125   9.118  1.00  0.00    -0.228 OA
HETATM    5  N3  UNL     1       7.252  36.827  10.572  1.00  0.00    -0.314 NA
HETATM    6  C3  UNL     1       5.985  36.424  10.899  1.00  0.00     0.273 C 
HETATM    7  N4  UNL     1       5.455  36.582  12.091  1.00  0.00    -0.358 N 
ATOM      8  H41 UNL     1       4.511  36.282  12.334  1.00  0.00     0.160 HD
ATOM      9  H42 UNL     1       6.134  37.042  12.698  1.00  0.00     0.160 HD
HETATM   10  N5  UNL     1       5.019  35.770  10.037  1.00  0.00    -0.244 N 
ATOM     11  H5  UNL     1       5.092  34.771   9.842  1.00  0.00     0.192 HD
ENDROOT
BRANCH  10  12
HETATM   12  N6  UNL     1       3.991  36.528   9.476  1.00  0.00    -0.225 N 
HETATM   13  N7  UNL     1       3.651  36.504   8.282  1.00  0.00    -0.235 N 
ATOM     14  H7  UNL     1       4.134  35.897   7.619  1.00  0.00     0.209 HD
ATOM     15  H6  UNL     1       3.476  37.152  10.097  1.00  0.00     0.210 HD
BRANCH  13  16
HETATM   16  N8  UNL     1       2.608  37.312   7.863  1.00  0.00    -0.330 N 
ATOM     17  H82 UNL     1       1.657  37.097   8.159  1.00  0.00     0.178 HD
ATOM     18  H81 UNL     1       2.811  38.112   7.263  1.00  0.00     0.178 HD
ENDBRANCH  13  16
ENDBRANCH  10  12
BRANCH   2  19
HETATM   19  N2  UNL     1      10.624  38.274  10.936  1.00  0.00    -0.339 N 
ATOM     20  H22 UNL     1      11.183  37.806  10.223  1.00  0.00     0.177 HD
ATOM     21  H21 UNL     1      10.994  39.073  11.450  1.00  0.00     0.177 HD
ENDBRANCH   2  19
TORSDOF 3
ENDMDL
MODEL 4
REMARK VINA RESULT: -4.737223740      3.567      3.893
REMARK  3 active torsions:
REMARK  status: ('A' for Active; 'I' for Inactive)
REMARK    1  A    between atoms: N1_2  and  N2_3 
REMARK       I    between atoms: N1_2  and  C2_6 
REMARK       I    between atoms: C2_6  and  N3_8 
REMARK       I    between atoms: N3_8  and  C3_9 
REMARK       I    between atoms: C3_9  and  N5_13 
REMARK    2  A    between atoms: N5_13  and  N6_15 
REMARK    3  A    between atoms: N7_17  and  N8_19 
ROOT
HETATM    1  C1  UNL     1      10.071  37.305  12.864  1.00  0.00     0.183 C 
HETATM    2  N1  UNL     1       9.288  38.493  13.095  1.00  0.00    -0.242 N 
HETATM    3  C2  UNL     1       8.024  38.701  12.403  1.00  0.00     0.416 C 
HETATM    4  O1  UNL     1       7.500  39.831  12.739  1.00  0.00    -0.228 OA
HETATM    5  N3  UNL     1       7.557  37.782  11.547  1.00  0.00    -0.314 NA
HETATM    6  C3  UNL     1       7.078  36.843  10.672  1.00  0.00     0.273 C 
HETATM    7  N4  UNL     1       7.694  35.712  10.409  1.00  0.00    -0.358 N 
ATOM      8  H41 UNL     1       7.337  35.013   9.757  1.00  0.00     0.160 HD
ATOM      9  H42 UNL     1       8.555  35.667  10.955  1.00  0.00     0.160 HD
HETATM   10  N5  UNL     1       5.855  36.907   9.895  1.00  0.00    -0.244 N 
ATOM     11  H5  UNL     1       5.813  37.461   9.040  1.00  0.00     0.192 HD
ENDROOT
BRANCH  10  12
HETATM   12  N6  UNL     1       4.737  36.198  10.336  1.00  0.00    -0.225 N 
HETATM   13  N7  UNL     1       3.778  36.686  10.955  1.00  0.00    -0.235 N 
ATOM     14  H7  UNL     1       3.760  37.680  11.183  1.00  0.00     0.209 HD
ATOM     15  H6  UNL     1       4.705  35.199  10.133  1.00  0.00     0.210 HD
BRANCH  13  16
HETATM   16  N8  UNL     1       2.731  35.861  11.331  1.00  0.00    -0.330 N 
ATOM     17  H82 UNL     1       1.949  35.719  10.692  1.00  0.00     0.178 HD
ATOM     18  H81 UNL     1       2.760  35.409  12.245  1.00  0.00     0.178 HD
ENDBRANCH  13  16
ENDBRANCH  10  12
BRANCH   2  19
HETATM   19  N2  UNL     1       9.784  39.420  13.987  1.00  0.00    -0.339 N 
ATOM     20  H22 UNL     1      10.674  39.891  13.828  1.00  0.00     0.177 HD
ATOM     21  H21 UNL     1       9.228  39.619  14.818  1.00  0.00     0.177 HD
ENDBRANCH   2  19
TORSDOF 3
ENDMDL
MODEL 5
REMARK VINA RESULT: -4.698886178      2.153      2.904
REMARK  3 active torsions:
REMARK  status: ('A' for Active; 'I' for Inactive)
REMARK    1  A    between atoms: N1_2  and  N2_3 
REMARK       I    between atoms: N1_2  and  C2_6 
REMARK       I    between atoms: C2_6  and  N3_8 
REMARK       I    between atoms: N3_8  and  C3_9 
REMARK       I    between atoms: C3_9  and  N5_13 
REMARK    2  A    between atoms: N5_13  and  N6_15 
REMARK    3  A    between atoms: N7_17  and  N8_19 
ROOT
HETATM    1  C1  UNL     1       9.157  38.451  11.002  1.00  0.00     0.183 C 
HETATM    2  N1  UNL     1       8.649  38.795   9.697  1.00  0.00    -0.242 N 
HETATM    3  C2  UNL     1       7.393  38.240   9.214  1.00  0.00     0.416 C 
HETATM    4  O1  UNL     1       7.136  38.662   8.022  1.00  0.00    -0.228 OA
HETATM    5  N3  UNL     1       6.677  37.407   9.981  1.00  0.00    -0.314 NA
HETATM    6  C3  UNL     1       5.943  36.556  10.765  1.00  0.00     0.273 C 
HETATM    7  N4  UNL     1       6.297  36.197  11.979  1.00  0.00    -0.358 N 
ATOM      8  H41 UNL     1       5.750  35.563  12.562  1.00  0.00     0.160 HD
ATOM      9  H42 UNL     1       7.178  36.652  12.217  1.00  0.00     0.160 HD
HETATM   10  N5  UNL     1       4.691  35.908  10.427  1.00  0.00    -0.244 N 
ATOM     11  H5  UNL     1       4.680  35.079   9.833  1.00  0.00     0.192 HD
ENDROOT
BRANCH  10  12
HETATM   12  N6  UNL     1       3.500  36.436  10.927  1.00  0.00    -0.225 N 
HETATM   13  N7  UNL     1       2.560  35.770  11.392  1.00  0.00    -0.235 N 
ATOM     14  H7  UNL     1       2.617  34.752  11.433  1.00  0.00     0.209 HD
ATOM     15  H6  UNL     1       3.392  37.449  10.908  1.00  0.00     0.210 HD
BRANCH  13  16
HETATM   16  N8  UNL     1       1.434  36.429  11.854  1.00  0.00    -0.330 N 
ATOM     17  H82 UNL     1       1.035  36.170  12.756  1.00  0.00     0.178 HD
ATOM     18  H81 UNL     1       1.021  37.166  11.283  1.00  0.00     0.178 HD
ENDBRANCH  13  16
ENDBRANCH  10  12
BRANCH   2  19
HETATM   19  N2  UNL     1       9.398  39.661   8.930  1.00  0.00    -0.339 N 
ATOM     20  H22 UNL     1      10.247  40.097   9.290  1.00  0.00     0.177 HD
ATOM     21  H21 UNL     1       9.071  39.856   7.984  1.00  0.00     0.177 HD
ENDBRANCH   2  19
TORSDOF 3
ENDMDL
