MODEL 1
REMARK VINA RESULT: -7.707745136      0.000      0.000
REMARK  15 active torsions:
REMARK  status: ('A' for Active; 'I' for Inactive)
REMARK    1  A    between atoms: C2_2  and  C3_3 
REMARK    2  A    between atoms: C3_3  and  C4_4 
REMARK    3  A    between atoms: C4_4  and  N1_5 
REMARK    4  A    between atoms: N1_5  and  C5_7 
REMARK    5  A    between atoms: C7_9  and  N2_10 
REMARK    6  A    between atoms: N2_10  and  C8_11 
REMARK    7  A    between atoms: N2_10  and  S1_16 
REMARK    8  A    between atoms: C8_11  and  C9_12 
REMARK    9  A    between atoms: C9_12  and  C10_13 
REMARK   10  A    between atoms: C10_13  and  O1_14 
REMARK   11  A    between atoms: S1_16  and  C12_19 
REMARK   12  A    between atoms: C15_22  and  N3_23 
REMARK   13  A    between atoms: C16_28  and  N5_29 
REMARK   14  A    between atoms: C18_35  and  C19_36 
REMARK   15  A    between atoms: C21_43  and  N9_44 
ROOT
HETATM    1  S1  UNL     1      47.412  15.978  -7.201  1.00  0.00     0.268 S 
HETATM    2  O2  UNL     1      47.056  14.499  -7.132  1.00  0.00    -0.200 OA
HETATM    3  O3  UNL     1      47.262  16.442  -5.737  1.00  0.00    -0.200 OA
ENDROOT
BRANCH   1   4
HETATM    4  N2  UNL     1      49.053  16.139  -7.592  1.00  0.00    -0.256 N 
BRANCH   4   5
HETATM    5  C7  UNL     1      49.766  17.315  -7.253  1.00  0.00     0.136 A 
HETATM    6  C6  UNL     1      49.877  18.421  -8.038  1.00  0.00     0.098 A 
HETATM    7  C5  UNL     1      50.577  19.590  -7.686  1.00  0.00     0.120 A 
HETATM    8  N10 UNL     1      51.158  19.564  -6.482  1.00  0.00    -0.177 N 
HETATM    9  C21 UNL     1      51.075  18.493  -5.674  1.00  0.00     0.679 A 
ATOM     10  H10 UNL     1      51.680  20.381  -6.168  1.00  0.00     0.185 HD
HETATM   11  N8  UNL     1      50.405  17.406  -6.039  1.00  0.00    -0.176 N 
ATOM     12  H8  UNL     1      50.363  16.614  -5.399  1.00  0.00     0.186 HD
BRANCH   7  13
HETATM   13  N1  UNL     1      50.614  20.571  -8.508  1.00  0.00    -0.376 N 
ATOM     14  H1  UNL     1      50.380  21.498  -8.153  1.00  0.00     0.161 HD
BRANCH  13  15
HETATM   15  C4  UNL     1      50.959  20.453  -9.883  1.00  0.00     0.121 C 
BRANCH  15  16
HETATM   16  C3  UNL     1      50.688  21.726 -10.667  1.00  0.00     0.019 C 
BRANCH  16  17
HETATM   17  C2  UNL     1      51.048  21.507 -12.109  1.00  0.00    -0.003 C 
HETATM   18  C1  UNL     1      51.931  22.609 -12.637  1.00  0.00     0.005 C 
ENDBRANCH  16  17
ENDBRANCH  15  16
ENDBRANCH  13  15
ENDBRANCH   7  13
BRANCH   9  19
HETATM   19  N9  UNL     1      51.658  18.547  -4.539  1.00  0.00    -0.234 N 
ATOM     20  H92 UNL     1      51.338  17.919  -3.801  1.00  0.00     0.174 HD
ATOM     21  H91 UNL     1      52.424  19.201  -4.379  1.00  0.00     0.174 HD
ENDBRANCH   9  19
ENDBRANCH   4   5
BRANCH   4  22
HETATM   22  C8  UNL     1      49.802  15.095  -8.234  1.00  0.00     0.145 C 
BRANCH  22  23
HETATM   23  C9  UNL     1      50.124  13.887  -7.462  1.00  0.00     0.047 C 
BRANCH  23  24
HETATM   24  C10 UNL     1      51.445  13.824  -6.770  1.00  0.00     0.168 C 
BRANCH  24  25
HETATM   25  O1  UNL     1      51.465  14.735  -5.675  1.00  0.00    -0.396 OA
HETATM   26  C11 UNL     1      52.664  14.579  -4.967  1.00  0.00     0.201 C 
ENDBRANCH  24  25
ENDBRANCH  23  24
ENDBRANCH  22  23
ENDBRANCH   4  22
ENDBRANCH   1   4
BRANCH   1  27
HETATM   27  C12 UNL     1      46.270  16.799  -8.195  1.00  0.00     0.106 A 
HETATM   28  C13 UNL     1      46.716  17.829  -9.035  1.00  0.00     0.044 A 
HETATM   29  C14 UNL     1      45.892  18.555  -9.845  1.00  0.00     0.038 A 
HETATM   30  C15 UNL     1      46.336  19.563 -10.667  1.00  0.00     0.127 A 
HETATM   31  C17 UNL     1      44.514  18.275  -9.860  1.00  0.00     0.082 A 
HETATM   32  N4  UNL     1      45.531  20.295 -11.479  1.00  0.00    -0.176 N 
HETATM   33  C16 UNL     1      44.231  20.002 -11.466  1.00  0.00     0.677 A 
ATOM     34  H4  UNL     1      45.905  21.036 -12.072  1.00  0.00     0.186 HD
HETATM   35  N6  UNL     1      43.741  19.013 -10.671  1.00  0.00    -0.190 N 
ATOM     36  H6  UNL     1      42.739  18.823 -10.692  1.00  0.00     0.184 HD
HETATM   37  C18 UNL     1      44.034  17.281  -9.059  1.00  0.00     0.094 A 
HETATM   38  C20 UNL     1      44.940  16.554  -8.232  1.00  0.00     0.089 A 
HETATM   39  N7  UNL     1      44.363  15.520  -7.444  1.00  0.00    -0.100 NA
BRANCH  30  40
HETATM   40  N3  UNL     1      47.569  19.873 -10.708  1.00  0.00    -0.384 N 
ATOM     41  H32 UNL     1      48.166  19.359 -10.059  1.00  0.00     0.157 HD
ATOM     42  H31 UNL     1      47.906  20.587 -11.354  1.00  0.00     0.157 HD
ENDBRANCH  30  40
BRANCH  33  43
HETATM   43  N5  UNL     1      43.449  20.698 -12.241  1.00  0.00    -0.234 N 
ATOM     44  H52 UNL     1      43.798  21.504 -12.760  1.00  0.00     0.174 HD
ATOM     45  H51 UNL     1      42.474  20.408 -12.311  1.00  0.00     0.174 HD
ENDBRANCH  33  43
BRANCH  37  46
HETATM   46  C19 UNL     1      42.643  16.931  -9.026  1.00  0.00     0.213 C 
HETATM   47  O4  UNL     1      42.142  16.226  -9.988  1.00  0.00    -0.644 OA
HETATM   48  O5  UNL     1      41.735  17.255  -8.077  1.00  0.00    -0.644 OA
ENDBRANCH  37  46
ENDBRANCH   1  27
TORSDOF 15
ENDMDL
MODEL 2
REMARK VINA RESULT: -7.691417129      1.202      2.061
REMARK  15 active torsions:
REMARK  status: ('A' for Active; 'I' for Inactive)
REMARK    1  A    between atoms: C2_2  and  C3_3 
REMARK    2  A    between atoms: C3_3  and  C4_4 
REMARK    3  A    between atoms: C4_4  and  N1_5 
REMARK    4  A    between atoms: N1_5  and  C5_7 
REMARK    5  A    between atoms: C7_9  and  N2_10 
REMARK    6  A    between atoms: N2_10  and  C8_11 
REMARK    7  A    between atoms: N2_10  and  S1_16 
REMARK    8  A    between atoms: C8_11  and  C9_12 
REMARK    9  A    between atoms: C9_12  and  C10_13 
REMARK   10  A    between atoms: C10_13  and  O1_14 
REMARK   11  A    between atoms: S1_16  and  C12_19 
REMARK   12  A    between atoms: C15_22  and  N3_23 
REMARK   13  A    between atoms: C16_28  and  N5_29 
REMARK   14  A    between atoms: C18_35  and  C19_36 
REMARK   15  A    between atoms: C21_43  and  N9_44 
ROOT
HETATM    1  S1  UNL     1      47.485  15.939  -7.274  1.00  0.00     0.268 S 
HETATM    2  O2  UNL     1      47.170  14.449  -7.246  1.00  0.00    -0.200 OA
HETATM    3  O3  UNL     1      47.339  16.356  -5.796  1.00  0.00    -0.200 OA
ENDROOT
BRANCH   1   4
HETATM    4  N2  UNL     1      49.116  16.156  -7.678  1.00  0.00    -0.256 N 
BRANCH   4   5
HETATM    5  C7  UNL     1      49.801  17.341  -7.313  1.00  0.00     0.136 A 
HETATM    6  C6  UNL     1      49.903  18.460  -8.081  1.00  0.00     0.098 A 
HETATM    7  C5  UNL     1      50.574  19.637  -7.703  1.00  0.00     0.120 A 
HETATM    8  N10 UNL     1      51.137  19.605  -6.491  1.00  0.00    -0.177 N 
HETATM    9  C21 UNL     1      51.063  18.522  -5.698  1.00  0.00     0.679 A 
ATOM     10  H10 UNL     1      51.638  20.428  -6.157  1.00  0.00     0.185 HD
HETATM   11  N8  UNL     1      50.420  17.428  -6.088  1.00  0.00    -0.176 N 
ATOM     12  H8  UNL     1      50.383  16.626  -5.459  1.00  0.00     0.186 HD
BRANCH   7  13
HETATM   13  N1  UNL     1      50.605  20.629  -8.511  1.00  0.00    -0.376 N 
ATOM     14  H1  UNL     1      50.407  21.556  -8.133  1.00  0.00     0.161 HD
BRANCH  13  15
HETATM   15  C4  UNL     1      50.896  20.525  -9.900  1.00  0.00     0.121 C 
BRANCH  15  16
HETATM   16  C3  UNL     1      50.618  21.813 -10.655  1.00  0.00     0.019 C 
BRANCH  16  17
HETATM   17  C2  UNL     1      51.167  21.700 -12.049  1.00  0.00    -0.003 C 
HETATM   18  C1  UNL     1      50.193  21.022 -12.979  1.00  0.00     0.005 C 
ENDBRANCH  16  17
ENDBRANCH  15  16
ENDBRANCH  13  15
ENDBRANCH   7  13
BRANCH   9  19
HETATM   19  N9  UNL     1      51.627  18.571  -4.553  1.00  0.00    -0.234 N 
ATOM     20  H92 UNL     1      52.564  18.177  -4.460  1.00  0.00     0.174 HD
ATOM     21  H91 UNL     1      51.152  18.996  -3.757  1.00  0.00     0.174 HD
ENDBRANCH   9  19
ENDBRANCH   4   5
BRANCH   4  22
HETATM   22  C8  UNL     1      49.886  15.153  -8.360  1.00  0.00     0.145 C 
BRANCH  22  23
HETATM   23  C9  UNL     1      50.236  15.375  -9.770  1.00  0.00     0.047 C 
BRANCH  23  24
HETATM   24  C10 UNL     1      49.128  15.595 -10.745  1.00  0.00     0.168 C 
BRANCH  24  25
HETATM   25  O1  UNL     1      49.119  16.952 -11.175  1.00  0.00    -0.396 OA
HETATM   26  C11 UNL     1      48.651  17.016 -12.494  1.00  0.00     0.201 C 
ENDBRANCH  24  25
ENDBRANCH  23  24
ENDBRANCH  22  23
ENDBRANCH   4  22
ENDBRANCH   1   4
BRANCH   1  27
HETATM   27  C12 UNL     1      46.310  16.757  -8.231  1.00  0.00     0.106 A 
HETATM   28  C13 UNL     1      46.722  17.803  -9.068  1.00  0.00     0.044 A 
HETATM   29  C14 UNL     1      45.870  18.528  -9.850  1.00  0.00     0.038 A 
HETATM   30  C15 UNL     1      46.282  19.552 -10.670  1.00  0.00     0.127 A 
HETATM   31  C17 UNL     1      44.496  18.231  -9.836  1.00  0.00     0.082 A 
HETATM   32  N4  UNL     1      45.449  20.283 -11.453  1.00  0.00    -0.176 N 
HETATM   33  C16 UNL     1      44.153  19.974 -11.413  1.00  0.00     0.677 A 
ATOM     34  H4  UNL     1      45.799  21.035 -12.045  1.00  0.00     0.186 HD
HETATM   35  N6  UNL     1      43.694  18.969 -10.619  1.00  0.00    -0.190 N 
ATOM     36  H6  UNL     1      42.695  18.766 -10.619  1.00  0.00     0.184 HD
HETATM   37  C18 UNL     1      44.047  17.221  -9.036  1.00  0.00     0.094 A 
HETATM   38  C20 UNL     1      44.982  16.496  -8.240  1.00  0.00     0.089 A 
HETATM   39  N7  UNL     1      44.437  15.445  -7.451  1.00  0.00    -0.100 NA
BRANCH  30  40
HETATM   40  N3  UNL     1      47.510  19.877 -10.736  1.00  0.00    -0.384 N 
ATOM     41  H32 UNL     1      47.824  20.532 -10.019  1.00  0.00     0.157 HD
ATOM     42  H31 UNL     1      48.112  19.494 -11.465  1.00  0.00     0.157 HD
ENDBRANCH  30  40
BRANCH  33  43
HETATM   43  N5  UNL     1      43.345  20.669 -12.161  1.00  0.00    -0.234 N 
ATOM     44  H52 UNL     1      43.633  21.558 -12.570  1.00  0.00     0.174 HD
ATOM     45  H51 UNL     1      42.411  20.292 -12.323  1.00  0.00     0.174 HD
ENDBRANCH  33  43
BRANCH  37  46
HETATM   46  C19 UNL     1      42.662  16.853  -8.974  1.00  0.00     0.213 C 
HETATM   47  O4  UNL     1      42.142  16.171  -9.942  1.00  0.00    -0.644 OA
HETATM   48  O5  UNL     1      41.778  17.138  -7.991  1.00  0.00    -0.644 OA
ENDBRANCH  37  46
ENDBRANCH   1  27
TORSDOF 15
ENDMDL
MODEL 3
REMARK VINA RESULT: -7.531222515      4.261      6.796
REMARK  15 active torsions:
REMARK  status: ('A' for Active; 'I' for Inactive)
REMARK    1  A    between atoms: C2_2  and  C3_3 
REMARK    2  A    between atoms: C3_3  and  C4_4 
REMARK    3  A    between atoms: C4_4  and  N1_5 
REMARK    4  A    between atoms: N1_5  and  C5_7 
REMARK    5  A    between atoms: C7_9  and  N2_10 
REMARK    6  A    between atoms: N2_10  and  C8_11 
REMARK    7  A    between atoms: N2_10  and  S1_16 
REMARK    8  A    between atoms: C8_11  and  C9_12 
REMARK    9  A    between atoms: C9_12  and  C10_13 
REMARK   10  A    between atoms: C10_13  and  O1_14 
REMARK   11  A    between atoms: S1_16  and  C12_19 
REMARK   12  A    between atoms: C15_22  and  N3_23 
REMARK   13  A    between atoms: C16_28  and  N5_29 
REMARK   14  A    between atoms: C18_35  and  C19_36 
REMARK   15  A    between atoms: C21_43  and  N9_44 
ROOT
HETATM    1  S1  UNL     1      50.255  19.845  -9.512  1.00  0.00     0.268 S 
HETATM    2  O2  UNL     1      49.614  20.972  -8.716  1.00  0.00    -0.200 OA
HETATM    3  O3  UNL     1      51.754  19.985  -9.173  1.00  0.00    -0.200 OA
ENDROOT
BRANCH   1   4
HETATM    4  N2  UNL     1      49.754  18.356  -8.875  1.00  0.00    -0.256 N 
BRANCH   4   5
HETATM    5  C7  UNL     1      50.397  17.800  -7.742  1.00  0.00     0.136 A 
HETATM    6  C6  UNL     1      50.924  18.512  -6.709  1.00  0.00     0.098 A 
HETATM    7  C5  UNL     1      51.549  17.950  -5.580  1.00  0.00     0.120 A 
HETATM    8  N10 UNL     1      51.603  16.614  -5.569  1.00  0.00    -0.177 N 
HETATM    9  C21 UNL     1      51.097  15.871  -6.567  1.00  0.00     0.679 A 
ATOM     10  H10 UNL     1      52.043  16.145  -4.777  1.00  0.00     0.185 HD
HETATM   11  N8  UNL     1      50.513  16.436  -7.617  1.00  0.00    -0.176 N 
ATOM     12  H8  UNL     1      50.140  15.840  -8.355  1.00  0.00     0.186 HD
BRANCH   7  13
HETATM   13  N1  UNL     1      52.009  18.721  -4.668  1.00  0.00    -0.376 N 
ATOM     14  H1  UNL     1      51.426  19.501  -4.364  1.00  0.00     0.161 HD
BRANCH  13  15
HETATM   15  C4  UNL     1      53.281  18.561  -4.049  1.00  0.00     0.121 C 
BRANCH  15  16
HETATM   16  C3  UNL     1      53.188  18.470  -2.535  1.00  0.00     0.019 C 
BRANCH  16  17
HETATM   17  C2  UNL     1      54.454  19.005  -1.928  1.00  0.00    -0.003 C 
HETATM   18  C1  UNL     1      54.258  20.385  -1.354  1.00  0.00     0.005 C 
ENDBRANCH  16  17
ENDBRANCH  15  16
ENDBRANCH  13  15
ENDBRANCH   7  13
BRANCH   9  19
HETATM   19  N9  UNL     1      51.189  14.600  -6.480  1.00  0.00    -0.234 N 
ATOM     20  H92 UNL     1      51.908  14.209  -5.871  1.00  0.00     0.174 HD
ATOM     21  H91 UNL     1      50.558  13.996  -7.007  1.00  0.00     0.174 HD
ENDBRANCH   9  19
ENDBRANCH   4   5
BRANCH   4  22
HETATM   22  C8  UNL     1      48.646  17.617  -9.413  1.00  0.00     0.145 C 
BRANCH  22  23
HETATM   23  C9  UNL     1      47.294  17.932  -8.931  1.00  0.00     0.047 C 
BRANCH  23  24
HETATM   24  C10 UNL     1      46.563  16.889  -8.152  1.00  0.00     0.168 C 
BRANCH  24  25
HETATM   25  O1  UNL     1      47.368  16.440  -7.066  1.00  0.00    -0.396 OA
HETATM   26  C11 UNL     1      47.282  15.045  -6.975  1.00  0.00     0.201 C 
ENDBRANCH  24  25
ENDBRANCH  23  24
ENDBRANCH  22  23
ENDBRANCH   4  22
ENDBRANCH   1   4
BRANCH   1  27
HETATM   27  C12 UNL     1      50.008  20.116 -11.195  1.00  0.00     0.106 A 
HETATM   28  C13 UNL     1      49.178  19.243 -11.911  1.00  0.00     0.044 A 
HETATM   29  C14 UNL     1      48.933  19.356 -13.249  1.00  0.00     0.038 A 
HETATM   30  C15 UNL     1      48.117  18.497 -13.944  1.00  0.00     0.127 A 
HETATM   31  C17 UNL     1      49.534  20.400 -13.975  1.00  0.00     0.082 A 
HETATM   32  N4  UNL     1      47.863  18.595 -15.274  1.00  0.00    -0.176 N 
HETATM   33  C16 UNL     1      48.450  19.596 -15.930  1.00  0.00     0.677 A 
ATOM     34  H4  UNL     1      47.251  17.933 -15.749  1.00  0.00     0.186 HD
HETATM   35  N6  UNL     1      49.266  20.474 -15.288  1.00  0.00    -0.190 N 
ATOM     36  H6  UNL     1      49.694  21.225 -15.829  1.00  0.00     0.184 HD
HETATM   37  C18 UNL     1      50.350  21.275 -13.321  1.00  0.00     0.094 A 
HETATM   38  C20 UNL     1      50.571  21.109 -11.922  1.00  0.00     0.089 A 
HETATM   39  N7  UNL     1      51.417  22.076 -11.311  1.00  0.00    -0.100 NA
BRANCH  30  40
HETATM   40  N3  UNL     1      47.539  17.529 -13.354  1.00  0.00    -0.384 N 
ATOM     41  H32 UNL     1      46.526  17.494 -13.469  1.00  0.00     0.157 HD
ATOM     42  H31 UNL     1      48.077  16.853 -12.812  1.00  0.00     0.157 HD
ENDBRANCH  30  40
BRANCH  33  43
HETATM   43  N5  UNL     1      48.213  19.699 -17.206  1.00  0.00    -0.234 N 
ATOM     44  H52 UNL     1      47.638  19.014 -17.697  1.00  0.00     0.174 HD
ATOM     45  H51 UNL     1      48.624  20.492 -17.699  1.00  0.00     0.174 HD
ENDBRANCH  33  43
BRANCH  37  46
HETATM   46  C19 UNL     1      50.990  22.370 -13.992  1.00  0.00     0.213 C 
HETATM   47  O4  UNL     1      50.276  23.364 -14.409  1.00  0.00    -0.644 OA
HETATM   48  O5  UNL     1      52.308  22.511 -14.263  1.00  0.00    -0.644 OA
ENDBRANCH  37  46
ENDBRANCH   1  27
TORSDOF 15
ENDMDL
MODEL 4
REMARK VINA RESULT: -7.521543318      2.828      6.342
REMARK  15 active torsions:
REMARK  status: ('A' for Active; 'I' for Inactive)
REMARK    1  A    between atoms: C2_2  and  C3_3 
REMARK    2  A    between atoms: C3_3  and  C4_4 
REMARK    3  A    between atoms: C4_4  and  N1_5 
REMARK    4  A    between atoms: N1_5  and  C5_7 
REMARK    5  A    between atoms: C7_9  and  N2_10 
REMARK    6  A    between atoms: N2_10  and  C8_11 
REMARK    7  A    between atoms: N2_10  and  S1_16 
REMARK    8  A    between atoms: C8_11  and  C9_12 
REMARK    9  A    between atoms: C9_12  and  C10_13 
REMARK   10  A    between atoms: C10_13  and  O1_14 
REMARK   11  A    between atoms: S1_16  and  C12_19 
REMARK   12  A    between atoms: C15_22  and  N3_23 
REMARK   13  A    between atoms: C16_28  and  N5_29 
REMARK   14  A    between atoms: C18_35  and  C19_36 
REMARK   15  A    between atoms: C21_43  and  N9_44 
ROOT
HETATM    1  S1  UNL     1      49.876  16.030  -9.101  1.00  0.00     0.268 S 
HETATM    2  O2  UNL     1      51.345  15.750  -9.389  1.00  0.00    -0.200 OA
HETATM    3  O3  UNL     1      49.152  14.875  -9.823  1.00  0.00    -0.200 OA
ENDROOT
BRANCH   1   4
HETATM    4  N2  UNL     1      49.583  15.822  -7.445  1.00  0.00    -0.256 N 
BRANCH   4   5
HETATM    5  C7  UNL     1      50.585  16.120  -6.489  1.00  0.00     0.136 A 
HETATM    6  C6  UNL     1      51.428  15.214  -5.924  1.00  0.00     0.098 A 
HETATM    7  C5  UNL     1      52.429  15.522  -4.985  1.00  0.00     0.120 A 
HETATM    8  N10 UNL     1      52.519  16.815  -4.656  1.00  0.00    -0.177 N 
HETATM    9  C21 UNL     1      51.707  17.745  -5.187  1.00  0.00     0.679 A 
ATOM     10  H10 UNL     1      53.226  17.105  -3.980  1.00  0.00     0.185 HD
HETATM   11  N8  UNL     1      50.773  17.416  -6.072  1.00  0.00    -0.176 N 
ATOM     12  H8  UNL     1      50.176  18.149  -6.454  1.00  0.00     0.186 HD
BRANCH   7  13
HETATM   13  N1  UNL     1      53.166  14.584  -4.521  1.00  0.00    -0.376 N 
ATOM     14  H1  UNL     1      53.297  13.753  -5.096  1.00  0.00     0.161 HD
BRANCH  13  15
HETATM   15  C4  UNL     1      53.814  14.626  -3.255  1.00  0.00     0.121 C 
BRANCH  15  16
HETATM   16  C3  UNL     1      53.412  13.471  -2.352  1.00  0.00     0.019 C 
BRANCH  16  17
HETATM   17  C2  UNL     1      52.155  13.833  -1.614  1.00  0.00    -0.003 C 
HETATM   18  C1  UNL     1      52.182  15.261  -1.131  1.00  0.00     0.005 C 
ENDBRANCH  16  17
ENDBRANCH  15  16
ENDBRANCH  13  15
ENDBRANCH   7  13
BRANCH   9  19
HETATM   19  N9  UNL     1      51.857  18.959  -4.820  1.00  0.00    -0.234 N 
ATOM     20  H92 UNL     1      52.000  19.667  -5.541  1.00  0.00     0.174 HD
ATOM     21  H91 UNL     1      51.833  19.210  -3.831  1.00  0.00     0.174 HD
ENDBRANCH   9  19
ENDBRANCH   4   5
BRANCH   4  22
HETATM   22  C8  UNL     1      48.315  15.383  -6.932  1.00  0.00     0.145 C 
BRANCH  22  23
HETATM   23  C9  UNL     1      47.275  16.391  -6.678  1.00  0.00     0.047 C 
BRANCH  23  24
HETATM   24  C10 UNL     1      46.280  16.664  -7.756  1.00  0.00     0.168 C 
BRANCH  24  25
HETATM   25  O1  UNL     1      44.967  16.360  -7.295  1.00  0.00    -0.396 OA
HETATM   26  C11 UNL     1      44.033  16.790  -8.246  1.00  0.00     0.201 C 
ENDBRANCH  24  25
ENDBRANCH  23  24
ENDBRANCH  22  23
ENDBRANCH   4  22
ENDBRANCH   1   4
BRANCH   1  27
HETATM   27  C12 UNL     1      49.427  17.534  -9.808  1.00  0.00     0.106 A 
HETATM   28  C13 UNL     1      48.377  17.564 -10.735  1.00  0.00     0.044 A 
HETATM   29  C14 UNL     1      47.956  18.699 -11.367  1.00  0.00     0.038 A 
HETATM   30  C15 UNL     1      46.925  18.720 -12.276  1.00  0.00     0.127 A 
HETATM   31  C17 UNL     1      48.594  19.921 -11.091  1.00  0.00     0.082 A 
HETATM   32  N4  UNL     1      46.494  19.839 -12.913  1.00  0.00    -0.176 N 
HETATM   33  C16 UNL     1      47.122  20.979 -12.627  1.00  0.00     0.677 A 
ATOM     34  H4  UNL     1      45.724  19.807 -13.581  1.00  0.00     0.186 HD
HETATM   35  N6  UNL     1      48.149  21.011 -11.735  1.00  0.00    -0.190 N 
ATOM     36  H6  UNL     1      48.601  21.905 -11.546  1.00  0.00     0.184 HD
HETATM   37  C18 UNL     1      49.622  19.941 -10.195  1.00  0.00     0.094 A 
HETATM   38  C20 UNL     1      50.019  18.726  -9.563  1.00  0.00     0.089 A 
HETATM   39  N7  UNL     1      51.084  18.837  -8.626  1.00  0.00    -0.100 NA
BRANCH  30  40
HETATM   40  N3  UNL     1      46.300  17.653 -12.575  1.00  0.00    -0.384 N 
ATOM     41  H32 UNL     1      46.156  17.004 -11.801  1.00  0.00     0.157 HD
ATOM     42  H31 UNL     1      45.979  17.488 -13.529  1.00  0.00     0.157 HD
ENDBRANCH  30  40
BRANCH  33  43
HETATM   43  N5  UNL     1      46.717  22.058 -13.233  1.00  0.00    -0.234 N 
ATOM     44  H52 UNL     1      47.141  22.965 -13.041  1.00  0.00     0.174 HD
ATOM     45  H51 UNL     1      45.959  21.962 -13.908  1.00  0.00     0.174 HD
ENDBRANCH  33  43
BRANCH  37  46
HETATM   46  C19 UNL     1      50.314  21.151  -9.854  1.00  0.00     0.213 C 
HETATM   47  O4  UNL     1      50.030  21.756  -8.747  1.00  0.00    -0.644 OA
HETATM   48  O5  UNL     1      51.274  21.779 -10.571  1.00  0.00    -0.644 OA
ENDBRANCH  37  46
ENDBRANCH   1  27
TORSDOF 15
ENDMDL
MODEL 5
REMARK VINA RESULT: -7.481605307      2.639      5.050
REMARK  15 active torsions:
REMARK  status: ('A' for Active; 'I' for Inactive)
REMARK    1  A    between atoms: C2_2  and  C3_3 
REMARK    2  A    between atoms: C3_3  and  C4_4 
REMARK    3  A    between atoms: C4_4  and  N1_5 
REMARK    4  A    between atoms: N1_5  and  C5_7 
REMARK    5  A    between atoms: C7_9  and  N2_10 
REMARK    6  A    between atoms: N2_10  and  C8_11 
REMARK    7  A    between atoms: N2_10  and  S1_16 
REMARK    8  A    between atoms: C8_11  and  C9_12 
REMARK    9  A    between atoms: C9_12  and  C10_13 
REMARK   10  A    between atoms: C10_13  and  O1_14 
REMARK   11  A    between atoms: S1_16  and  C12_19 
REMARK   12  A    between atoms: C15_22  and  N3_23 
REMARK   13  A    between atoms: C16_28  and  N5_29 
REMARK   14  A    between atoms: C18_35  and  C19_36 
REMARK   15  A    between atoms: C21_43  and  N9_44 
ROOT
HETATM    1  S1  UNL     1      49.324  16.611  -7.737  1.00  0.00     0.268 S 
HETATM    2  O2  UNL     1      50.122  15.876  -8.806  1.00  0.00    -0.200 OA
HETATM    3  O3  UNL     1      49.141  15.541  -6.640  1.00  0.00    -0.200 OA
ENDROOT
BRANCH   1   4
HETATM    4  N2  UNL     1      50.286  17.832  -7.063  1.00  0.00    -0.256 N 
BRANCH   4   5
HETATM    5  C7  UNL     1      51.235  17.534  -6.055  1.00  0.00     0.136 A 
HETATM    6  C6  UNL     1      51.855  18.450  -5.262  1.00  0.00     0.098 A 
HETATM    7  C5  UNL     1      52.786  18.142  -4.254  1.00  0.00     0.120 A 
HETATM    8  N10 UNL     1      53.049  16.840  -4.102  1.00  0.00    -0.177 N 
HETATM    9  C21 UNL     1      52.462  15.901  -4.863  1.00  0.00     0.679 A 
ATOM     10  H10 UNL     1      53.716  16.551  -3.387  1.00  0.00     0.185 HD
HETATM   11  N8  UNL     1      51.586  16.228  -5.806  1.00  0.00    -0.176 N 
ATOM     12  H8  UNL     1      51.161  15.488  -6.363  1.00  0.00     0.186 HD
BRANCH   7  13
HETATM   13  N1  UNL     1      53.306  19.090  -3.568  1.00  0.00    -0.376 N 
ATOM     14  H1  UNL     1      53.001  20.043  -3.766  1.00  0.00     0.161 HD
BRANCH  13  15
HETATM   15  C4  UNL     1      54.281  18.901  -2.548  1.00  0.00     0.121 C 
BRANCH  15  16
HETATM   16  C3  UNL     1      53.883  19.547  -1.232  1.00  0.00     0.019 C 
BRANCH  16  17
HETATM   17  C2  UNL     1      52.705  18.814  -0.655  1.00  0.00    -0.003 C 
HETATM   18  C1  UNL     1      53.078  18.050   0.590  1.00  0.00     0.005 C 
ENDBRANCH  16  17
ENDBRANCH  15  16
ENDBRANCH  13  15
ENDBRANCH   7  13
BRANCH   9  19
HETATM   19  N9  UNL     1      52.767  14.678  -4.655  1.00  0.00    -0.234 N 
ATOM     20  H92 UNL     1      52.148  13.956  -5.027  1.00  0.00     0.174 HD
ATOM     21  H91 UNL     1      53.609  14.434  -4.133  1.00  0.00     0.174 HD
ENDBRANCH   9  19
ENDBRANCH   4   5
BRANCH   4  22
HETATM   22  C8  UNL     1      50.222  19.199  -7.502  1.00  0.00     0.145 C 
BRANCH  22  23
HETATM   23  C9  UNL     1      51.054  19.608  -8.643  1.00  0.00     0.047 C 
BRANCH  23  24
HETATM   24  C10 UNL     1      50.573  20.734  -9.497  1.00  0.00     0.168 C 
BRANCH  24  25
HETATM   25  O1  UNL     1      50.665  20.376 -10.872  1.00  0.00    -0.396 OA
HETATM   26  C11 UNL     1      51.082  21.489 -11.612  1.00  0.00     0.201 C 
ENDBRANCH  24  25
ENDBRANCH  23  24
ENDBRANCH  22  23
ENDBRANCH   4  22
ENDBRANCH   1   4
BRANCH   1  27
HETATM   27  C12 UNL     1      47.790  17.064  -8.374  1.00  0.00     0.106 A 
HETATM   28  C13 UNL     1      47.716  18.131  -9.279  1.00  0.00     0.044 A 
HETATM   29  C14 UNL     1      46.550  18.582  -9.826  1.00  0.00     0.038 A 
HETATM   30  C15 UNL     1      46.486  19.629 -10.715  1.00  0.00     0.127 A 
HETATM   31  C17 UNL     1      45.338  17.959  -9.480  1.00  0.00     0.082 A 
HETATM   32  N4  UNL     1      45.335  20.090 -11.267  1.00  0.00    -0.176 N 
HETATM   33  C16 UNL     1      44.206  19.476 -10.915  1.00  0.00     0.677 A 
ATOM     34  H4  UNL     1      45.335  20.871 -11.922  1.00  0.00     0.186 HD
HETATM   35  N6  UNL     1      44.215  18.434 -10.040  1.00  0.00    -0.190 N 
ATOM     36  H6  UNL     1      43.328  17.994  -9.799  1.00  0.00     0.184 HD
HETATM   37  C18 UNL     1      45.359  16.916  -8.602  1.00  0.00     0.094 A 
HETATM   38  C20 UNL     1      46.607  16.486  -8.061  1.00  0.00     0.089 A 
HETATM   39  N7  UNL     1      46.545  15.378  -7.170  1.00  0.00    -0.100 NA
BRANCH  30  40
HETATM   40  N3  UNL     1      47.542  20.240 -11.075  1.00  0.00    -0.384 N 
ATOM     41  H32 UNL     1      47.767  21.073 -10.531  1.00  0.00     0.157 HD
ATOM     42  H31 UNL     1      48.101  19.898 -11.856  1.00  0.00     0.157 HD
ENDBRANCH  30  40
BRANCH  33  43
HETATM   43  N5  UNL     1      43.096  19.910 -11.440  1.00  0.00    -0.234 N 
ATOM     44  H52 UNL     1      43.081  20.730 -12.046  1.00  0.00     0.174 HD
ATOM     45  H51 UNL     1      42.240  19.400 -11.222  1.00  0.00     0.174 HD
ENDBRANCH  33  43
BRANCH  37  46
HETATM   46  C19 UNL     1      44.165  16.224  -8.208  1.00  0.00     0.213 C 
HETATM   47  O4  UNL     1      43.583  15.433  -9.049  1.00  0.00    -0.644 OA
HETATM   48  O5  UNL     1      43.532  16.291  -7.014  1.00  0.00    -0.644 OA
ENDBRANCH  37  46
ENDBRANCH   1  27
TORSDOF 15
ENDMDL
