MODEL 1
REMARK VINA RESULT: -7.653736997      0.000      0.000
REMARK  18 active torsions:
REMARK  status: ('A' for Active; 'I' for Inactive)
REMARK    1  A    between atoms: C2_2  and  C3_3 
REMARK    2  A    between atoms: C3_3  and  C4_4 
REMARK    3  A    between atoms: C4_4  and  C5_5 
REMARK    4  A    between atoms: C5_5  and  C6_6 
REMARK    5  A    between atoms: C6_6  and  C7_7 
REMARK    6  A    between atoms: C10_13  and  N2_14 
REMARK    7  A    between atoms: C13_19  and  N4_20 
REMARK    8  A    between atoms: C14_25  and  C15_26 
REMARK    9  A    between atoms: C15_26  and  N6_27 
REMARK   10  A    between atoms: C15_26  and  N7_31 
REMARK   11  A    between atoms: N7_31  and  C16_33 
REMARK   12  A    between atoms: C16_33  and  C17_34 
REMARK   13  A    between atoms: C17_34  and  C18_35 
REMARK   14  A    between atoms: C21_38  and  O2_39 
REMARK   15  A    between atoms: C23_41  and  N8_42 
REMARK   16  A    between atoms: N8_42  and  N9_43 
REMARK   17  A    between atoms: N8_42  and  N10_46 
REMARK   18  A    between atoms: C25_50  and  O3_51 
ROOT
HETATM    1  N2  UNL     1      53.826  13.271  -5.052  1.00  0.00    -0.311 N 
HETATM    2  C11 UNL     1      54.708  12.254  -4.932  1.00  0.00     0.189 A 
HETATM    3  N3  UNL     1      54.366  11.251  -5.746  1.00  0.00    -0.347 N 
ATOM      4  H3  UNL     1      54.870  10.368  -5.843  1.00  0.00     0.167 HD
HETATM    5  C12 UNL     1      53.242  11.598  -6.419  1.00  0.00     0.107 A 
HETATM    6  C13 UNL     1      52.464  10.947  -7.348  1.00  0.00     0.129 A 
HETATM    7  N5  UNL     1      51.367  11.528  -7.848  1.00  0.00    -0.339 N 
ATOM      8  H5  UNL     1      50.807  11.024  -8.535  1.00  0.00     0.167 HD
HETATM    9  C14 UNL     1      50.990  12.746  -7.471  1.00  0.00     0.097 A 
HETATM   10  C25 UNL     1      51.781  13.428  -6.518  1.00  0.00     0.122 A 
HETATM   11  C26 UNL     1      52.919  12.877  -5.968  1.00  0.00     0.106 A 
ENDROOT
BRANCH   9  12
HETATM   12  C15 UNL     1      49.749  13.341  -7.973  1.00  0.00     0.334 C 
BRANCH  12  13
HETATM   13  N6  UNL     1      49.185  12.474  -9.035  1.00  0.00    -0.053 N 
ATOM     14  H63 UNL     1      49.901  12.136  -9.679  1.00  0.00     0.277 HD
ATOM     15  H62 UNL     1      48.876  11.571  -8.674  1.00  0.00     0.277 HD
ATOM     16  H61 UNL     1      48.437  12.974  -9.517  1.00  0.00     0.277 HD
ENDBRANCH  12  13
BRANCH  12  17
HETATM   17  N7  UNL     1      48.709  13.735  -7.143  1.00  0.00    -0.371 N 
ATOM     18  H7  UNL     1      48.743  13.474  -6.157  1.00  0.00     0.161 HD
BRANCH  17  19
HETATM   19  C16 UNL     1      47.619  14.476  -7.604  1.00  0.00     0.062 C 
BRANCH  19  20
HETATM   20  C17 UNL     1      47.326  15.772  -6.925  1.00  0.00     0.082 C 
BRANCH  20  21
HETATM   21  C18 UNL     1      48.336  16.766  -7.450  1.00  0.00    -0.051 A 
HETATM   22  C19 UNL     1      48.301  17.251  -8.719  1.00  0.00     0.010 A 
HETATM   23  C20 UNL     1      49.279  18.168  -9.123  1.00  0.00     0.040 A 
HETATM   24  C21 UNL     1      50.270  18.587  -8.263  1.00  0.00     0.098 A 
HETATM   25  C23 UNL     1      50.311  18.104  -6.978  1.00  0.00     0.107 A 
HETATM   26  C24 UNL     1      49.325  17.185  -6.589  1.00  0.00     0.043 A 
BRANCH  24  27
HETATM   27  O2  UNL     1      51.207  19.488  -8.724  1.00  0.00    -0.354 OA
HETATM   28  C22 UNL     1      50.897  20.399  -9.768  1.00  0.00     0.210 C 
ENDBRANCH  24  27
BRANCH  25  29
HETATM   29  N8  UNL     1      51.290  18.542  -6.061  1.00  0.00    -0.207 N 
BRANCH  29  30
HETATM   30  N9  UNL     1      51.655  17.641  -5.034  1.00  0.00    -0.324 N 
ATOM     31  H92 UNL     1      52.321  16.912  -5.289  1.00  0.00     0.178 HD
ATOM     32  H91 UNL     1      51.243  17.797  -4.114  1.00  0.00     0.178 HD
ENDBRANCH  29  30
BRANCH  29  33
HETATM   33  N10 UNL     1      51.917  19.777  -6.045  1.00  0.00    -0.324 N 
ATOM     34 2H10 UNL     1      51.347  20.577  -6.318  1.00  0.00     0.178 HD
ATOM     35 1H10 UNL     1      52.891  19.965  -5.806  1.00  0.00     0.178 HD
ENDBRANCH  29  33
ENDBRANCH  25  29
ENDBRANCH  20  21
ENDBRANCH  19  20
ENDBRANCH  17  19
ENDBRANCH  12  17
ENDBRANCH   9  12
BRANCH  10  36
HETATM   36  O3  UNL     1      51.377  14.681  -6.153  1.00  0.00    -0.356 OA
ATOM     37  H3  UNL     1      51.472  15.373  -6.799  1.00  0.00     0.218 HD
ENDBRANCH  10  36
BRANCH   6  38
HETATM   38  N4  UNL     1      52.799   9.772  -7.729  1.00  0.00    -0.384 N 
ATOM     39  H42 UNL     1      53.769   9.466  -7.652  1.00  0.00     0.157 HD
ATOM     40  H41 UNL     1      52.086   9.151  -8.113  1.00  0.00     0.157 HD
ENDBRANCH   6  38
BRANCH   1  41
HETATM   41  C10 UNL     1      53.832  14.498  -4.314  1.00  0.00     0.133 C 
HETATM   42  C9  UNL     1      53.155  14.603  -3.174  1.00  0.00     0.118 A 
HETATM   43  C8  UNL     1      52.405  13.634  -2.570  1.00  0.00     0.275 A 
HETATM   44  N11 UNL     1      53.052  15.685  -2.398  1.00  0.00    -0.337 N 
HETATM   45  N1  UNL     1      51.845  14.126  -1.425  1.00  0.00    -0.308 N 
HETATM   46  O1  UNL     1      52.209  12.454  -2.940  1.00  0.00    -0.266 OA
HETATM   47  C7  UNL     1      52.252  15.400  -1.327  1.00  0.00     0.104 A 
ATOM     48  H1  UNL     1      51.239  13.626  -0.775  1.00  0.00     0.170 HD
ATOM     49  H11 UNL     1      53.501  16.583  -2.576  1.00  0.00     0.167 HD
BRANCH  47  50
HETATM   50  C6  UNL     1      51.912  16.224  -0.359  1.00  0.00     0.022 C 
BRANCH  50  51
HETATM   51  C5  UNL     1      52.684  17.428  -0.072  1.00  0.00     0.031 C 
BRANCH  51  52
HETATM   52  C4  UNL     1      52.215  18.669  -0.798  1.00  0.00     0.004 C 
BRANCH  52  53
HETATM   53  C3  UNL     1      53.218  19.259  -1.730  1.00  0.00    -0.000 C 
BRANCH  53  54
HETATM   54  C2  UNL     1      54.646  19.099  -1.259  1.00  0.00    -0.005 C 
HETATM   55  C1  UNL     1      55.335  20.390  -0.971  1.00  0.00     0.005 C 
ENDBRANCH  53  54
ENDBRANCH  52  53
ENDBRANCH  51  52
ENDBRANCH  50  51
ENDBRANCH  47  50
ENDBRANCH   1  41
TORSDOF 18
ENDMDL
MODEL 2
REMARK VINA RESULT: -7.210730518      1.549      2.118
REMARK  18 active torsions:
REMARK  status: ('A' for Active; 'I' for Inactive)
REMARK    1  A    between atoms: C2_2  and  C3_3 
REMARK    2  A    between atoms: C3_3  and  C4_4 
REMARK    3  A    between atoms: C4_4  and  C5_5 
REMARK    4  A    between atoms: C5_5  and  C6_6 
REMARK    5  A    between atoms: C6_6  and  C7_7 
REMARK    6  A    between atoms: C10_13  and  N2_14 
REMARK    7  A    between atoms: C13_19  and  N4_20 
REMARK    8  A    between atoms: C14_25  and  C15_26 
REMARK    9  A    between atoms: C15_26  and  N6_27 
REMARK   10  A    between atoms: C15_26  and  N7_31 
REMARK   11  A    between atoms: N7_31  and  C16_33 
REMARK   12  A    between atoms: C16_33  and  C17_34 
REMARK   13  A    between atoms: C17_34  and  C18_35 
REMARK   14  A    between atoms: C21_38  and  O2_39 
REMARK   15  A    between atoms: C23_41  and  N8_42 
REMARK   16  A    between atoms: N8_42  and  N9_43 
REMARK   17  A    between atoms: N8_42  and  N10_46 
REMARK   18  A    between atoms: C25_50  and  O3_51 
ROOT
HETATM    1  N2  UNL     1      53.976  12.910  -3.259  1.00  0.00    -0.311 N 
HETATM    2  C11 UNL     1      55.272  12.593  -3.045  1.00  0.00     0.189 A 
HETATM    3  N3  UNL     1      55.780  11.983  -4.120  1.00  0.00    -0.347 N 
ATOM      4  H3  UNL     1      56.738  11.643  -4.212  1.00  0.00     0.167 HD
HETATM    5  C12 UNL     1      54.814  11.890  -5.066  1.00  0.00     0.107 A 
HETATM    6  C13 UNL     1      54.785  11.348  -6.329  1.00  0.00     0.129 A 
HETATM    7  N5  UNL     1      53.663  11.374  -7.059  1.00  0.00    -0.339 N 
ATOM      8  H5  UNL     1      53.668  10.964  -7.993  1.00  0.00     0.167 HD
HETATM    9  C14 UNL     1      52.543  11.921  -6.596  1.00  0.00     0.097 A 
HETATM   10  C25 UNL     1      52.559  12.484  -5.299  1.00  0.00     0.122 A 
HETATM   11  C26 UNL     1      53.684  12.483  -4.503  1.00  0.00     0.106 A 
ENDROOT
BRANCH   9  12
HETATM   12  C15 UNL     1      51.305  11.880  -7.377  1.00  0.00     0.334 C 
BRANCH  12  13
HETATM   13  N6  UNL     1      50.445  10.781  -6.876  1.00  0.00    -0.053 N 
ATOM     14  H63 UNL     1      49.778  11.101  -6.174  1.00  0.00     0.277 HD
ATOM     15  H62 UNL     1      49.777  10.463  -7.577  1.00  0.00     0.277 HD
ATOM     16  H61 UNL     1      51.035  10.022  -6.531  1.00  0.00     0.277 HD
ENDBRANCH  12  13
BRANCH  12  17
HETATM   17  N7  UNL     1      50.502  12.994  -7.582  1.00  0.00    -0.371 N 
ATOM     18  H7  UNL     1      49.546  12.981  -7.228  1.00  0.00     0.161 HD
BRANCH  17  19
HETATM   19  C16 UNL     1      50.954  14.132  -8.255  1.00  0.00     0.062 C 
BRANCH  19  20
HETATM   20  C17 UNL     1      50.093  14.678  -9.344  1.00  0.00     0.082 C 
BRANCH  20  21
HETATM   21  C18 UNL     1      50.066  16.177  -9.156  1.00  0.00    -0.051 A 
HETATM   22  C19 UNL     1      49.541  17.026 -10.078  1.00  0.00     0.010 A 
HETATM   23  C20 UNL     1      49.559  18.402  -9.823  1.00  0.00     0.040 A 
HETATM   24  C21 UNL     1      50.096  18.910  -8.660  1.00  0.00     0.098 A 
HETATM   25  C23 UNL     1      50.626  18.059  -7.722  1.00  0.00     0.107 A 
HETATM   26  C24 UNL     1      50.602  16.683  -7.993  1.00  0.00     0.043 A 
BRANCH  24  27
HETATM   27  O2  UNL     1      50.089  20.276  -8.471  1.00  0.00    -0.354 OA
HETATM   28  C22 UNL     1      50.302  21.169  -9.555  1.00  0.00     0.210 C 
ENDBRANCH  24  27
BRANCH  25  29
HETATM   29  N8  UNL     1      51.149  18.544  -6.505  1.00  0.00    -0.207 N 
BRANCH  29  30
HETATM   30  N9  UNL     1      50.998  17.718  -5.367  1.00  0.00    -0.324 N 
ATOM     31  H92 UNL     1      50.140  17.168  -5.319  1.00  0.00     0.178 HD
ATOM     32  H91 UNL     1      51.761  17.719  -4.690  1.00  0.00     0.178 HD
ENDBRANCH  29  30
BRANCH  29  33
HETATM   33  N10 UNL     1      51.778  19.762  -6.298  1.00  0.00    -0.324 N 
ATOM     34 2H10 UNL     1      52.252  20.167  -7.105  1.00  0.00     0.178 HD
ATOM     35 1H10 UNL     1      51.829  20.283  -5.423  1.00  0.00     0.178 HD
ENDBRANCH  29  33
ENDBRANCH  25  29
ENDBRANCH  20  21
ENDBRANCH  19  20
ENDBRANCH  17  19
ENDBRANCH  12  17
ENDBRANCH   9  12
BRANCH  10  36
HETATM   36  O3  UNL     1      51.397  13.048  -4.850  1.00  0.00    -0.356 OA
ATOM     37  H3  UNL     1      51.093  12.785  -3.989  1.00  0.00     0.218 HD
ENDBRANCH  10  36
BRANCH   6  38
HETATM   38  N4  UNL     1      55.846  10.810  -6.803  1.00  0.00    -0.384 N 
ATOM     39  H42 UNL     1      56.757  11.043  -6.408  1.00  0.00     0.157 HD
ATOM     40  H41 UNL     1      55.767  10.152  -7.578  1.00  0.00     0.157 HD
ENDBRANCH   6  38
BRANCH   1  41
HETATM   41  C10 UNL     1      53.084  13.532  -2.327  1.00  0.00     0.133 C 
HETATM   42  C9  UNL     1      52.950  14.855  -2.301  1.00  0.00     0.118 A 
HETATM   43  C8  UNL     1      53.590  15.763  -3.098  1.00  0.00     0.275 A 
HETATM   44  N11 UNL     1      52.179  15.569  -1.478  1.00  0.00    -0.337 N 
HETATM   45  N1  UNL     1      53.209  17.029  -2.758  1.00  0.00    -0.308 N 
HETATM   46  O1  UNL     1      54.413  15.550  -4.018  1.00  0.00    -0.266 OA
HETATM   47  C7  UNL     1      52.333  16.899  -1.751  1.00  0.00     0.104 A 
ATOM     48  H1  UNL     1      53.526  17.900  -3.184  1.00  0.00     0.170 HD
ATOM     49  H11 UNL     1      51.570  15.181  -0.757  1.00  0.00     0.167 HD
BRANCH  47  50
HETATM   50  C6  UNL     1      51.744  17.901  -1.134  1.00  0.00     0.022 C 
BRANCH  50  51
HETATM   51  C5  UNL     1      52.511  18.931  -0.442  1.00  0.00     0.031 C 
BRANCH  51  52
HETATM   52  C4  UNL     1      53.635  18.409   0.424  1.00  0.00     0.004 C 
BRANCH  52  53
HETATM   53  C3  UNL     1      55.003  18.723  -0.078  1.00  0.00    -0.000 C 
BRANCH  53  54
HETATM   54  C2  UNL     1      55.031  19.848  -1.088  1.00  0.00    -0.005 C 
HETATM   55  C1  UNL     1      55.890  20.999  -0.685  1.00  0.00     0.005 C 
ENDBRANCH  53  54
ENDBRANCH  52  53
ENDBRANCH  51  52
ENDBRANCH  50  51
ENDBRANCH  47  50
ENDBRANCH   1  41
TORSDOF 18
ENDMDL
MODEL 3
REMARK VINA RESULT: -7.107196029      2.335      8.546
REMARK  18 active torsions:
REMARK  status: ('A' for Active; 'I' for Inactive)
REMARK    1  A    between atoms: C2_2  and  C3_3 
REMARK    2  A    between atoms: C3_3  and  C4_4 
REMARK    3  A    between atoms: C4_4  and  C5_5 
REMARK    4  A    between atoms: C5_5  and  C6_6 
REMARK    5  A    between atoms: C6_6  and  C7_7 
REMARK    6  A    between atoms: C10_13  and  N2_14 
REMARK    7  A    between atoms: C13_19  and  N4_20 
REMARK    8  A    between atoms: C14_25  and  C15_26 
REMARK    9  A    between atoms: C15_26  and  N6_27 
REMARK   10  A    between atoms: C15_26  and  N7_31 
REMARK   11  A    between atoms: N7_31  and  C16_33 
REMARK   12  A    between atoms: C16_33  and  C17_34 
REMARK   13  A    between atoms: C17_34  and  C18_35 
REMARK   14  A    between atoms: C21_38  and  O2_39 
REMARK   15  A    between atoms: C23_41  and  N8_42 
REMARK   16  A    between atoms: N8_42  and  N9_43 
REMARK   17  A    between atoms: N8_42  and  N10_46 
REMARK   18  A    between atoms: C25_50  and  O3_51 
ROOT
HETATM    1  N2  UNL     1      49.674  16.313  -7.856  1.00  0.00    -0.311 N 
HETATM    2  C11 UNL     1      48.996  16.963  -8.827  1.00  0.00     0.189 A 
HETATM    3  N3  UNL     1      49.271  18.269  -8.784  1.00  0.00    -0.347 N 
ATOM      4  H3  UNL     1      48.887  18.978  -9.410  1.00  0.00     0.167 HD
HETATM    5  C12 UNL     1      50.143  18.499  -7.772  1.00  0.00     0.107 A 
HETATM    6  C13 UNL     1      50.732  19.639  -7.279  1.00  0.00     0.129 A 
HETATM    7  N5  UNL     1      51.560  19.582  -6.229  1.00  0.00    -0.339 N 
ATOM      8  H5  UNL     1      51.983  20.443  -5.882  1.00  0.00     0.167 HD
HETATM    9  C14 UNL     1      51.844  18.431  -5.627  1.00  0.00     0.097 A 
HETATM   10  C25 UNL     1      51.248  17.250  -6.125  1.00  0.00     0.122 A 
HETATM   11  C26 UNL     1      50.386  17.250  -7.201  1.00  0.00     0.106 A 
ENDROOT
BRANCH   9  12
HETATM   12  C15 UNL     1      52.696  18.393  -4.436  1.00  0.00     0.334 C 
BRANCH  12  13
HETATM   13  N6  UNL     1      51.845  18.259  -3.230  1.00  0.00    -0.053 N 
ATOM     14  H63 UNL     1      50.914  18.653  -3.367  1.00  0.00     0.277 HD
ATOM     15  H62 UNL     1      51.569  17.292  -3.057  1.00  0.00     0.277 HD
ATOM     16  H61 UNL     1      52.326  18.673  -2.430  1.00  0.00     0.277 HD
ENDBRANCH  12  13
BRANCH  12  17
HETATM   17  N7  UNL     1      53.771  17.526  -4.303  1.00  0.00    -0.371 N 
ATOM     18  H7  UNL     1      54.519  17.562  -4.995  1.00  0.00     0.161 HD
BRANCH  17  19
HETATM   19  C16 UNL     1      53.869  16.605  -3.258  1.00  0.00     0.062 C 
BRANCH  19  20
HETATM   20  C17 UNL     1      54.403  15.249  -3.578  1.00  0.00     0.082 C 
BRANCH  20  21
HETATM   21  C18 UNL     1      53.634  14.273  -2.716  1.00  0.00    -0.051 A 
HETATM   22  C19 UNL     1      52.486  14.608  -2.070  1.00  0.00     0.010 A 
HETATM   23  C20 UNL     1      51.840  13.642  -1.290  1.00  0.00     0.040 A 
HETATM   24  C21 UNL     1      52.342  12.364  -1.167  1.00  0.00     0.098 A 
HETATM   25  C23 UNL     1      53.499  12.018  -1.819  1.00  0.00     0.107 A 
HETATM   26  C24 UNL     1      54.137  12.998  -2.595  1.00  0.00     0.043 A 
BRANCH  24  27
HETATM   27  O2  UNL     1      51.661  11.460  -0.379  1.00  0.00    -0.354 OA
HETATM   28  C22 UNL     1      50.421  10.909  -0.799  1.00  0.00     0.210 C 
ENDBRANCH  24  27
BRANCH  25  29
HETATM   29  N8  UNL     1      54.019  10.709  -1.744  1.00  0.00    -0.207 N 
BRANCH  29  30
HETATM   30  N9  UNL     1      54.637  10.196  -2.908  1.00  0.00    -0.324 N 
ATOM     31  H92 UNL     1      54.373  10.635  -3.790  1.00  0.00     0.178 HD
ATOM     32  H91 UNL     1      55.311   9.441  -2.779  1.00  0.00     0.178 HD
ENDBRANCH  29  30
BRANCH  29  33
HETATM   33  N10 UNL     1      53.966   9.856  -0.652  1.00  0.00    -0.324 N 
ATOM     34 2H10 UNL     1      53.522   8.952  -0.807  1.00  0.00     0.178 HD
ATOM     35 1H10 UNL     1      54.308  10.048   0.290  1.00  0.00     0.178 HD
ENDBRANCH  29  33
ENDBRANCH  25  29
ENDBRANCH  20  21
ENDBRANCH  19  20
ENDBRANCH  17  19
ENDBRANCH  12  17
ENDBRANCH   9  12
BRANCH  10  36
HETATM   36  O3  UNL     1      51.563  16.079  -5.494  1.00  0.00    -0.356 OA
ATOM     37  H3  UNL     1      51.872  16.139  -4.598  1.00  0.00     0.218 HD
ENDBRANCH  10  36
BRANCH   6  38
HETATM   38  N4  UNL     1      50.476  20.764  -7.835  1.00  0.00    -0.384 N 
ATOM     39  H42 UNL     1      49.566  21.205  -7.703  1.00  0.00     0.157 HD
ATOM     40  H41 UNL     1      51.191  21.209  -8.411  1.00  0.00     0.157 HD
ENDBRANCH   6  38
BRANCH   1  41
HETATM   41  C10 UNL     1      49.606  14.913  -7.557  1.00  0.00     0.133 C 
HETATM   42  C9  UNL     1      50.303  14.036  -8.273  1.00  0.00     0.118 A 
HETATM   43  C8  UNL     1      51.132  14.306  -9.326  1.00  0.00     0.275 A 
HETATM   44  N11 UNL     1      50.319  12.709  -8.124  1.00  0.00    -0.337 N 
HETATM   45  N1  UNL     1      51.652  13.143  -9.818  1.00  0.00    -0.308 N 
HETATM   46  O1  UNL     1      51.423  15.417  -9.824  1.00  0.00    -0.266 OA
HETATM   47  C7  UNL     1      51.141  12.157  -9.066  1.00  0.00     0.104 A 
ATOM     48  H1  UNL     1      52.299  13.043 -10.600  1.00  0.00     0.170 HD
ATOM     49  H11 UNL     1      49.798  12.189  -7.418  1.00  0.00     0.167 HD
BRANCH  47  50
HETATM   50  C6  UNL     1      51.392  10.877  -9.236  1.00  0.00     0.022 C 
BRANCH  50  51
HETATM   51  C5  UNL     1      51.577   9.976  -8.103  1.00  0.00     0.031 C 
BRANCH  51  52
HETATM   52  C4  UNL     1      53.019   9.700  -7.742  1.00  0.00     0.004 C 
BRANCH  52  53
HETATM   53  C3  UNL     1      53.416  10.152  -6.378  1.00  0.00    -0.000 C 
BRANCH  53  54
HETATM   54  C2  UNL     1      54.019  11.538  -6.354  1.00  0.00    -0.005 C 
HETATM   55  C1  UNL     1      53.069  12.603  -5.918  1.00  0.00     0.005 C 
ENDBRANCH  53  54
ENDBRANCH  52  53
ENDBRANCH  51  52
ENDBRANCH  50  51
ENDBRANCH  47  50
ENDBRANCH   1  41
TORSDOF 18
ENDMDL
MODEL 4
REMARK VINA RESULT: -7.073497660      3.602      6.860
REMARK  18 active torsions:
REMARK  status: ('A' for Active; 'I' for Inactive)
REMARK    1  A    between atoms: C2_2  and  C3_3 
REMARK    2  A    between atoms: C3_3  and  C4_4 
REMARK    3  A    between atoms: C4_4  and  C5_5 
REMARK    4  A    between atoms: C5_5  and  C6_6 
REMARK    5  A    between atoms: C6_6  and  C7_7 
REMARK    6  A    between atoms: C10_13  and  N2_14 
REMARK    7  A    between atoms: C13_19  and  N4_20 
REMARK    8  A    between atoms: C14_25  and  C15_26 
REMARK    9  A    between atoms: C15_26  and  N6_27 
REMARK   10  A    between atoms: C15_26  and  N7_31 
REMARK   11  A    between atoms: N7_31  and  C16_33 
REMARK   12  A    between atoms: C16_33  and  C17_34 
REMARK   13  A    between atoms: C17_34  and  C18_35 
REMARK   14  A    between atoms: C21_38  and  O2_39 
REMARK   15  A    between atoms: C23_41  and  N8_42 
REMARK   16  A    between atoms: N8_42  and  N9_43 
REMARK   17  A    between atoms: N8_42  and  N10_46 
REMARK   18  A    between atoms: C25_50  and  O3_51 
ROOT
HETATM    1  N2  UNL     1      52.943  14.388  -3.705  1.00  0.00    -0.311 N 
HETATM    2  C11 UNL     1      53.638  14.832  -2.636  1.00  0.00     0.189 A 
HETATM    3  N3  UNL     1      53.692  16.167  -2.645  1.00  0.00    -0.347 N 
ATOM      4  H3  UNL     1      54.159  16.747  -1.947  1.00  0.00     0.167 HD
HETATM    5  C12 UNL     1      53.025  16.623  -3.733  1.00  0.00     0.107 A 
HETATM    6  C13 UNL     1      52.788  17.883  -4.231  1.00  0.00     0.129 A 
HETATM    7  N5  UNL     1      52.100  18.052  -5.366  1.00  0.00    -0.339 N 
ATOM      8  H5  UNL     1      51.939  18.997  -5.714  1.00  0.00     0.167 HD
HETATM    9  C14 UNL     1      51.620  17.018  -6.050  1.00  0.00     0.097 A 
HETATM   10  C25 UNL     1      51.853  15.716  -5.549  1.00  0.00     0.122 A 
HETATM   11  C26 UNL     1      52.558  15.483  -4.387  1.00  0.00     0.106 A 
ENDROOT
BRANCH   9  12
HETATM   12  C15 UNL     1      50.930  17.213  -7.327  1.00  0.00     0.334 C 
BRANCH  12  13
HETATM   13  N6  UNL     1      49.469  17.288  -7.088  1.00  0.00    -0.053 N 
ATOM     14  H63 UNL     1      49.146  16.571  -6.438  1.00  0.00     0.277 HD
ATOM     15  H62 UNL     1      49.208  18.108  -6.541  1.00  0.00     0.277 HD
ATOM     16  H61 UNL     1      48.978  17.248  -7.982  1.00  0.00     0.277 HD
ENDBRANCH  12  13
BRANCH  12  17
HETATM   17  N7  UNL     1      51.271  18.214  -8.226  1.00  0.00    -0.371 N 
ATOM     18  H7  UNL     1      52.258  18.396  -8.405  1.00  0.00     0.161 HD
BRANCH  17  19
HETATM   19  C16 UNL     1      50.314  18.983  -8.893  1.00  0.00     0.062 C 
BRANCH  19  20
HETATM   20  C17 UNL     1      50.645  20.411  -9.169  1.00  0.00     0.082 C 
BRANCH  20  21
HETATM   21  C18 UNL     1      50.434  20.619 -10.652  1.00  0.00    -0.051 A 
HETATM   22  C19 UNL     1      49.627  19.821 -11.400  1.00  0.00     0.010 A 
HETATM   23  C20 UNL     1      49.491  20.083 -12.768  1.00  0.00     0.040 A 
HETATM   24  C21 UNL     1      50.156  21.131 -13.368  1.00  0.00     0.098 A 
HETATM   25  C23 UNL     1      50.970  21.943 -12.619  1.00  0.00     0.107 A 
HETATM   26  C24 UNL     1      51.098  21.666 -11.249  1.00  0.00     0.043 A 
BRANCH  24  27
HETATM   27  O2  UNL     1      49.984  21.334 -14.721  1.00  0.00    -0.354 OA
HETATM   28  C22 UNL     1      48.753  21.816 -15.241  1.00  0.00     0.210 C 
ENDBRANCH  24  27
BRANCH  25  29
HETATM   29  N8  UNL     1      51.635  23.046 -13.195  1.00  0.00    -0.207 N 
BRANCH  29  30
HETATM   30  N9  UNL     1      51.812  24.187 -12.378  1.00  0.00    -0.324 N 
ATOM     31  H92 UNL     1      50.961  24.646 -12.053  1.00  0.00     0.178 HD
ATOM     32  H91 UNL     1      52.772  24.456 -12.160  1.00  0.00     0.178 HD
ENDBRANCH  29  30
BRANCH  29  33
HETATM   33  N10 UNL     1      52.115  23.141 -14.492  1.00  0.00    -0.324 N 
ATOM     34 2H10 UNL     1      52.077  22.289 -15.050  1.00  0.00     0.178 HD
ATOM     35 1H10 UNL     1      52.515  23.968 -14.936  1.00  0.00     0.178 HD
ENDBRANCH  29  33
ENDBRANCH  25  29
ENDBRANCH  20  21
ENDBRANCH  19  20
ENDBRANCH  17  19
ENDBRANCH  12  17
ENDBRANCH   9  12
BRANCH  10  36
HETATM   36  O3  UNL     1      51.343  14.671  -6.266  1.00  0.00    -0.356 OA
ATOM     37  H3  UNL     1      50.464  14.382  -6.046  1.00  0.00     0.218 HD
ENDBRANCH  10  36
BRANCH   6  38
HETATM   38  N4  UNL     1      53.240  18.900  -3.597  1.00  0.00    -0.384 N 
ATOM     39  H42 UNL     1      53.271  19.813  -4.050  1.00  0.00     0.157 HD
ATOM     40  H41 UNL     1      53.570  18.783  -2.639  1.00  0.00     0.157 HD
ENDBRANCH   6  38
BRANCH   1  41
HETATM   41  C10 UNL     1      52.707  13.020  -4.062  1.00  0.00     0.133 C 
HETATM   42  C9  UNL     1      53.701  12.260  -4.513  1.00  0.00     0.118 A 
HETATM   43  C8  UNL     1      55.004  12.630  -4.692  1.00  0.00     0.275 A 
HETATM   44  N11 UNL     1      53.624  10.986  -4.902  1.00  0.00    -0.337 N 
HETATM   45  N1  UNL     1      55.721  11.580  -5.192  1.00  0.00    -0.308 N 
HETATM   46  O1  UNL     1      55.540  13.738  -4.460  1.00  0.00    -0.266 OA
HETATM   47  C7  UNL     1      54.855  10.564  -5.319  1.00  0.00     0.104 A 
ATOM     48  H1  UNL     1      56.714  11.570  -5.422  1.00  0.00     0.170 HD
ATOM     49  H11 UNL     1      52.778  10.415  -4.890  1.00  0.00     0.167 HD
BRANCH  47  50
HETATM   50  C6  UNL     1      55.161   9.372  -5.785  1.00  0.00     0.022 C 
BRANCH  50  51
HETATM   51  C5  UNL     1      56.241   9.180  -6.747  1.00  0.00     0.031 C 
BRANCH  51  52
HETATM   52  C4  UNL     1      57.364   8.287  -6.268  1.00  0.00     0.004 C 
BRANCH  52  53
HETATM   53  C3  UNL     1      58.167   8.848  -5.145  1.00  0.00    -0.000 C 
BRANCH  53  54
HETATM   54  C2  UNL     1      58.932  10.098  -5.515  1.00  0.00    -0.005 C 
HETATM   55  C1  UNL     1      59.169  11.023  -4.369  1.00  0.00     0.005 C 
ENDBRANCH  53  54
ENDBRANCH  52  53
ENDBRANCH  51  52
ENDBRANCH  50  51
ENDBRANCH  47  50
ENDBRANCH   1  41
TORSDOF 18
ENDMDL
MODEL 5
REMARK VINA RESULT: -7.046742258      3.522      9.670
REMARK  18 active torsions:
REMARK  status: ('A' for Active; 'I' for Inactive)
REMARK    1  A    between atoms: C2_2  and  C3_3 
REMARK    2  A    between atoms: C3_3  and  C4_4 
REMARK    3  A    between atoms: C4_4  and  C5_5 
REMARK    4  A    between atoms: C5_5  and  C6_6 
REMARK    5  A    between atoms: C6_6  and  C7_7 
REMARK    6  A    between atoms: C10_13  and  N2_14 
REMARK    7  A    between atoms: C13_19  and  N4_20 
REMARK    8  A    between atoms: C14_25  and  C15_26 
REMARK    9  A    between atoms: C15_26  and  N6_27 
REMARK   10  A    between atoms: C15_26  and  N7_31 
REMARK   11  A    between atoms: N7_31  and  C16_33 
REMARK   12  A    between atoms: C16_33  and  C17_34 
REMARK   13  A    between atoms: C17_34  and  C18_35 
REMARK   14  A    between atoms: C21_38  and  O2_39 
REMARK   15  A    between atoms: C23_41  and  N8_42 
REMARK   16  A    between atoms: N8_42  and  N9_43 
REMARK   17  A    between atoms: N8_42  and  N10_46 
REMARK   18  A    between atoms: C25_50  and  O3_51 
ROOT
HETATM    1  N2  UNL     1      51.487  17.658  -5.687  1.00  0.00    -0.311 N 
HETATM    2  C11 UNL     1      51.782  18.900  -5.244  1.00  0.00     0.189 A 
HETATM    3  N3  UNL     1      52.719  18.840  -4.294  1.00  0.00    -0.347 N 
ATOM      4  H3  UNL     1      53.114  19.639  -3.798  1.00  0.00     0.167 HD
HETATM    5  C12 UNL     1      53.057  17.542  -4.096  1.00  0.00     0.107 A 
HETATM    6  C13 UNL     1      53.936  16.919  -3.242  1.00  0.00     0.129 A 
HETATM    7  N5  UNL     1      54.060  15.586  -3.242  1.00  0.00    -0.339 N 
ATOM      8  H5  UNL     1      54.719  15.149  -2.597  1.00  0.00     0.167 HD
HETATM    9  C14 UNL     1      53.347  14.819  -4.060  1.00  0.00     0.097 A 
HETATM   10  C25 UNL     1      52.440  15.446  -4.945  1.00  0.00     0.122 A 
HETATM   11  C26 UNL     1      52.269  16.814  -4.988  1.00  0.00     0.106 A 
ENDROOT
BRANCH   9  12
HETATM   12  C15 UNL     1      53.441  13.359  -3.999  1.00  0.00     0.334 C 
BRANCH  12  13
HETATM   13  N6  UNL     1      52.250  12.819  -3.302  1.00  0.00    -0.053 N 
ATOM     14  H63 UNL     1      52.120  13.235  -2.380  1.00  0.00     0.277 HD
ATOM     15  H62 UNL     1      51.378  13.134  -3.727  1.00  0.00     0.277 HD
ATOM     16  H61 UNL     1      52.315  11.801  -3.261  1.00  0.00     0.277 HD
ENDBRANCH  12  13
BRANCH  12  17
HETATM   17  N7  UNL     1      53.681  12.569  -5.115  1.00  0.00    -0.371 N 
ATOM     18  H7  UNL     1      52.936  12.452  -5.802  1.00  0.00     0.161 HD
BRANCH  17  19
HETATM   19  C16 UNL     1      54.903  11.929  -5.335  1.00  0.00     0.062 C 
BRANCH  19  20
HETATM   20  C17 UNL     1      54.985  10.967  -6.472  1.00  0.00     0.082 C 
BRANCH  20  21
HETATM   21  C18 UNL     1      56.195  10.099  -6.209  1.00  0.00    -0.051 A 
HETATM   22  C19 UNL     1      56.359   8.873  -6.775  1.00  0.00     0.010 A 
HETATM   23  C20 UNL     1      57.509   8.135  -6.474  1.00  0.00     0.040 A 
HETATM   24  C21 UNL     1      58.475   8.625  -5.621  1.00  0.00     0.098 A 
HETATM   25  C23 UNL     1      58.318   9.862  -5.048  1.00  0.00     0.107 A 
HETATM   26  C24 UNL     1      57.159  10.589  -5.357  1.00  0.00     0.043 A 
BRANCH  24  27
HETATM   27  O2  UNL     1      59.583   7.846  -5.361  1.00  0.00    -0.354 OA
HETATM   28  C22 UNL     1      60.050   6.896  -6.308  1.00  0.00     0.210 C 
ENDBRANCH  24  27
BRANCH  25  29
HETATM   29  N8  UNL     1      59.305  10.408  -4.200  1.00  0.00    -0.207 N 
BRANCH  29  30
HETATM   30  N9  UNL     1      59.694  11.745  -4.445  1.00  0.00    -0.324 N 
ATOM     31  H92 UNL     1      58.985  12.353  -4.856  1.00  0.00     0.178 HD
ATOM     32  H91 UNL     1      60.642  12.008  -4.178  1.00  0.00     0.178 HD
ENDBRANCH  29  30
BRANCH  29  33
HETATM   33  N10 UNL     1      59.956   9.761  -3.161  1.00  0.00    -0.324 N 
ATOM     34 2H10 UNL     1      60.362   8.852  -3.381  1.00  0.00     0.178 HD
ATOM     35 1H10 UNL     1      60.054  10.092  -2.202  1.00  0.00     0.178 HD
ENDBRANCH  29  33
ENDBRANCH  25  29
ENDBRANCH  20  21
ENDBRANCH  19  20
ENDBRANCH  17  19
ENDBRANCH  12  17
ENDBRANCH   9  12
BRANCH  10  36
HETATM   36  O3  UNL     1      51.724  14.636  -5.782  1.00  0.00    -0.356 OA
ATOM     37  H3  UNL     1      50.819  14.466  -5.550  1.00  0.00     0.218 HD
ENDBRANCH  10  36
BRANCH   6  38
HETATM   38  N4  UNL     1      54.636  17.629  -2.439  1.00  0.00    -0.384 N 
ATOM     39  H42 UNL     1      55.278  18.332  -2.805  1.00  0.00     0.157 HD
ATOM     40  H41 UNL     1      54.544  17.480  -1.434  1.00  0.00     0.157 HD
ENDBRANCH   6  38
BRANCH   1  41
HETATM   41  C10 UNL     1      50.503  17.313  -6.669  1.00  0.00     0.133 C 
HETATM   42  C9  UNL     1      50.424  17.989  -7.811  1.00  0.00     0.118 A 
HETATM   43  C8  UNL     1      51.207  19.039  -8.202  1.00  0.00     0.275 A 
HETATM   44  N11 UNL     1      49.549  17.795  -8.801  1.00  0.00    -0.337 N 
HETATM   45  N1  UNL     1      50.807  19.484  -9.430  1.00  0.00    -0.308 N 
HETATM   46  O1  UNL     1      52.161  19.571  -7.590  1.00  0.00    -0.266 OA
HETATM   47  C7  UNL     1      49.777  18.706  -9.793  1.00  0.00     0.104 A 
ATOM     48  H1  UNL     1      51.211  20.253  -9.964  1.00  0.00     0.170 HD
ATOM     49  H11 UNL     1      48.823  17.078  -8.814  1.00  0.00     0.167 HD
BRANCH  47  50
HETATM   50  C6  UNL     1      49.105  18.828 -10.917  1.00  0.00     0.022 C 
BRANCH  50  51
HETATM   51  C5  UNL     1      48.989  20.110 -11.605  1.00  0.00     0.031 C 
BRANCH  51  52
HETATM   52  C4  UNL     1      49.400  20.087 -13.061  1.00  0.00     0.004 C 
BRANCH  52  53
HETATM   53  C3  UNL     1      50.238  21.243 -13.488  1.00  0.00    -0.000 C 
BRANCH  53  54
HETATM   54  C2  UNL     1      51.120  21.787 -12.387  1.00  0.00    -0.005 C 
HETATM   55  C1  UNL     1      52.035  22.879 -12.831  1.00  0.00     0.005 C 
ENDBRANCH  53  54
ENDBRANCH  52  53
ENDBRANCH  51  52
ENDBRANCH  50  51
ENDBRANCH  47  50
ENDBRANCH   1  41
TORSDOF 18
ENDMDL
