MODEL 1
REMARK VINA RESULT: -7.957459102      0.000      0.000
REMARK  18 active torsions:
REMARK  status: ('A' for Active; 'I' for Inactive)
REMARK    1  A    between atoms: N1_1  and  C1_4 
REMARK    2  A    between atoms: C2_7  and  N3_8 
REMARK    3  A    between atoms: N3_8  and  C3_10 
REMARK    4  A    between atoms: C9_16  and  N4_17 
REMARK    5  A    between atoms: N4_17  and  C10_19 
REMARK    6  A    between atoms: N7_28  and  C14_29 
REMARK    7  A    between atoms: C16_31  and  C17_32 
REMARK    8  A    between atoms: C17_32  and  N8_33 
REMARK    9  A    between atoms: N8_33  and  C18_35 
REMARK   10  A    between atoms: C18_35  and  C19_36 
REMARK   11  A    between atoms: C19_36  and  C20_37 
REMARK   12  A    between atoms: C20_37  and  C21_38 
REMARK   13  A    between atoms: C21_38  and  C22_39 
REMARK   14  A    between atoms: C22_39  and  C23_40 
REMARK   15  A    between atoms: C23_40  and  C24_41 
REMARK   16  A    between atoms: C24_41  and  N9_42 
REMARK   17  A    between atoms: C24_41  and  N10_46 
REMARK   18  A    between atoms: N11_50  and  N12_52 
ROOT
HETATM    1  C1  UNL     1      51.448  19.098  -6.269  1.00  0.00     0.679 A 
HETATM    2  N2  UNL     1      52.399  19.257  -5.322  1.00  0.00    -0.176 N 
ATOM      3  H2  UNL     1      52.707  20.191  -5.053  1.00  0.00     0.186 HD
HETATM    4  C2  UNL     1      52.930  18.182  -4.744  1.00  0.00     0.135 A 
HETATM    5  C8  UNL     1      52.497  16.905  -5.124  1.00  0.00     0.099 A 
HETATM    6  C9  UNL     1      52.852  15.650  -4.716  1.00  0.00     0.135 A 
HETATM    7  N6  UNL     1      52.108  14.808  -5.427  1.00  0.00    -0.279 N 
ATOM      8  H6  UNL     1      52.153  13.793  -5.339  1.00  0.00     0.189 HD
HETATM    9  N7  UNL     1      51.300  15.443  -6.263  1.00  0.00    -0.244 N 
HETATM   10  C25 UNL     1      51.524  16.764  -6.094  1.00  0.00     0.158 A 
HETATM   11  N13 UNL     1      51.003  17.875  -6.662  1.00  0.00    -0.174 N 
ATOM     12  H13 UNL     1      50.282  17.795  -7.380  1.00  0.00     0.186 HD
ENDROOT
BRANCH   9  13
HETATM   13  C14 UNL     1      50.342  14.914  -7.191  1.00  0.00     0.249 C 
HETATM   14  C15 UNL     1      50.279  13.427  -7.180  1.00  0.00     0.089 C 
HETATM   15  C16 UNL     1      48.790  13.735  -7.388  1.00  0.00     0.146 C 
HETATM   16  O1  UNL     1      49.020  14.936  -6.757  1.00  0.00    -0.358 OA
BRANCH  15  17
HETATM   17  C17 UNL     1      48.534  13.848  -8.888  1.00  0.00     0.153 C 
BRANCH  17  18
HETATM   18  N8  UNL     1      47.395  14.642  -9.178  1.00  0.00    -0.376 N 
ATOM     19  H8  UNL     1      46.536  14.168  -9.455  1.00  0.00     0.160 HD
BRANCH  18  20
HETATM   20  C18 UNL     1      47.385  16.055  -9.105  1.00  0.00     0.091 C 
HETATM   21  N11 UNL     1      46.835  16.752  -8.176  1.00  0.00    -0.296 N 
ATOM     22  H11 UNL     1      46.908  17.767  -8.256  1.00  0.00     0.187 HD
BRANCH  20  23
HETATM   23  C19 UNL     1      48.012  16.861 -10.204  1.00  0.00     0.077 C 
BRANCH  23  24
HETATM   24  C20 UNL     1      49.274  17.546  -9.884  1.00  0.00     0.007 C 
BRANCH  24  25
HETATM   25  C21 UNL     1      49.296  19.016  -9.750  1.00  0.00     0.001 C 
BRANCH  25  26
HETATM   26  C22 UNL     1      49.836  19.824 -10.863  1.00  0.00     0.004 C 
BRANCH  26  27
HETATM   27  C23 UNL     1      51.039  20.670 -10.389  1.00  0.00     0.062 C 
BRANCH  27  28
HETATM   28  C24 UNL     1      51.059  21.886 -11.269  1.00  0.00     0.378 C 
BRANCH  28  29
HETATM   29  N9  UNL     1      50.915  21.569 -12.667  1.00  0.00    -0.051 N 
ATOM     30  H93 UNL     1      51.137  22.377 -13.248  1.00  0.00     0.276 HD
ATOM     31  H92 UNL     1      51.651  20.935 -12.975  1.00  0.00     0.276 HD
ATOM     32  H91 UNL     1      49.994  21.196 -12.897  1.00  0.00     0.276 HD
ENDBRANCH  28  29
BRANCH  28  33
HETATM   33  N10 UNL     1      50.039  22.798 -10.807  1.00  0.00    -0.051 N 
ATOM     34 3H10 UNL     1      50.269  23.221  -9.907  1.00  0.00     0.276 HD
ATOM     35 2H10 UNL     1      50.000  23.655 -11.357  1.00  0.00     0.276 HD
ATOM     36 1H10 UNL     1      49.149  22.301 -10.791  1.00  0.00     0.276 HD
ENDBRANCH  28  33
ENDBRANCH  27  28
ENDBRANCH  26  27
ENDBRANCH  25  26
ENDBRANCH  24  25
ENDBRANCH  23  24
ENDBRANCH  20  23
BRANCH  21  37
HETATM   37  N12 UNL     1      46.156  16.262  -7.083  1.00  0.00    -0.344 N 
ATOM     38 2H12 UNL     1      46.573  15.447  -6.632  1.00  0.00     0.176 HD
ATOM     39 1H12 UNL     1      45.291  16.635  -6.692  1.00  0.00     0.176 HD
ENDBRANCH  21  37
ENDBRANCH  18  20
ENDBRANCH  17  18
ENDBRANCH  15  17
ENDBRANCH   9  13
BRANCH   6  40
HETATM   40  N4  UNL     1      53.745  15.435  -3.810  1.00  0.00    -0.347 N 
ATOM     41  H4  UNL     1      54.676  15.830  -3.937  1.00  0.00     0.163 HD
BRANCH  40  42
HETATM   42  C10 UNL     1      53.482  14.666  -2.635  1.00  0.00     0.285 C 
HETATM   43  C11 UNL     1      53.663  13.165  -2.885  1.00  0.00     0.056 C 
HETATM   44  C12 UNL     1      53.022  12.590  -1.637  1.00  0.00     0.031 C 
HETATM   45  C13 UNL     1      52.106  13.699  -1.129  1.00  0.00     0.235 C 
HETATM   46  N5  UNL     1      52.100  14.705  -2.202  1.00  0.00    -0.054 N 
ATOM     47  H52 UNL     1      51.751  15.626  -1.936  1.00  0.00     0.279 HD
ATOM     48  H51 UNL     1      51.407  14.555  -2.937  1.00  0.00     0.279 HD
ENDBRANCH  40  42
ENDBRANCH   6  40
BRANCH   4  49
HETATM   49  N3  UNL     1      53.821  18.286  -3.843  1.00  0.00    -0.370 N 
ATOM     50  H3  UNL     1      54.745  17.902  -4.041  1.00  0.00     0.161 HD
BRANCH  49  51
HETATM   51  C3  UNL     1      53.615  18.903  -2.574  1.00  0.00     0.083 C 
HETATM   52  C4  UNL     1      54.779  18.688  -1.626  1.00  0.00     0.025 C 
HETATM   53  C5  UNL     1      54.193  18.928  -0.262  1.00  0.00     0.002 C 
HETATM   54  C6  UNL     1      52.742  18.560  -0.333  1.00  0.00     0.002 C 
HETATM   55  C7  UNL     1      52.474  18.281  -1.795  1.00  0.00     0.025 C 
ENDBRANCH  49  51
ENDBRANCH   4  49
BRANCH   1  56
HETATM   56  N1  UNL     1      50.954  20.164  -6.810  1.00  0.00    -0.234 N 
ATOM     57  H12 UNL     1      51.017  20.293  -7.820  1.00  0.00     0.174 HD
ATOM     58  H11 UNL     1      50.512  20.847  -6.195  1.00  0.00     0.174 HD
ENDBRANCH   1  56
TORSDOF 18
ENDMDL
MODEL 2
REMARK VINA RESULT: -7.848083705      1.399      1.901
REMARK  18 active torsions:
REMARK  status: ('A' for Active; 'I' for Inactive)
REMARK    1  A    between atoms: N1_1  and  C1_4 
REMARK    2  A    between atoms: C2_7  and  N3_8 
REMARK    3  A    between atoms: N3_8  and  C3_10 
REMARK    4  A    between atoms: C9_16  and  N4_17 
REMARK    5  A    between atoms: N4_17  and  C10_19 
REMARK    6  A    between atoms: N7_28  and  C14_29 
REMARK    7  A    between atoms: C16_31  and  C17_32 
REMARK    8  A    between atoms: C17_32  and  N8_33 
REMARK    9  A    between atoms: N8_33  and  C18_35 
REMARK   10  A    between atoms: C18_35  and  C19_36 
REMARK   11  A    between atoms: C19_36  and  C20_37 
REMARK   12  A    between atoms: C20_37  and  C21_38 
REMARK   13  A    between atoms: C21_38  and  C22_39 
REMARK   14  A    between atoms: C22_39  and  C23_40 
REMARK   15  A    between atoms: C23_40  and  C24_41 
REMARK   16  A    between atoms: C24_41  and  N9_42 
REMARK   17  A    between atoms: C24_41  and  N10_46 
REMARK   18  A    between atoms: N11_50  and  N12_52 
ROOT
HETATM    1  C1  UNL     1      51.132  19.304  -6.630  1.00  0.00     0.679 A 
HETATM    2  N2  UNL     1      52.077  19.376  -5.668  1.00  0.00    -0.176 N 
ATOM      3  H2  UNL     1      52.448  20.280  -5.376  1.00  0.00     0.186 HD
HETATM    4  C2  UNL     1      52.521  18.254  -5.103  1.00  0.00     0.135 A 
HETATM    5  C8  UNL     1      52.003  17.020  -5.515  1.00  0.00     0.099 A 
HETATM    6  C9  UNL     1      52.262  15.735  -5.128  1.00  0.00     0.135 A 
HETATM    7  N6  UNL     1      51.469  14.962  -5.866  1.00  0.00    -0.279 N 
ATOM      8  H6  UNL     1      51.440  13.945  -5.798  1.00  0.00     0.189 HD
HETATM    9  N7  UNL     1      50.722  15.670  -6.699  1.00  0.00    -0.244 N 
HETATM   10  C25 UNL     1      51.037  16.968  -6.501  1.00  0.00     0.158 A 
HETATM   11  N13 UNL     1      50.606  18.124  -7.054  1.00  0.00    -0.174 N 
ATOM     12  H13 UNL     1      49.892  18.110  -7.782  1.00  0.00     0.186 HD
ENDROOT
BRANCH   9  13
HETATM   13  C14 UNL     1      49.742  15.229  -7.651  1.00  0.00     0.249 C 
HETATM   14  C15 UNL     1      48.346  15.544  -7.240  1.00  0.00     0.089 C 
HETATM   15  C16 UNL     1      48.219  15.784  -8.751  1.00  0.00     0.146 C 
HETATM   16  O1  UNL     1      49.567  16.063  -8.752  1.00  0.00    -0.358 OA
BRANCH  15  17
HETATM   17  C17 UNL     1      47.846  14.460  -9.412  1.00  0.00     0.153 C 
BRANCH  17  18
HETATM   18  N8  UNL     1      47.718  14.582 -10.819  1.00  0.00    -0.376 N 
ATOM     19  H8  UNL     1      46.970  14.066 -11.280  1.00  0.00     0.160 HD
BRANCH  18  20
HETATM   20  C18 UNL     1      48.571  15.380 -11.618  1.00  0.00     0.091 C 
HETATM   21  N11 UNL     1      49.836  15.203 -11.770  1.00  0.00    -0.296 N 
ATOM     22  H11 UNL     1      50.323  15.860 -12.380  1.00  0.00     0.187 HD
BRANCH  20  23
HETATM   23  C19 UNL     1      48.017  16.577 -12.332  1.00  0.00     0.077 C 
BRANCH  23  24
HETATM   24  C20 UNL     1      48.771  17.834 -12.200  1.00  0.00     0.007 C 
BRANCH  24  25
HETATM   25  C21 UNL     1      48.588  18.675 -11.001  1.00  0.00     0.001 C 
BRANCH  25  26
HETATM   26  C22 UNL     1      49.694  19.558 -10.575  1.00  0.00     0.004 C 
BRANCH  26  27
HETATM   27  C23 UNL     1      50.194  20.414 -11.761  1.00  0.00     0.062 C 
BRANCH  27  28
HETATM   28  C24 UNL     1      51.042  21.496 -11.157  1.00  0.00     0.378 C 
BRANCH  28  29
HETATM   29  N9  UNL     1      51.736  22.282 -12.144  1.00  0.00    -0.051 N 
ATOM     30  H93 UNL     1      52.597  21.821 -12.438  1.00  0.00     0.276 HD
ATOM     31  H92 UNL     1      51.234  22.278 -13.032  1.00  0.00     0.276 HD
ATOM     32  H91 UNL     1      51.920  23.237 -11.835  1.00  0.00     0.276 HD
ENDBRANCH  28  29
BRANCH  28  33
HETATM   33  N10 UNL     1      50.204  22.305 -10.303  1.00  0.00    -0.051 N 
ATOM     34 3H10 UNL     1      49.235  22.336 -10.619  1.00  0.00     0.276 HD
ATOM     35 2H10 UNL     1      50.040  21.876  -9.393  1.00  0.00     0.276 HD
ATOM     36 1H10 UNL     1      50.623  23.232 -10.230  1.00  0.00     0.276 HD
ENDBRANCH  28  33
ENDBRANCH  27  28
ENDBRANCH  26  27
ENDBRANCH  25  26
ENDBRANCH  24  25
ENDBRANCH  23  24
ENDBRANCH  20  23
BRANCH  21  37
HETATM   37  N12 UNL     1      50.595  14.212 -11.190  1.00  0.00    -0.344 N 
ATOM     38 2H12 UNL     1      50.272  13.257 -11.348  1.00  0.00     0.176 HD
ATOM     39 1H12 UNL     1      51.435  14.345 -10.629  1.00  0.00     0.176 HD
ENDBRANCH  21  37
ENDBRANCH  18  20
ENDBRANCH  17  18
ENDBRANCH  15  17
ENDBRANCH   9  13
BRANCH   6  40
HETATM   40  N4  UNL     1      53.122  15.439  -4.214  1.00  0.00    -0.347 N 
ATOM     41  H4  UNL     1      53.864  16.107  -4.005  1.00  0.00     0.163 HD
BRANCH  40  42
HETATM   42  C10 UNL     1      53.081  14.213  -3.482  1.00  0.00     0.285 C 
HETATM   43  C11 UNL     1      52.554  14.418  -2.058  1.00  0.00     0.056 C 
HETATM   44  C12 UNL     1      52.920  13.089  -1.426  1.00  0.00     0.031 C 
HETATM   45  C13 UNL     1      54.036  12.538  -2.307  1.00  0.00     0.235 C 
HETATM   46  N5  UNL     1      54.387  13.645  -3.209  1.00  0.00    -0.054 N 
ATOM     47  H52 UNL     1      54.930  13.383  -4.032  1.00  0.00     0.279 HD
ATOM     48  H51 UNL     1      55.081  14.300  -2.848  1.00  0.00     0.279 HD
ENDBRANCH  40  42
ENDBRANCH   6  40
BRANCH   4  49
HETATM   49  N3  UNL     1      53.404  18.277  -4.189  1.00  0.00    -0.370 N 
ATOM     50  H3  UNL     1      54.278  17.781  -4.359  1.00  0.00     0.161 HD
BRANCH  49  51
HETATM   51  C3  UNL     1      53.253  18.949  -2.941  1.00  0.00     0.083 C 
HETATM   52  C4  UNL     1      54.583  19.258  -2.281  1.00  0.00     0.025 C 
HETATM   53  C5  UNL     1      54.237  19.465  -0.832  1.00  0.00     0.002 C 
HETATM   54  C6  UNL     1      53.027  18.630  -0.543  1.00  0.00     0.002 C 
HETATM   55  C7  UNL     1      52.586  18.091  -1.886  1.00  0.00     0.025 C 
ENDBRANCH  49  51
ENDBRANCH   4  49
BRANCH   1  56
HETATM   56  N1  UNL     1      50.724  20.413  -7.156  1.00  0.00    -0.234 N 
ATOM     57  H12 UNL     1      51.312  21.244  -7.102  1.00  0.00     0.174 HD
ATOM     58  H11 UNL     1      49.813  20.413  -7.614  1.00  0.00     0.174 HD
ENDBRANCH   1  56
TORSDOF 18
ENDMDL
MODEL 3
REMARK VINA RESULT: -7.809256778      1.993      7.969
REMARK  18 active torsions:
REMARK  status: ('A' for Active; 'I' for Inactive)
REMARK    1  A    between atoms: N1_1  and  C1_4 
REMARK    2  A    between atoms: C2_7  and  N3_8 
REMARK    3  A    between atoms: N3_8  and  C3_10 
REMARK    4  A    between atoms: C9_16  and  N4_17 
REMARK    5  A    between atoms: N4_17  and  C10_19 
REMARK    6  A    between atoms: N7_28  and  C14_29 
REMARK    7  A    between atoms: C16_31  and  C17_32 
REMARK    8  A    between atoms: C17_32  and  N8_33 
REMARK    9  A    between atoms: N8_33  and  C18_35 
REMARK   10  A    between atoms: C18_35  and  C19_36 
REMARK   11  A    between atoms: C19_36  and  C20_37 
REMARK   12  A    between atoms: C20_37  and  C21_38 
REMARK   13  A    between atoms: C21_38  and  C22_39 
REMARK   14  A    between atoms: C22_39  and  C23_40 
REMARK   15  A    between atoms: C23_40  and  C24_41 
REMARK   16  A    between atoms: C24_41  and  N9_42 
REMARK   17  A    between atoms: C24_41  and  N10_46 
REMARK   18  A    between atoms: N11_50  and  N12_52 
ROOT
HETATM    1  C1  UNL     1      52.152  18.545  -5.321  1.00  0.00     0.679 A 
HETATM    2  N2  UNL     1      51.452  19.236  -6.247  1.00  0.00    -0.176 N 
ATOM      3  H2  UNL     1      51.490  20.254  -6.267  1.00  0.00     0.186 HD
HETATM    4  C2  UNL     1      50.712  18.572  -7.134  1.00  0.00     0.135 A 
HETATM    5  C8  UNL     1      50.671  17.173  -7.093  1.00  0.00     0.099 A 
HETATM    6  C9  UNL     1      50.014  16.246  -7.854  1.00  0.00     0.135 A 
HETATM    7  N6  UNL     1      50.348  15.059  -7.356  1.00  0.00    -0.279 N 
ATOM      8  H6  UNL     1      50.008  14.171  -7.723  1.00  0.00     0.189 HD
HETATM    9  N7  UNL     1      51.174  15.167  -6.326  1.00  0.00    -0.244 N 
HETATM   10  C25 UNL     1      51.393  16.486  -6.138  1.00  0.00     0.158 A 
HETATM   11  N13 UNL     1      52.136  17.187  -5.252  1.00  0.00    -0.174 N 
ATOM     12  H13 UNL     1      52.679  16.701  -4.539  1.00  0.00     0.186 HD
ENDROOT
BRANCH   9  13
HETATM   13  C14 UNL     1      51.770  14.141  -5.519  1.00  0.00     0.249 C 
HETATM   14  C15 UNL     1      52.328  13.018  -6.321  1.00  0.00     0.089 C 
HETATM   15  C16 UNL     1      53.393  13.085  -5.217  1.00  0.00     0.146 C 
HETATM   16  O1  UNL     1      53.060  14.413  -5.072  1.00  0.00    -0.358 OA
BRANCH  15  17
HETATM   17  C17 UNL     1      52.941  12.189  -4.068  1.00  0.00     0.153 C 
BRANCH  17  18
HETATM   18  N8  UNL     1      53.507  12.584  -2.829  1.00  0.00    -0.376 N 
ATOM     19  H8  UNL     1      54.505  12.791  -2.799  1.00  0.00     0.160 HD
BRANCH  18  20
HETATM   20  C18 UNL     1      52.763  12.706  -1.631  1.00  0.00     0.091 C 
HETATM   21  N11 UNL     1      52.743  11.850  -0.672  1.00  0.00    -0.296 N 
ATOM     22  H11 UNL     1      52.158  12.073   0.134  1.00  0.00     0.187 HD
BRANCH  20  23
HETATM   23  C19 UNL     1      51.866  13.891  -1.430  1.00  0.00     0.077 C 
BRANCH  23  24
HETATM   24  C20 UNL     1      52.474  15.219  -1.606  1.00  0.00     0.007 C 
BRANCH  24  25
HETATM   25  C21 UNL     1      52.094  16.325  -0.706  1.00  0.00     0.001 C 
BRANCH  25  26
HETATM   26  C22 UNL     1      52.313  17.715  -1.155  1.00  0.00     0.004 C 
BRANCH  26  27
HETATM   27  C23 UNL     1      53.050  18.529  -0.067  1.00  0.00     0.062 C 
BRANCH  27  28
HETATM   28  C24 UNL     1      54.151  19.261  -0.777  1.00  0.00     0.378 C 
BRANCH  28  29
HETATM   29  N9  UNL     1      54.868  18.431  -1.710  1.00  0.00    -0.051 N 
ATOM     30  H93 UNL     1      54.519  17.472  -1.688  1.00  0.00     0.276 HD
ATOM     31  H92 UNL     1      54.628  18.672  -2.672  1.00  0.00     0.276 HD
ATOM     32  H91 UNL     1      55.878  18.454  -1.570  1.00  0.00     0.276 HD
ENDBRANCH  28  29
BRANCH  28  33
HETATM   33  N10 UNL     1      53.585  20.430  -1.409  1.00  0.00    -0.051 N 
ATOM     34 3H10 UNL     1      54.063  20.679  -2.275  1.00  0.00     0.276 HD
ATOM     35 2H10 UNL     1      52.662  20.254  -1.807  1.00  0.00     0.276 HD
ATOM     36 1H10 UNL     1      53.580  21.191  -0.730  1.00  0.00     0.276 HD
ENDBRANCH  28  33
ENDBRANCH  27  28
ENDBRANCH  26  27
ENDBRANCH  25  26
ENDBRANCH  24  25
ENDBRANCH  23  24
ENDBRANCH  20  23
BRANCH  21  37
HETATM   37  N12 UNL     1      53.436  10.661  -0.627  1.00  0.00    -0.344 N 
ATOM     38 2H12 UNL     1      53.119   9.939  -1.275  1.00  0.00     0.176 HD
ATOM     39 1H12 UNL     1      54.222  10.443  -0.016  1.00  0.00     0.176 HD
ENDBRANCH  21  37
ENDBRANCH  18  20
ENDBRANCH  17  18
ENDBRANCH  15  17
ENDBRANCH   9  13
BRANCH   6  40
HETATM   40  N4  UNL     1      49.248  16.567  -8.841  1.00  0.00    -0.347 N 
ATOM     41  H4  UNL     1      49.675  16.930  -9.693  1.00  0.00     0.163 HD
BRANCH  40  42
HETATM   42  C10 UNL     1      47.827  16.434  -8.791  1.00  0.00     0.285 C 
HETATM   43  C11 UNL     1      47.122  17.581  -9.521  1.00  0.00     0.056 C 
HETATM   44  C12 UNL     1      45.696  17.388  -9.044  1.00  0.00     0.031 C 
HETATM   45  C13 UNL     1      45.828  16.585  -7.754  1.00  0.00     0.235 C 
HETATM   46  N5  UNL     1      47.269  16.574  -7.461  1.00  0.00    -0.054 N 
ATOM     47  H52 UNL     1      47.572  15.874  -6.784  1.00  0.00     0.279 HD
ATOM     48  H51 UNL     1      47.612  17.372  -6.925  1.00  0.00     0.279 HD
ENDBRANCH  40  42
ENDBRANCH   6  40
BRANCH   4  49
HETATM   49  N3  UNL     1      50.044  19.182  -8.028  1.00  0.00    -0.370 N 
ATOM     50  H3  UNL     1      49.027  19.149  -7.967  1.00  0.00     0.161 HD
BRANCH  49  51
HETATM   51  C3  UNL     1      50.623  19.909  -9.109  1.00  0.00     0.083 C 
HETATM   52  C4  UNL     1      50.247  21.378  -9.091  1.00  0.00     0.025 C 
HETATM   53  C5  UNL     1      50.486  21.837 -10.502  1.00  0.00     0.002 C 
HETATM   54  C6  UNL     1      50.273  20.653 -11.395  1.00  0.00     0.002 C 
HETATM   55  C7  UNL     1      50.089  19.479 -10.460  1.00  0.00     0.025 C 
ENDBRANCH  49  51
ENDBRANCH   4  49
BRANCH   1  56
HETATM   56  N1  UNL     1      52.860  19.221  -4.475  1.00  0.00    -0.234 N 
ATOM     57  H12 UNL     1      52.512  19.366  -3.528  1.00  0.00     0.174 HD
ATOM     58  H11 UNL     1      53.756  19.589  -4.794  1.00  0.00     0.174 HD
ENDBRANCH   1  56
TORSDOF 18
ENDMDL
MODEL 4
REMARK VINA RESULT: -7.777785498      0.879      1.118
REMARK  18 active torsions:
REMARK  status: ('A' for Active; 'I' for Inactive)
REMARK    1  A    between atoms: N1_1  and  C1_4 
REMARK    2  A    between atoms: C2_7  and  N3_8 
REMARK    3  A    between atoms: N3_8  and  C3_10 
REMARK    4  A    between atoms: C9_16  and  N4_17 
REMARK    5  A    between atoms: N4_17  and  C10_19 
REMARK    6  A    between atoms: N7_28  and  C14_29 
REMARK    7  A    between atoms: C16_31  and  C17_32 
REMARK    8  A    between atoms: C17_32  and  N8_33 
REMARK    9  A    between atoms: N8_33  and  C18_35 
REMARK   10  A    between atoms: C18_35  and  C19_36 
REMARK   11  A    between atoms: C19_36  and  C20_37 
REMARK   12  A    between atoms: C20_37  and  C21_38 
REMARK   13  A    between atoms: C21_38  and  C22_39 
REMARK   14  A    between atoms: C22_39  and  C23_40 
REMARK   15  A    between atoms: C23_40  and  C24_41 
REMARK   16  A    between atoms: C24_41  and  N9_42 
REMARK   17  A    between atoms: C24_41  and  N10_46 
REMARK   18  A    between atoms: N11_50  and  N12_52 
ROOT
HETATM    1  C1  UNL     1      51.426  19.009  -6.283  1.00  0.00     0.679 A 
HETATM    2  N2  UNL     1      52.285  19.023  -5.240  1.00  0.00    -0.176 N 
ATOM      3  H2  UNL     1      52.625  19.908  -4.865  1.00  0.00     0.186 HD
HETATM    4  C2  UNL     1      52.683  17.869  -4.706  1.00  0.00     0.135 A 
HETATM    5  C8  UNL     1      52.206  16.661  -5.232  1.00  0.00     0.099 A 
HETATM    6  C9  UNL     1      52.436  15.356  -4.900  1.00  0.00     0.135 A 
HETATM    7  N6  UNL     1      51.713  14.629  -5.747  1.00  0.00    -0.279 N 
ATOM      8  H6  UNL     1      51.682  13.610  -5.741  1.00  0.00     0.189 HD
HETATM    9  N7  UNL     1      51.037  15.385  -6.599  1.00  0.00    -0.244 N 
HETATM   10  C25 UNL     1      51.330  16.668  -6.299  1.00  0.00     0.158 A 
HETATM   11  N13 UNL     1      50.943  17.855  -6.819  1.00  0.00    -0.174 N 
ATOM     12  H13 UNL     1      50.295  17.885  -7.606  1.00  0.00     0.186 HD
ENDROOT
BRANCH   9  13
HETATM   13  C14 UNL     1      50.145  15.001  -7.656  1.00  0.00     0.249 C 
HETATM   14  C15 UNL     1      49.787  13.557  -7.621  1.00  0.00     0.089 C 
HETATM   15  C16 UNL     1      48.438  14.135  -8.071  1.00  0.00     0.146 C 
HETATM   16  O1  UNL     1      48.804  15.301  -7.438  1.00  0.00    -0.358 OA
BRANCH  15  17
HETATM   17  C17 UNL     1      48.440  14.215  -9.595  1.00  0.00     0.153 C 
BRANCH  17  18
HETATM   18  N8  UNL     1      47.604  15.254 -10.077  1.00  0.00    -0.376 N 
ATOM     19  H8  UNL     1      46.763  14.996 -10.592  1.00  0.00     0.160 HD
BRANCH  18  20
HETATM   20  C18 UNL     1      47.873  16.630  -9.884  1.00  0.00     0.091 C 
HETATM   21  N11 UNL     1      47.257  17.405  -9.063  1.00  0.00    -0.296 N 
ATOM     22  H11 UNL     1      47.561  18.379  -9.032  1.00  0.00     0.187 HD
BRANCH  20  23
HETATM   23  C19 UNL     1      48.923  17.307 -10.715  1.00  0.00     0.077 C 
BRANCH  23  24
HETATM   24  C20 UNL     1      49.600  18.465 -10.111  1.00  0.00     0.007 C 
BRANCH  24  25
HETATM   25  C21 UNL     1      49.615  19.758 -10.822  1.00  0.00     0.001 C 
BRANCH  25  26
HETATM   26  C22 UNL     1      50.671  20.738 -10.494  1.00  0.00     0.004 C 
BRANCH  26  27
HETATM   27  C23 UNL     1      51.096  21.524 -11.755  1.00  0.00     0.062 C 
BRANCH  27  28
HETATM   28  C24 UNL     1      50.557  22.913 -11.575  1.00  0.00     0.378 C 
BRANCH  28  29
HETATM   29  N9  UNL     1      51.385  23.921 -12.186  1.00  0.00    -0.051 N 
ATOM     30  H93 UNL     1      52.003  24.351 -11.498  1.00  0.00     0.276 HD
ATOM     31  H92 UNL     1      52.084  23.497 -12.795  1.00  0.00     0.276 HD
ATOM     32  H91 UNL     1      50.847  24.629 -12.686  1.00  0.00     0.276 HD
ENDBRANCH  28  29
BRANCH  28  33
HETATM   33  N10 UNL     1      49.202  22.943 -12.074  1.00  0.00    -0.051 N 
ATOM     34 3H10 UNL     1      48.672  23.743 -11.726  1.00  0.00     0.276 HD
ATOM     35 2H10 UNL     1      49.154  23.167 -13.068  1.00  0.00     0.276 HD
ATOM     36 1H10 UNL     1      48.759  22.052 -11.851  1.00  0.00     0.276 HD
ENDBRANCH  28  33
ENDBRANCH  27  28
ENDBRANCH  26  27
ENDBRANCH  25  26
ENDBRANCH  24  25
ENDBRANCH  23  24
ENDBRANCH  20  23
BRANCH  21  37
HETATM   37  N12 UNL     1      46.228  17.048  -8.223  1.00  0.00    -0.344 N 
ATOM     38 2H12 UNL     1      45.289  17.277  -8.550  1.00  0.00     0.176 HD
ATOM     39 1H12 UNL     1      46.319  16.582  -7.320  1.00  0.00     0.176 HD
ENDBRANCH  21  37
ENDBRANCH  18  20
ENDBRANCH  17  18
ENDBRANCH  15  17
ENDBRANCH   9  13
BRANCH   6  40
HETATM   40  N4  UNL     1      53.215  15.006  -3.934  1.00  0.00    -0.347 N 
ATOM     41  H4  UNL     1      54.017  15.597  -3.713  1.00  0.00     0.163 HD
BRANCH  40  42
HETATM   42  C10 UNL     1      53.004  13.824  -3.159  1.00  0.00     0.285 C 
HETATM   43  C11 UNL     1      52.367  14.140  -1.802  1.00  0.00     0.056 C 
HETATM   44  C12 UNL     1      52.560  12.819  -1.083  1.00  0.00     0.031 C 
HETATM   45  C13 UNL     1      53.701  12.138  -1.831  1.00  0.00     0.235 C 
HETATM   46  N5  UNL     1      54.226  13.168  -2.740  1.00  0.00    -0.054 N 
ATOM     47  H52 UNL     1      54.818  12.823  -3.496  1.00  0.00     0.279 HD
ATOM     48  H51 UNL     1      54.937  13.782  -2.341  1.00  0.00     0.279 HD
ENDBRANCH  40  42
ENDBRANCH   6  40
BRANCH   4  49
HETATM   49  N3  UNL     1      53.483  17.837  -3.719  1.00  0.00    -0.370 N 
ATOM     50  H3  UNL     1      54.291  17.219  -3.781  1.00  0.00     0.161 HD
BRANCH  49  51
HETATM   51  C3  UNL     1      53.326  18.608  -2.529  1.00  0.00     0.083 C 
HETATM   52  C4  UNL     1      54.643  19.146  -2.005  1.00  0.00     0.025 C 
HETATM   53  C5  UNL     1      54.368  19.452  -0.560  1.00  0.00     0.002 C 
HETATM   54  C6  UNL     1      53.300  18.506  -0.102  1.00  0.00     0.002 C 
HETATM   55  C7  UNL     1      52.848  17.784  -1.352  1.00  0.00     0.025 C 
ENDBRANCH  49  51
ENDBRANCH   4  49
BRANCH   1  56
HETATM   56  N1  UNL     1      51.061  20.146  -6.777  1.00  0.00    -0.234 N 
ATOM     57  H12 UNL     1      51.063  20.977  -6.186  1.00  0.00     0.174 HD
ATOM     58  H11 UNL     1      50.780  20.170  -7.757  1.00  0.00     0.174 HD
ENDBRANCH   1  56
TORSDOF 18
ENDMDL
MODEL 5
REMARK VINA RESULT: -7.680336541      2.347      5.085
REMARK  18 active torsions:
REMARK  status: ('A' for Active; 'I' for Inactive)
REMARK    1  A    between atoms: N1_1  and  C1_4 
REMARK    2  A    between atoms: C2_7  and  N3_8 
REMARK    3  A    between atoms: N3_8  and  C3_10 
REMARK    4  A    between atoms: C9_16  and  N4_17 
REMARK    5  A    between atoms: N4_17  and  C10_19 
REMARK    6  A    between atoms: N7_28  and  C14_29 
REMARK    7  A    between atoms: C16_31  and  C17_32 
REMARK    8  A    between atoms: C17_32  and  N8_33 
REMARK    9  A    between atoms: N8_33  and  C18_35 
REMARK   10  A    between atoms: C18_35  and  C19_36 
REMARK   11  A    between atoms: C19_36  and  C20_37 
REMARK   12  A    between atoms: C20_37  and  C21_38 
REMARK   13  A    between atoms: C21_38  and  C22_39 
REMARK   14  A    between atoms: C22_39  and  C23_40 
REMARK   15  A    between atoms: C23_40  and  C24_41 
REMARK   16  A    between atoms: C24_41  and  N9_42 
REMARK   17  A    between atoms: C24_41  and  N10_46 
REMARK   18  A    between atoms: N11_50  and  N12_52 
ROOT
HETATM    1  C1  UNL     1      50.973  14.100  -7.180  1.00  0.00     0.679 A 
HETATM    2  N2  UNL     1      51.714  13.730  -6.113  1.00  0.00    -0.176 N 
ATOM      3  H2  UNL     1      51.918  12.746  -5.943  1.00  0.00     0.186 HD
HETATM    4  C2  UNL     1      52.177  14.665  -5.284  1.00  0.00     0.135 A 
HETATM    5  C8  UNL     1      51.888  16.014  -5.530  1.00  0.00     0.099 A 
HETATM    6  C9  UNL     1      52.217  17.163  -4.869  1.00  0.00     0.135 A 
HETATM    7  N6  UNL     1      51.666  18.156  -5.561  1.00  0.00    -0.279 N 
ATOM      8  H6  UNL     1      51.742  19.140  -5.306  1.00  0.00     0.189 HD
HETATM    9  N7  UNL     1      51.006  17.715  -6.621  1.00  0.00    -0.244 N 
HETATM   10  C25 UNL     1      51.128  16.370  -6.626  1.00  0.00     0.158 A 
HETATM   11  N13 UNL     1      50.674  15.399  -7.450  1.00  0.00    -0.174 N 
ATOM     12  H13 UNL     1      50.112  15.639  -8.267  1.00  0.00     0.186 HD
ENDROOT
BRANCH   9  13
HETATM   13  C14 UNL     1      50.283  18.449  -7.621  1.00  0.00     0.249 C 
HETATM   14  C15 UNL     1      50.724  19.866  -7.737  1.00  0.00     0.089 C 
HETATM   15  C16 UNL     1      50.456  19.569  -9.219  1.00  0.00     0.146 C 
HETATM   16  O1  UNL     1      50.712  18.248  -8.930  1.00  0.00    -0.358 OA
BRANCH  15  17
HETATM   17  C17 UNL     1      48.992  19.882  -9.509  1.00  0.00     0.153 C 
BRANCH  17  18
HETATM   18  N8  UNL     1      48.666  19.696 -10.876  1.00  0.00    -0.376 N 
ATOM     19  H8  UNL     1      48.197  18.831 -11.146  1.00  0.00     0.160 HD
BRANCH  18  20
HETATM   20  C18 UNL     1      48.954  20.642 -11.888  1.00  0.00     0.091 C 
HETATM   21  N11 UNL     1      48.106  21.447 -12.423  1.00  0.00    -0.296 N 
ATOM     22  H11 UNL     1      48.460  22.077 -13.144  1.00  0.00     0.187 HD
BRANCH  20  23
HETATM   23  C19 UNL     1      50.340  20.725 -12.456  1.00  0.00     0.077 C 
BRANCH  23  24
HETATM   24  C20 UNL     1      51.215  21.778 -11.916  1.00  0.00     0.007 C 
BRANCH  24  25
HETATM   25  C21 UNL     1      51.900  22.704 -12.838  1.00  0.00     0.001 C 
BRANCH  25  26
HETATM   26  C22 UNL     1      51.203  23.127 -14.071  1.00  0.00     0.004 C 
BRANCH  26  27
HETATM   27  C23 UNL     1      51.962  22.631 -15.323  1.00  0.00     0.062 C 
BRANCH  27  28
HETATM   28  C24 UNL     1      51.554  23.547 -16.440  1.00  0.00     0.378 C 
BRANCH  28  29
HETATM   29  N9  UNL     1      50.225  24.078 -16.275  1.00  0.00    -0.051 N 
ATOM     30  H93 UNL     1      50.240  24.930 -15.714  1.00  0.00     0.276 HD
ATOM     31  H92 UNL     1      49.875  24.462 -17.152  1.00  0.00     0.276 HD
ATOM     32  H91 UNL     1      49.571  23.398 -15.888  1.00  0.00     0.276 HD
ENDBRANCH  28  29
BRANCH  28  33
HETATM   33  N10 UNL     1      52.548  24.589 -16.557  1.00  0.00    -0.051 N 
ATOM     34 3H10 UNL     1      52.622  25.158 -15.713  1.00  0.00     0.276 HD
ATOM     35 2H10 UNL     1      53.500  24.225 -16.562  1.00  0.00     0.276 HD
ATOM     36 1H10 UNL     1      52.335  25.144 -17.386  1.00  0.00     0.276 HD
ENDBRANCH  28  33
ENDBRANCH  27  28
ENDBRANCH  26  27
ENDBRANCH  25  26
ENDBRANCH  24  25
ENDBRANCH  23  24
ENDBRANCH  20  23
BRANCH  21  37
HETATM   37  N12 UNL     1      46.768  21.541 -12.118  1.00  0.00    -0.344 N 
ATOM     38 2H12 UNL     1      46.515  21.313 -11.156  1.00  0.00     0.176 HD
ATOM     39 1H12 UNL     1      46.020  21.815 -12.756  1.00  0.00     0.176 HD
ENDBRANCH  21  37
ENDBRANCH  18  20
ENDBRANCH  17  18
ENDBRANCH  15  17
ENDBRANCH   9  13
BRANCH   6  40
HETATM   40  N4  UNL     1      52.930  17.174  -3.794  1.00  0.00    -0.347 N 
ATOM     41  H4  UNL     1      53.630  16.443  -3.664  1.00  0.00     0.163 HD
BRANCH  40  42
HETATM   42  C10 UNL     1      52.782  18.166  -2.778  1.00  0.00     0.285 C 
HETATM   43  C11 UNL     1      54.038  18.283  -1.909  1.00  0.00     0.056 C 
HETATM   44  C12 UNL     1      53.511  19.118  -0.758  1.00  0.00     0.031 C 
HETATM   45  C13 UNL     1      52.000  18.916  -0.797  1.00  0.00     0.235 C 
HETATM   46  N5  UNL     1      51.788  17.838  -1.775  1.00  0.00    -0.054 N 
ATOM     47  H52 UNL     1      50.833  17.744  -2.121  1.00  0.00     0.279 HD
ATOM     48  H51 UNL     1      51.842  16.891  -1.399  1.00  0.00     0.279 HD
ENDBRANCH  40  42
ENDBRANCH   6  40
BRANCH   4  49
HETATM   49  N3  UNL     1      52.885  14.362  -4.272  1.00  0.00    -0.370 N 
ATOM     50  H3  UNL     1      53.786  14.827  -4.166  1.00  0.00     0.161 HD
BRANCH  49  51
HETATM   51  C3  UNL     1      52.503  13.415  -3.277  1.00  0.00     0.083 C 
HETATM   52  C4  UNL     1      52.413  14.029  -1.893  1.00  0.00     0.025 C 
HETATM   53  C5  UNL     1      52.521  12.855  -0.961  1.00  0.00     0.002 C 
HETATM   54  C6  UNL     1      53.341  11.812  -1.656  1.00  0.00     0.002 C 
HETATM   55  C7  UNL     1      53.544  12.337  -3.060  1.00  0.00     0.025 C 
ENDBRANCH  49  51
ENDBRANCH   4  49
BRANCH   1  56
HETATM   56  N1  UNL     1      50.540  13.167  -7.963  1.00  0.00    -0.234 N 
ATOM     57  H12 UNL     1      50.982  12.248  -7.947  1.00  0.00     0.174 HD
ATOM     58  H11 UNL     1      49.759  13.390  -8.579  1.00  0.00     0.174 HD
ENDBRANCH   1  56
TORSDOF 18
ENDMDL
