MODEL 1
REMARK VINA RESULT: -8.514053440      0.000      0.000
REMARK  13 active torsions:
REMARK  status: ('A' for Active; 'I' for Inactive)
REMARK    1  A    between atoms: C3_4  and  N2_5 
REMARK    2  A    between atoms: C6_14  and  C7_15 
REMARK    3  A    between atoms: C7_15  and  N5_16 
REMARK    4  A    between atoms: N5_16  and  C8_19 
REMARK    5  A    between atoms: C8_19  and  C9_20 
REMARK    6  A    between atoms: C9_20  and  C10_21 
REMARK    7  A    between atoms: C10_21  and  N6_22 
REMARK    8  A    between atoms: C12_27  and  C13_28 
REMARK    9  A    between atoms: C15_30  and  C16_31 
REMARK   10  A    between atoms: C16_31  and  C17_33 
REMARK       I    between atoms: C17_33  and  N7_35 
REMARK   11  A    between atoms: N7_35  and  C18_37 
REMARK   12  A    between atoms: C18_37  and  C19_38 
REMARK   13  A    between atoms: N9_40  and  N10_42 
ROOT
HETATM    1  N1  UNL     1      51.057  14.751  -6.399  1.00  0.00    -0.191 NA
HETATM    2  C1  UNL     1      51.030  15.903  -6.470  1.00  0.00     0.104 C 
HETATM    3  C2  UNL     1      51.078  17.345  -6.503  1.00  0.00     0.102 A 
HETATM    4  C3  UNL     1      51.703  17.974  -5.421  1.00  0.00     0.135 A 
HETATM    5  N3  UNL     1      51.943  19.287  -5.395  1.00  0.00    -0.284 N 
ATOM      6  H3  UNL     1      52.400  19.713  -4.589  1.00  0.00     0.188 HD
HETATM    7  N4  UNL     1      51.581  20.027  -6.424  1.00  0.00    -0.298 N 
ATOM      8  H4  UNL     1      51.768  21.029  -6.400  1.00  0.00     0.187 HD
HETATM    9  C4  UNL     1      50.974  19.508  -7.505  1.00  0.00     0.061 A 
HETATM   10  C5  UNL     1      50.659  20.318  -8.567  1.00  0.00     0.040 A 
HETATM   11  C6  UNL     1      50.077  19.771  -9.674  1.00  0.00    -0.030 A 
HETATM   12  C11 UNL     1      49.801  18.448  -9.741  1.00  0.00     0.022 A 
HETATM   13  C12 UNL     1      50.118  17.590  -8.651  1.00  0.00    -0.004 A 
HETATM   14  C22 UNL     1      50.698  18.117  -7.566  1.00  0.00     0.028 A 
ENDROOT
BRANCH   4  15
HETATM   15  N2  UNL     1      52.061  17.290  -4.415  1.00  0.00    -0.383 N 
ATOM     16  H22 UNL     1      52.110  16.277  -4.524  1.00  0.00     0.157 HD
ATOM     17  H21 UNL     1      52.290  17.758  -3.539  1.00  0.00     0.157 HD
ENDBRANCH   4  15
BRANCH  13  18
HETATM   18  C13 UNL     1      49.677  16.218  -8.852  1.00  0.00     0.018 A 
HETATM   19  C14 UNL     1      50.406  15.231  -9.469  1.00  0.00     0.037 A 
HETATM   20  C15 UNL     1      49.952  13.954  -9.391  1.00  0.00     0.046 A 
HETATM   21  C21 UNL     1      48.769  13.791  -8.675  1.00  0.00     0.067 A 
HETATM   22  S1  UNL     1      47.868  12.250  -8.352  1.00  0.00    -0.043 SA
HETATM   23  S2  UNL     1      48.380  15.370  -8.177  1.00  0.00    -0.081 SA
BRANCH  20  24
HETATM   24  C16 UNL     1      50.574  12.765 -10.004  1.00  0.00     0.251 C 
HETATM   25  O1  UNL     1      50.489  12.600 -11.244  1.00  0.00    -0.281 OA
BRANCH  24  26
HETATM   26  C17 UNL     1      51.272  11.784  -9.249  1.00  0.00     0.292 C 
HETATM   27  O2  UNL     1      51.397  10.599  -9.593  1.00  0.00    -0.264 OA
HETATM   28  N7  UNL     1      51.884  12.155  -8.005  1.00  0.00    -0.347 N 
ATOM     29  H7  UNL     1      51.805  13.120  -7.685  1.00  0.00     0.163 HD
BRANCH  28  30
HETATM   30  C18 UNL     1      52.603  11.212  -7.194  1.00  0.00     0.197 C 
BRANCH  30  31
HETATM   31  C19 UNL     1      53.581  11.941  -6.358  1.00  0.00     0.125 C 
HETATM   32  N8  UNL     1      54.931  11.535  -6.351  1.00  0.00    -0.084 NA
HETATM   33  N9  UNL     1      53.173  12.937  -5.656  1.00  0.00    -0.288 N 
ATOM     34  H9  UNL     1      52.192  13.215  -5.678  1.00  0.00     0.188 HD
BRANCH  33  35
HETATM   35  N10 UNL     1      54.077  13.627  -4.873  1.00  0.00    -0.275 N 
HETATM   36  C20 UNL     1      53.670  14.188  -3.791  1.00  0.00     0.215 C 
HETATM   37  N11 UNL     1      52.309  14.099  -3.405  1.00  0.00    -0.065 NA
HETATM   38  N12 UNL     1      54.621  14.902  -2.983  1.00  0.00    -0.065 NA
ATOM     39  H10 UNL     1      55.057  13.690  -5.151  1.00  0.00     0.189 HD
ENDBRANCH  33  35
ENDBRANCH  30  31
ENDBRANCH  28  30
ENDBRANCH  24  26
ENDBRANCH  20  24
ENDBRANCH  13  18
BRANCH  11  40
HETATM   40  C7  UNL     1      49.710  20.580 -10.887  1.00  0.00     0.270 C 
BRANCH  40  41
HETATM   41  N5  UNL     1      49.841  21.970 -10.657  1.00  0.00    -0.071 N 
ATOM     42  H52 UNL     1      49.047  22.339 -10.134  1.00  0.00     0.277 HD
ATOM     43  H51 UNL     1      50.580  22.169  -9.983  1.00  0.00     0.277 HD
BRANCH  41  44
HETATM   44  C8  UNL     1      50.040  22.683 -11.879  1.00  0.00     0.234 C 
BRANCH  44  45
HETATM   45  C9  UNL     1      51.028  21.974 -12.759  1.00  0.00     0.055 C 
BRANCH  45  46
HETATM   46  C10 UNL     1      52.135  22.933 -13.145  1.00  0.00     0.231 C 
BRANCH  46  47
HETATM   47  N6  UNL     1      52.031  24.182 -12.434  1.00  0.00    -0.079 N 
ATOM     48  H63 UNL     1      52.856  24.762 -12.582  1.00  0.00     0.274 HD
ATOM     49  H62 UNL     1      51.330  24.792 -12.854  1.00  0.00     0.274 HD
ATOM     50  H61 UNL     1      51.850  24.038 -11.441  1.00  0.00     0.274 HD
ENDBRANCH  46  47
ENDBRANCH  45  46
ENDBRANCH  44  45
ENDBRANCH  41  44
ENDBRANCH  40  41
ENDBRANCH  11  40
TORSDOF 13
ENDMDL
MODEL 2
REMARK VINA RESULT: -8.491458241      1.829      4.742
REMARK  13 active torsions:
REMARK  status: ('A' for Active; 'I' for Inactive)
REMARK    1  A    between atoms: C3_4  and  N2_5 
REMARK    2  A    between atoms: C6_14  and  C7_15 
REMARK    3  A    between atoms: C7_15  and  N5_16 
REMARK    4  A    between atoms: N5_16  and  C8_19 
REMARK    5  A    between atoms: C8_19  and  C9_20 
REMARK    6  A    between atoms: C9_20  and  C10_21 
REMARK    7  A    between atoms: C10_21  and  N6_22 
REMARK    8  A    between atoms: C12_27  and  C13_28 
REMARK    9  A    between atoms: C15_30  and  C16_31 
REMARK   10  A    between atoms: C16_31  and  C17_33 
REMARK       I    between atoms: C17_33  and  N7_35 
REMARK   11  A    between atoms: N7_35  and  C18_37 
REMARK   12  A    between atoms: C18_37  and  C19_38 
REMARK   13  A    between atoms: N9_40  and  N10_42 
ROOT
HETATM    1  N1  UNL     1      47.564  16.708 -10.281  1.00  0.00    -0.191 NA
HETATM    2  C1  UNL     1      48.300  17.505  -9.888  1.00  0.00     0.104 C 
HETATM    3  C2  UNL     1      49.154  18.570  -9.419  1.00  0.00     0.102 A 
HETATM    4  C3  UNL     1      48.955  19.829  -9.995  1.00  0.00     0.135 A 
HETATM    5  N3  UNL     1      49.574  20.927  -9.553  1.00  0.00    -0.284 N 
ATOM      6  H3  UNL     1      49.406  21.830  -9.997  1.00  0.00     0.188 HD
HETATM    7  N4  UNL     1      50.405  20.829  -8.534  1.00  0.00    -0.298 N 
ATOM      8  H4  UNL     1      50.873  21.671  -8.199  1.00  0.00     0.187 HD
HETATM    9  C4  UNL     1      50.657  19.661  -7.921  1.00  0.00     0.061 A 
HETATM   10  C5  UNL     1      51.498  19.625  -6.837  1.00  0.00     0.040 A 
HETATM   11  C6  UNL     1      51.716  18.438  -6.200  1.00  0.00    -0.030 A 
HETATM   12  C11 UNL     1      51.122  17.296  -6.621  1.00  0.00     0.022 A 
HETATM   13  C12 UNL     1      50.249  17.311  -7.744  1.00  0.00    -0.004 A 
HETATM   14  C22 UNL     1      50.022  18.472  -8.367  1.00  0.00     0.028 A 
ENDROOT
BRANCH   4  15
HETATM   15  N2  UNL     1      48.163  19.956 -10.978  1.00  0.00    -0.383 N 
ATOM     16  H22 UNL     1      47.185  20.163 -10.774  1.00  0.00     0.157 HD
ATOM     17  H21 UNL     1      48.514  19.851 -11.929  1.00  0.00     0.157 HD
ENDBRANCH   4  15
BRANCH  13  18
HETATM   18  C13 UNL     1      49.767  15.987  -8.113  1.00  0.00     0.018 A 
HETATM   19  C14 UNL     1      50.456  15.075  -8.875  1.00  0.00     0.037 A 
HETATM   20  C15 UNL     1      49.971  13.810  -8.954  1.00  0.00     0.046 A 
HETATM   21  C21 UNL     1      48.802  13.579  -8.235  1.00  0.00     0.067 A 
HETATM   22  S1  UNL     1      47.869  12.030  -8.094  1.00  0.00    -0.043 SA
HETATM   23  S2  UNL     1      48.466  15.086  -7.521  1.00  0.00    -0.081 SA
BRANCH  20  24
HETATM   24  C16 UNL     1      50.547  12.700  -9.737  1.00  0.00     0.251 C 
HETATM   25  O1  UNL     1      50.278  12.607 -10.958  1.00  0.00    -0.281 OA
BRANCH  24  26
HETATM   26  C17 UNL     1      51.401  11.717  -9.168  1.00  0.00     0.292 C 
HETATM   27  O2  UNL     1      51.640  10.616  -9.688  1.00  0.00    -0.264 OA
HETATM   28  N7  UNL     1      52.043  11.982  -7.912  1.00  0.00    -0.347 N 
ATOM     29  H7  UNL     1      51.874  12.876  -7.450  1.00  0.00     0.163 HD
BRANCH  28  30
HETATM   30  C18 UNL     1      52.917  11.031  -7.283  1.00  0.00     0.197 C 
BRANCH  30  31
HETATM   31  C19 UNL     1      53.797  11.741  -6.330  1.00  0.00     0.125 C 
HETATM   32  N8  UNL     1      55.115  11.283  -6.125  1.00  0.00    -0.084 NA
HETATM   33  N9  UNL     1      53.336  12.768  -5.710  1.00  0.00    -0.288 N 
ATOM     34  H9  UNL     1      52.381  13.083  -5.874  1.00  0.00     0.188 HD
BRANCH  33  35
HETATM   35  N10 UNL     1      54.149  13.440  -4.819  1.00  0.00    -0.275 N 
HETATM   36  C20 UNL     1      53.681  14.455  -4.184  1.00  0.00     0.215 C 
HETATM   37  N11 UNL     1      52.345  14.878  -4.396  1.00  0.00    -0.065 NA
HETATM   38  N12 UNL     1      54.536  15.145  -3.258  1.00  0.00    -0.065 NA
ATOM     39  H10 UNL     1      55.110  13.134  -4.666  1.00  0.00     0.189 HD
ENDBRANCH  33  35
ENDBRANCH  30  31
ENDBRANCH  28  30
ENDBRANCH  24  26
ENDBRANCH  20  24
ENDBRANCH  13  18
BRANCH  11  40
HETATM   40  C7  UNL     1      52.610  18.308  -4.998  1.00  0.00     0.270 C 
BRANCH  40  41
HETATM   41  N5  UNL     1      51.871  18.189  -3.798  1.00  0.00    -0.071 N 
ATOM     42  H52 UNL     1      51.133  18.891  -3.742  1.00  0.00     0.277 HD
ATOM     43  H51 UNL     1      51.290  17.351  -3.798  1.00  0.00     0.277 HD
BRANCH  41  44
HETATM   44  C8  UNL     1      52.725  18.234  -2.654  1.00  0.00     0.234 C 
BRANCH  44  45
HETATM   45  C9  UNL     1      54.078  18.775  -3.016  1.00  0.00     0.055 C 
BRANCH  45  46
HETATM   46  C10 UNL     1      54.615  19.593  -1.860  1.00  0.00     0.231 C 
BRANCH  46  47
HETATM   47  N6  UNL     1      53.785  20.737  -1.583  1.00  0.00    -0.079 N 
ATOM     48  H63 UNL     1      53.569  21.255  -2.435  1.00  0.00     0.274 HD
ATOM     49  H62 UNL     1      52.840  20.457  -1.323  1.00  0.00     0.274 HD
ATOM     50  H61 UNL     1      54.200  21.343  -0.876  1.00  0.00     0.274 HD
ENDBRANCH  46  47
ENDBRANCH  45  46
ENDBRANCH  44  45
ENDBRANCH  41  44
ENDBRANCH  40  41
ENDBRANCH  11  40
TORSDOF 13
ENDMDL
MODEL 3
REMARK VINA RESULT: -8.322734969      4.147     10.358
REMARK  13 active torsions:
REMARK  status: ('A' for Active; 'I' for Inactive)
REMARK    1  A    between atoms: C3_4  and  N2_5 
REMARK    2  A    between atoms: C6_14  and  C7_15 
REMARK    3  A    between atoms: C7_15  and  N5_16 
REMARK    4  A    between atoms: N5_16  and  C8_19 
REMARK    5  A    between atoms: C8_19  and  C9_20 
REMARK    6  A    between atoms: C9_20  and  C10_21 
REMARK    7  A    between atoms: C10_21  and  N6_22 
REMARK    8  A    between atoms: C12_27  and  C13_28 
REMARK    9  A    between atoms: C15_30  and  C16_31 
REMARK   10  A    between atoms: C16_31  and  C17_33 
REMARK       I    between atoms: C17_33  and  N7_35 
REMARK   11  A    between atoms: N7_35  and  C18_37 
REMARK   12  A    between atoms: C18_37  and  C19_38 
REMARK   13  A    between atoms: N9_40  and  N10_42 
ROOT
HETATM    1  N1  UNL     1      57.054  12.774  -2.798  1.00  0.00    -0.191 NA
HETATM    2  C1  UNL     1      57.324  11.926  -3.533  1.00  0.00     0.104 C 
HETATM    3  C2  UNL     1      57.752  10.865  -4.412  1.00  0.00     0.102 A 
HETATM    4  C3  UNL     1      59.122  10.800  -4.692  1.00  0.00     0.135 A 
HETATM    5  N3  UNL     1      59.669   9.788  -5.370  1.00  0.00    -0.284 N 
ATOM      6  H3  UNL     1      60.671   9.774  -5.557  1.00  0.00     0.188 HD
HETATM    7  N4  UNL     1      58.897   8.809  -5.796  1.00  0.00    -0.298 N 
ATOM      8  H4  UNL     1      59.320   8.037  -6.312  1.00  0.00     0.187 HD
HETATM    9  C4  UNL     1      57.572   8.789  -5.575  1.00  0.00     0.061 A 
HETATM   10  C5  UNL     1      56.823   7.721  -6.002  1.00  0.00     0.040 A 
HETATM   11  C6  UNL     1      55.484   7.696  -5.738  1.00  0.00    -0.030 A 
HETATM   12  C11 UNL     1      54.883   8.705  -5.066  1.00  0.00     0.022 A 
HETATM   13  C12 UNL     1      55.640   9.822  -4.615  1.00  0.00    -0.004 A 
HETATM   14  C22 UNL     1      56.954   9.850  -4.862  1.00  0.00     0.028 A 
ENDROOT
BRANCH   4  15
HETATM   15  N2  UNL     1      59.891  11.729  -4.297  1.00  0.00    -0.383 N 
ATOM     16  H22 UNL     1      59.460  12.570  -3.914  1.00  0.00     0.157 HD
ATOM     17  H21 UNL     1      60.902  11.615  -4.369  1.00  0.00     0.157 HD
ENDBRANCH   4  15
BRANCH  13  18
HETATM   18  C13 UNL     1      54.825  10.854  -3.990  1.00  0.00     0.018 A 
HETATM   19  C14 UNL     1      54.337  11.973  -4.620  1.00  0.00     0.037 A 
HETATM   20  C15 UNL     1      53.419  12.728  -3.967  1.00  0.00     0.046 A 
HETATM   21  C21 UNL     1      53.069  12.267  -2.700  1.00  0.00     0.067 A 
HETATM   22  S1  UNL     1      51.882  12.999  -1.539  1.00  0.00    -0.043 SA
HETATM   23  S2  UNL     1      54.009  10.863  -2.510  1.00  0.00    -0.081 SA
BRANCH  20  24
HETATM   24  C16 UNL     1      52.799  13.973  -4.459  1.00  0.00     0.251 C 
HETATM   25  O1  UNL     1      51.769  13.904  -5.173  1.00  0.00    -0.281 OA
BRANCH  24  26
HETATM   26  C17 UNL     1      53.317  15.262  -4.161  1.00  0.00     0.292 C 
HETATM   27  O2  UNL     1      54.523  15.554  -4.196  1.00  0.00    -0.264 OA
HETATM   28  N7  UNL     1      52.416  16.317  -3.794  1.00  0.00    -0.347 N 
ATOM     29  H7  UNL     1      51.416  16.120  -3.753  1.00  0.00     0.163 HD
BRANCH  28  30
HETATM   30  C18 UNL     1      52.875  17.642  -3.480  1.00  0.00     0.197 C 
BRANCH  30  31
HETATM   31  C19 UNL     1      52.842  18.466  -4.707  1.00  0.00     0.125 C 
HETATM   32  N8  UNL     1      54.013  18.609  -5.482  1.00  0.00    -0.084 NA
HETATM   33  N9  UNL     1      51.739  19.033  -5.043  1.00  0.00    -0.288 N 
ATOM     34  H9  UNL     1      50.904  18.915  -4.469  1.00  0.00     0.188 HD
BRANCH  33  35
HETATM   35  N10 UNL     1      51.696  19.804  -6.187  1.00  0.00    -0.275 N 
HETATM   36  C20 UNL     1      50.976  19.416  -7.179  1.00  0.00     0.215 C 
HETATM   37  N11 UNL     1      50.234  18.210  -7.097  1.00  0.00    -0.065 NA
HETATM   38  N12 UNL     1      50.938  20.227  -8.364  1.00  0.00    -0.065 NA
ATOM     39  H10 UNL     1      52.229  20.671  -6.245  1.00  0.00     0.189 HD
ENDBRANCH  33  35
ENDBRANCH  30  31
ENDBRANCH  28  30
ENDBRANCH  24  26
ENDBRANCH  20  24
ENDBRANCH  13  18
BRANCH  11  40
HETATM   40  C7  UNL     1      54.591   6.562  -6.157  1.00  0.00     0.270 C 
BRANCH  40  41
HETATM   41  N5  UNL     1      54.128   6.714  -7.485  1.00  0.00    -0.071 N 
ATOM     42  H52 UNL     1      54.519   7.547  -7.924  1.00  0.00     0.277 HD
ATOM     43  H51 UNL     1      54.528   6.008  -8.103  1.00  0.00     0.277 HD
BRANCH  41  44
HETATM   44  C8  UNL     1      52.701   6.712  -7.542  1.00  0.00     0.234 C 
BRANCH  44  45
HETATM   45  C9  UNL     1      52.158   8.107  -7.426  1.00  0.00     0.055 C 
BRANCH  45  46
HETATM   46  C10 UNL     1      52.953   9.031  -8.324  1.00  0.00     0.231 C 
BRANCH  46  47
HETATM   47  N6  UNL     1      52.952  10.385  -7.832  1.00  0.00    -0.079 N 
ATOM     48  H63 UNL     1      52.165  10.915  -8.204  1.00  0.00     0.274 HD
ATOM     49  H62 UNL     1      52.714  10.421  -6.841  1.00  0.00     0.274 HD
ATOM     50  H61 UNL     1      53.838  10.856  -8.018  1.00  0.00     0.274 HD
ENDBRANCH  46  47
ENDBRANCH  45  46
ENDBRANCH  44  45
ENDBRANCH  41  44
ENDBRANCH  40  41
ENDBRANCH  11  40
TORSDOF 13
ENDMDL
MODEL 4
REMARK VINA RESULT: -8.301265194      0.835      1.005
REMARK  13 active torsions:
REMARK  status: ('A' for Active; 'I' for Inactive)
REMARK    1  A    between atoms: C3_4  and  N2_5 
REMARK    2  A    between atoms: C6_14  and  C7_15 
REMARK    3  A    between atoms: C7_15  and  N5_16 
REMARK    4  A    between atoms: N5_16  and  C8_19 
REMARK    5  A    between atoms: C8_19  and  C9_20 
REMARK    6  A    between atoms: C9_20  and  C10_21 
REMARK    7  A    between atoms: C10_21  and  N6_22 
REMARK    8  A    between atoms: C12_27  and  C13_28 
REMARK    9  A    between atoms: C15_30  and  C16_31 
REMARK   10  A    between atoms: C16_31  and  C17_33 
REMARK       I    between atoms: C17_33  and  N7_35 
REMARK   11  A    between atoms: N7_35  and  C18_37 
REMARK   12  A    between atoms: C18_37  and  C19_38 
REMARK   13  A    between atoms: N9_40  and  N10_42 
ROOT
HETATM    1  N1  UNL     1      50.796  14.970  -6.537  1.00  0.00    -0.191 NA
HETATM    2  C1  UNL     1      50.735  16.106  -6.731  1.00  0.00     0.104 C 
HETATM    3  C2  UNL     1      50.736  17.537  -6.916  1.00  0.00     0.102 A 
HETATM    4  C3  UNL     1      51.268  18.300  -5.871  1.00  0.00     0.135 A 
HETATM    5  N3  UNL     1      51.461  19.618  -5.971  1.00  0.00    -0.284 N 
ATOM      6  H3  UNL     1      51.851  20.144  -5.189  1.00  0.00     0.188 HD
HETATM    7  N4  UNL     1      51.141  20.231  -7.093  1.00  0.00    -0.298 N 
ATOM      8  H4  UNL     1      51.293  21.237  -7.165  1.00  0.00     0.187 HD
HETATM    9  C4  UNL     1      50.623  19.578  -8.147  1.00  0.00     0.061 A 
HETATM   10  C5  UNL     1      50.349  20.259  -9.307  1.00  0.00     0.040 A 
HETATM   11  C6  UNL     1      49.859  19.577 -10.382  1.00  0.00    -0.030 A 
HETATM   12  C11 UNL     1      49.633  18.243 -10.323  1.00  0.00     0.022 A 
HETATM   13  C12 UNL     1      49.908  17.518  -9.131  1.00  0.00    -0.004 A 
HETATM   14  C22 UNL     1      50.399  18.178  -8.076  1.00  0.00     0.028 A 
ENDROOT
BRANCH   4  15
HETATM   15  N2  UNL     1      51.584  17.740  -4.778  1.00  0.00    -0.383 N 
ATOM     16  H22 UNL     1      51.004  16.965  -4.458  1.00  0.00     0.157 HD
ATOM     17  H21 UNL     1      52.396  18.069  -4.256  1.00  0.00     0.157 HD
ENDBRANCH   4  15
BRANCH  13  18
HETATM   18  C13 UNL     1      49.527  16.115  -9.211  1.00  0.00     0.018 A 
HETATM   19  C14 UNL     1      50.321  15.102  -9.692  1.00  0.00     0.037 A 
HETATM   20  C15 UNL     1      49.911  13.823  -9.504  1.00  0.00     0.046 A 
HETATM   21  C21 UNL     1      48.702  13.683  -8.828  1.00  0.00     0.067 A 
HETATM   22  S1  UNL     1      47.843  12.146  -8.390  1.00  0.00    -0.043 SA
HETATM   23  S2  UNL     1      48.232  15.287  -8.510  1.00  0.00    -0.081 SA
BRANCH  20  24
HETATM   24  C16 UNL     1      50.604  12.605  -9.966  1.00  0.00     0.251 C 
HETATM   25  O1  UNL     1      50.458  12.230 -11.154  1.00  0.00    -0.281 OA
BRANCH  24  26
HETATM   26  C17 UNL     1      51.439  11.825  -9.121  1.00  0.00     0.292 C 
HETATM   27  O2  UNL     1      51.729  10.637  -9.332  1.00  0.00    -0.264 OA
HETATM   28  N7  UNL     1      51.997  12.418  -7.939  1.00  0.00    -0.347 N 
ATOM     29  H7  UNL     1      51.783  13.392  -7.728  1.00  0.00     0.163 HD
BRANCH  28  30
HETATM   30  C18 UNL     1      52.847  11.684  -7.043  1.00  0.00     0.197 C 
BRANCH  30  31
HETATM   31  C19 UNL     1      52.523  12.065  -5.651  1.00  0.00     0.125 C 
HETATM   32  N8  UNL     1      51.852  11.148  -4.815  1.00  0.00    -0.084 NA
HETATM   33  N9  UNL     1      52.866  13.231  -5.233  1.00  0.00    -0.288 N 
ATOM     34  H9  UNL     1      53.352  13.878  -5.853  1.00  0.00     0.188 HD
BRANCH  33  35
HETATM   35  N10 UNL     1      52.571  13.597  -3.935  1.00  0.00    -0.275 N 
HETATM   36  C20 UNL     1      52.965  14.741  -3.500  1.00  0.00     0.215 C 
HETATM   37  N11 UNL     1      53.695  15.616  -4.344  1.00  0.00    -0.065 NA
HETATM   38  N12 UNL     1      52.650  15.111  -2.148  1.00  0.00    -0.065 NA
ATOM     39  H10 UNL     1      52.045  12.968  -3.329  1.00  0.00     0.189 HD
ENDBRANCH  33  35
ENDBRANCH  30  31
ENDBRANCH  28  30
ENDBRANCH  24  26
ENDBRANCH  20  24
ENDBRANCH  13  18
BRANCH  11  40
HETATM   40  C7  UNL     1      49.544  20.239 -11.694  1.00  0.00     0.270 C 
BRANCH  40  41
HETATM   41  N5  UNL     1      49.052  21.554 -11.520  1.00  0.00    -0.071 N 
ATOM     42  H52 UNL     1      48.033  21.581 -11.561  1.00  0.00     0.277 HD
ATOM     43  H51 UNL     1      49.178  21.877 -10.561  1.00  0.00     0.277 HD
BRANCH  41  44
HETATM   44  C8  UNL     1      49.638  22.458 -12.458  1.00  0.00     0.234 C 
BRANCH  44  45
HETATM   45  C9  UNL     1      50.948  21.928 -12.966  1.00  0.00     0.055 C 
BRANCH  45  46
HETATM   46  C10 UNL     1      52.047  22.919 -12.647  1.00  0.00     0.231 C 
BRANCH  46  47
HETATM   47  N6  UNL     1      51.515  24.195 -12.239  1.00  0.00    -0.079 N 
ATOM     48  H63 UNL     1      51.273  24.771 -13.044  1.00  0.00     0.274 HD
ATOM     49  H62 UNL     1      50.586  24.096 -11.829  1.00  0.00     0.274 HD
ATOM     50  H61 UNL     1      52.148  24.685 -11.608  1.00  0.00     0.274 HD
ENDBRANCH  46  47
ENDBRANCH  45  46
ENDBRANCH  44  45
ENDBRANCH  41  44
ENDBRANCH  40  41
ENDBRANCH  11  40
TORSDOF 13
ENDMDL
MODEL 5
REMARK VINA RESULT: -8.282326179      3.754      9.724
REMARK  13 active torsions:
REMARK  status: ('A' for Active; 'I' for Inactive)
REMARK    1  A    between atoms: C3_4  and  N2_5 
REMARK    2  A    between atoms: C6_14  and  C7_15 
REMARK    3  A    between atoms: C7_15  and  N5_16 
REMARK    4  A    between atoms: N5_16  and  C8_19 
REMARK    5  A    between atoms: C8_19  and  C9_20 
REMARK    6  A    between atoms: C9_20  and  C10_21 
REMARK    7  A    between atoms: C10_21  and  N6_22 
REMARK    8  A    between atoms: C12_27  and  C13_28 
REMARK    9  A    between atoms: C15_30  and  C16_31 
REMARK   10  A    between atoms: C16_31  and  C17_33 
REMARK       I    between atoms: C17_33  and  N7_35 
REMARK   11  A    between atoms: N7_35  and  C18_37 
REMARK   12  A    between atoms: C18_37  and  C19_38 
REMARK   13  A    between atoms: N9_40  and  N10_42 
ROOT
HETATM    1  N1  UNL     1      57.281  12.862  -2.375  1.00  0.00    -0.191 NA
HETATM    2  C1  UNL     1      57.441  12.188  -3.298  1.00  0.00     0.104 C 
HETATM    3  C2  UNL     1      57.719  11.307  -4.407  1.00  0.00     0.102 A 
HETATM    4  C3  UNL     1      59.051  10.913  -4.572  1.00  0.00     0.135 A 
HETATM    5  N3  UNL     1      59.422   9.992  -5.465  1.00  0.00    -0.284 N 
ATOM      6  H3  UNL     1      60.402   9.729  -5.559  1.00  0.00     0.188 HD
HETATM    7  N4  UNL     1      58.503   9.426  -6.223  1.00  0.00    -0.298 N 
ATOM      8  H4  UNL     1      58.792   8.721  -6.901  1.00  0.00     0.187 HD
HETATM    9  C4  UNL     1      57.201   9.744  -6.133  1.00  0.00     0.061 A 
HETATM   10  C5  UNL     1      56.282   9.091  -6.917  1.00  0.00     0.040 A 
HETATM   11  C6  UNL     1      54.959   9.397  -6.789  1.00  0.00    -0.030 A 
HETATM   12  C11 UNL     1      54.537  10.334  -5.908  1.00  0.00     0.022 A 
HETATM   13  C12 UNL     1      55.472  11.024  -5.088  1.00  0.00    -0.004 A 
HETATM   14  C22 UNL     1      56.771  10.723  -5.200  1.00  0.00     0.028 A 
ENDROOT
BRANCH   4  15
HETATM   15  N2  UNL     1      59.958  11.440  -3.859  1.00  0.00    -0.383 N 
ATOM     16  H22 UNL     1      59.779  12.368  -3.475  1.00  0.00     0.157 HD
ATOM     17  H21 UNL     1      60.826  10.934  -3.687  1.00  0.00     0.157 HD
ENDBRANCH   4  15
BRANCH  13  18
HETATM   18  C13 UNL     1      54.861  12.056  -4.264  1.00  0.00     0.018 A 
HETATM   19  C14 UNL     1      54.641  13.356  -4.650  1.00  0.00     0.037 A 
HETATM   20  C15 UNL     1      53.871  14.140  -3.855  1.00  0.00     0.046 A 
HETATM   21  C21 UNL     1      53.380  13.519  -2.710  1.00  0.00     0.067 A 
HETATM   22  S1  UNL     1      52.320  14.234  -1.423  1.00  0.00    -0.043 SA
HETATM   23  S2  UNL     1      54.002  11.939  -2.813  1.00  0.00    -0.081 SA
BRANCH  20  24
HETATM   24  C16 UNL     1      53.542  15.561  -4.081  1.00  0.00     0.251 C 
HETATM   25  O1  UNL     1      54.250  16.446  -3.546  1.00  0.00    -0.281 OA
BRANCH  24  26
HETATM   26  C17 UNL     1      52.447  15.980  -4.884  1.00  0.00     0.292 C 
HETATM   27  O2  UNL     1      51.736  15.211  -5.549  1.00  0.00    -0.264 OA
HETATM   28  N7  UNL     1      52.117  17.375  -4.954  1.00  0.00    -0.347 N 
ATOM     29  H7  UNL     1      52.677  18.042  -4.422  1.00  0.00     0.163 HD
BRANCH  28  30
HETATM   30  C18 UNL     1      51.024  17.865  -5.748  1.00  0.00     0.197 C 
BRANCH  30  31
HETATM   31  C19 UNL     1      51.540  18.853  -6.720  1.00  0.00     0.125 C 
HETATM   32  N8  UNL     1      52.482  19.815  -6.301  1.00  0.00    -0.084 NA
HETATM   33  N9  UNL     1      51.115  18.808  -7.932  1.00  0.00    -0.288 N 
ATOM     34  H9  UNL     1      50.435  18.102  -8.214  1.00  0.00     0.188 HD
BRANCH  33  35
HETATM   35  N10 UNL     1      51.591  19.724  -8.849  1.00  0.00    -0.275 N 
HETATM   36  C20 UNL     1      50.765  20.294  -9.652  1.00  0.00     0.215 C 
HETATM   37  N11 UNL     1      49.383  19.986  -9.598  1.00  0.00    -0.065 NA
HETATM   38  N12 UNL     1      51.272  21.247 -10.601  1.00  0.00    -0.065 NA
ATOM     39  H10 UNL     1      52.585  19.946  -8.887  1.00  0.00     0.189 HD
ENDBRANCH  33  35
ENDBRANCH  30  31
ENDBRANCH  28  30
ENDBRANCH  24  26
ENDBRANCH  20  24
ENDBRANCH  13  18
BRANCH  11  40
HETATM   40  C7  UNL     1      53.884   8.723  -7.596  1.00  0.00     0.270 C 
BRANCH  40  41
HETATM   41  N5  UNL     1      53.074   9.657  -8.285  1.00  0.00    -0.071 N 
ATOM     42  H52 UNL     1      53.297  10.615  -8.016  1.00  0.00     0.277 HD
ATOM     43  H51 UNL     1      53.322   9.709  -9.273  1.00  0.00     0.277 HD
BRANCH  41  44
HETATM   44  C8  UNL     1      51.686   9.373  -8.108  1.00  0.00     0.234 C 
BRANCH  44  45
HETATM   45  C9  UNL     1      50.968  10.552  -7.516  1.00  0.00     0.055 C 
BRANCH  45  46
HETATM   46  C10 UNL     1      51.620  11.829  -8.000  1.00  0.00     0.231 C 
BRANCH  46  47
HETATM   47  N6  UNL     1      51.945  12.711  -6.908  1.00  0.00    -0.079 N 
ATOM     48  H63 UNL     1      51.105  13.104  -6.485  1.00  0.00     0.274 HD
ATOM     49  H62 UNL     1      52.300  12.192  -6.105  1.00  0.00     0.274 HD
ATOM     50  H61 UNL     1      52.595  13.444  -7.193  1.00  0.00     0.274 HD
ENDBRANCH  46  47
ENDBRANCH  45  46
ENDBRANCH  44  45
ENDBRANCH  41  44
ENDBRANCH  40  41
ENDBRANCH  11  40
TORSDOF 13
ENDMDL
