MODEL 1
REMARK VINA RESULT: -10.087034819      0.000      0.000
REMARK  13 active torsions:
REMARK  status: ('A' for Active; 'I' for Inactive)
REMARK    1  A    between atoms: C1_4  and  C2_6 
REMARK    2  A    between atoms: C5_9  and  C6_10 
REMARK    3  A    between atoms: C6_10  and  C7_11 
REMARK    4  A    between atoms: C8_14  and  C9_15 
REMARK    5  A    between atoms: C9_15  and  C10_16 
REMARK    6  A    between atoms: C10_16  and  C11_17 
REMARK    7  A    between atoms: C11_17  and  C12_18 
REMARK    8  A    between atoms: C12_18  and  N4_19 
REMARK       I    between atoms: N4_19  and  C13_21 
REMARK    9  A    between atoms: C13_21  and  C14_23 
REMARK   10  A    between atoms: C14_23  and  S1_24 
REMARK   11  A    between atoms: S1_24  and  C15_25 
REMARK   12  A    between atoms: C17_31  and  N7_32 
REMARK   13  A    between atoms: C22_45  and  N10_46 
ROOT
HETATM    1  C11 UNL     1      50.596  16.886  -6.382  1.00  0.00     0.020 C 
ENDROOT
BRANCH   1   2
HETATM    2  C10 UNL     1      49.151  16.997  -6.877  1.00  0.00     0.007 C 
BRANCH   2   3
HETATM    3  C9  UNL     1      49.147  16.681  -8.357  1.00  0.00     0.057 C 
BRANCH   3   4
HETATM    4  C8  UNL     1      48.902  17.979  -9.077  1.00  0.00     0.014 A 
HETATM    5  N3  UNL     1      49.960  18.779  -9.364  1.00  0.00    -0.349 N 
HETATM    6  C7  UNL     1      49.827  19.948  -9.990  1.00  0.00     0.087 A 
ATOM      7  H3  UNL     1      50.894  18.473  -9.089  1.00  0.00     0.167 HD
HETATM    8  N11 UNL     1      48.588  20.341 -10.349  1.00  0.00    -0.332 N 
HETATM    9  C22 UNL     1      47.505  19.584 -10.090  1.00  0.00     0.101 A 
ATOM     10  H11 UNL     1      48.468  21.234 -10.829  1.00  0.00     0.168 HD
HETATM   11  C21 UNL     1      47.633  18.375  -9.442  1.00  0.00     0.073 A 
BRANCH   6  12
HETATM   12  C6  UNL     1      50.993  20.816 -10.308  1.00  0.00     0.115 C 
BRANCH  12  13
HETATM   13  C5  UNL     1      50.956  21.301 -11.702  1.00  0.00    -0.051 A 
HETATM   14  C4  UNL     1      50.134  20.762 -12.662  1.00  0.00     0.008 A 
HETATM   15  C3  UNL     1      50.101  21.216 -13.957  1.00  0.00     0.015 A 
HETATM   16  C2  UNL     1      50.908  22.252 -14.352  1.00  0.00     0.004 A 
HETATM   17  C24 UNL     1      51.758  22.824 -13.398  1.00  0.00     0.015 A 
HETATM   18  C23 UNL     1      51.763  22.342 -12.108  1.00  0.00     0.008 A 
BRANCH  16  19
HETATM   19  C1  UNL     1      50.907  22.772 -15.719  1.00  0.00     0.120 C 
HETATM   20  N1  UNL     1      50.223  23.810 -15.996  1.00  0.00    -0.387 N 
ATOM     21  H12 UNL     1      50.223  24.173 -16.949  1.00  0.00     0.157 HD
ATOM     22  H11 UNL     1      49.680  24.284 -15.275  1.00  0.00     0.157 HD
HETATM   23  N2  UNL     1      51.655  22.119 -16.712  1.00  0.00    -0.082 NA
ENDBRANCH  16  19
ENDBRANCH  12  13
ENDBRANCH   6  12
BRANCH   9  24
HETATM   24  N10 UNL     1      46.314  19.979 -10.444  1.00  0.00    -0.385 N 
ATOM     25 2H10 UNL     1      45.541  19.316 -10.504  1.00  0.00     0.157 HD
ATOM     26 1H10 UNL     1      46.171  20.965 -10.660  1.00  0.00     0.157 HD
ENDBRANCH   9  24
ENDBRANCH   3   4
ENDBRANCH   2   3
ENDBRANCH   1   2
BRANCH   1  27
HETATM   27  C12 UNL     1      51.118  18.285  -6.261  1.00  0.00     0.122 C 
BRANCH  27  28
HETATM   28  N4  UNL     1      51.670  18.509  -4.952  1.00  0.00    -0.360 N 
HETATM   29  C13 UNL     1      53.036  18.638  -4.645  1.00  0.00     0.227 C 
HETATM   30  O1  UNL     1      53.868  18.542  -5.618  1.00  0.00    -0.273 OA
ATOM     31  H4  UNL     1      51.010  18.582  -4.177  1.00  0.00     0.162 HD
BRANCH  29  32
HETATM   32  C14 UNL     1      53.603  18.868  -3.319  1.00  0.00     0.185 C 
BRANCH  32  33
HETATM   33  S1  UNL     1      52.994  17.880  -1.977  1.00  0.00    -0.084 SA
BRANCH  33  34
HETATM   34  C15 UNL     1      53.102  16.137  -2.188  1.00  0.00     0.149 A 
HETATM   35  N5  UNL     1      52.172  15.370  -1.592  1.00  0.00    -0.321 N 
HETATM   36  C16 UNL     1      52.160  14.030  -1.704  1.00  0.00     0.144 A 
ATOM     37  H5  UNL     1      51.448  15.822  -1.033  1.00  0.00     0.169 HD
HETATM   38  N6  UNL     1      51.225  13.245  -1.108  1.00  0.00    -0.176 N 
HETATM   39  C19 UNL     1      53.129  13.403  -2.454  1.00  0.00     0.145 A 
HETATM   40  C17 UNL     1      51.223  11.900  -1.227  1.00  0.00     0.680 A 
ATOM     41  H6  UNL     1      50.497  13.688  -0.548  1.00  0.00     0.186 HD
HETATM   42  N8  UNL     1      52.160  11.263  -1.954  1.00  0.00    -0.155 N 
HETATM   43  C18 UNL     1      53.089  12.024  -2.549  1.00  0.00     0.279 A 
ATOM     44  H8  UNL     1      52.164  10.247  -2.047  1.00  0.00     0.187 HD
HETATM   45  O2  UNL     1      53.984  11.471  -3.239  1.00  0.00    -0.266 OA
HETATM   46  C20 UNL     1      54.072  14.173  -3.058  1.00  0.00     0.267 A 
HETATM   47  O3  UNL     1      54.968  13.659  -3.744  1.00  0.00    -0.267 OA
HETATM   48  N9  UNL     1      54.039  15.534  -2.912  1.00  0.00    -0.303 N 
ATOM     49  H9  UNL     1      54.753  16.099  -3.370  1.00  0.00     0.171 HD
BRANCH  40  50
HETATM   50  N7  UNL     1      50.284  11.238  -0.617  1.00  0.00    -0.234 N 
ATOM     51  H72 UNL     1      49.863  11.594   0.241  1.00  0.00     0.174 HD
ATOM     52  H71 UNL     1      49.985  10.353  -1.025  1.00  0.00     0.174 HD
ENDBRANCH  40  50
ENDBRANCH  33  34
ENDBRANCH  32  33
ENDBRANCH  29  32
ENDBRANCH  27  28
ENDBRANCH   1  27
TORSDOF 13
ENDMDL
MODEL 2
REMARK VINA RESULT: -10.075353224      1.598      2.414
REMARK  13 active torsions:
REMARK  status: ('A' for Active; 'I' for Inactive)
REMARK    1  A    between atoms: C1_4  and  C2_6 
REMARK    2  A    between atoms: C5_9  and  C6_10 
REMARK    3  A    between atoms: C6_10  and  C7_11 
REMARK    4  A    between atoms: C8_14  and  C9_15 
REMARK    5  A    between atoms: C9_15  and  C10_16 
REMARK    6  A    between atoms: C10_16  and  C11_17 
REMARK    7  A    between atoms: C11_17  and  C12_18 
REMARK    8  A    between atoms: C12_18  and  N4_19 
REMARK       I    between atoms: N4_19  and  C13_21 
REMARK    9  A    between atoms: C13_21  and  C14_23 
REMARK   10  A    between atoms: C14_23  and  S1_24 
REMARK   11  A    between atoms: S1_24  and  C15_25 
REMARK   12  A    between atoms: C17_31  and  N7_32 
REMARK   13  A    between atoms: C22_45  and  N10_46 
ROOT
HETATM    1  C11 UNL     1      50.773  19.148  -6.815  1.00  0.00     0.020 C 
ENDROOT
BRANCH   1   2
HETATM    2  C10 UNL     1      50.051  17.798  -6.783  1.00  0.00     0.007 C 
BRANCH   2   3
HETATM    3  C9  UNL     1      50.952  16.780  -7.448  1.00  0.00     0.057 C 
BRANCH   3   4
HETATM    4  C8  UNL     1      50.385  16.526  -8.817  1.00  0.00     0.014 A 
HETATM    5  N3  UNL     1      49.657  17.503  -9.416  1.00  0.00    -0.349 N 
HETATM    6  C7  UNL     1      49.112  17.355 -10.623  1.00  0.00     0.087 A 
ATOM      7  H3  UNL     1      49.523  18.386  -8.922  1.00  0.00     0.167 HD
HETATM    8  N11 UNL     1      49.298  16.183 -11.267  1.00  0.00    -0.332 N 
HETATM    9  C22 UNL     1      50.012  15.183 -10.717  1.00  0.00     0.101 A 
ATOM     10  H11 UNL     1      48.887  16.053 -12.192  1.00  0.00     0.168 HD
HETATM   11  C21 UNL     1      50.578  15.328  -9.470  1.00  0.00     0.073 A 
BRANCH   6  12
HETATM   12  C6  UNL     1      48.323  18.433 -11.277  1.00  0.00     0.115 C 
BRANCH  12  13
HETATM   13  C5  UNL     1      49.185  19.520 -11.783  1.00  0.00    -0.051 A 
HETATM   14  C4  UNL     1      50.066  20.211 -10.986  1.00  0.00     0.008 A 
HETATM   15  C3  UNL     1      50.868  21.219 -11.460  1.00  0.00     0.015 A 
HETATM   16  C2  UNL     1      50.819  21.584 -12.781  1.00  0.00     0.004 A 
HETATM   17  C24 UNL     1      49.932  20.900 -13.620  1.00  0.00     0.015 A 
HETATM   18  C23 UNL     1      49.144  19.893 -13.109  1.00  0.00     0.008 A 
BRANCH  16  19
HETATM   19  C1  UNL     1      51.655  22.650 -13.333  1.00  0.00     0.120 C 
HETATM   20  N1  UNL     1      51.475  23.031 -14.534  1.00  0.00    -0.387 N 
ATOM     21  H12 UNL     1      52.058  23.774 -14.918  1.00  0.00     0.157 HD
ATOM     22  H11 UNL     1      50.754  22.604 -15.114  1.00  0.00     0.157 HD
HETATM   23  N2  UNL     1      52.649  23.239 -12.533  1.00  0.00    -0.082 NA
ENDBRANCH  16  19
ENDBRANCH  12  13
ENDBRANCH   6  12
BRANCH   9  24
HETATM   24  N10 UNL     1      50.182  14.057 -11.353  1.00  0.00    -0.385 N 
ATOM     25 2H10 UNL     1      50.481  13.218 -10.856  1.00  0.00     0.157 HD
ATOM     26 1H10 UNL     1      50.009  14.033 -12.357  1.00  0.00     0.157 HD
ENDBRANCH   9  24
ENDBRANCH   3   4
ENDBRANCH   2   3
ENDBRANCH   1   2
BRANCH   1  27
HETATM   27  C12 UNL     1      52.199  18.882  -6.441  1.00  0.00     0.122 C 
BRANCH  27  28
HETATM   28  N4  UNL     1      52.419  19.158  -5.048  1.00  0.00    -0.360 N 
HETATM   29  C13 UNL     1      53.549  18.778  -4.300  1.00  0.00     0.227 C 
HETATM   30  O1  UNL     1      54.465  18.121  -4.915  1.00  0.00    -0.273 OA
ATOM     31  H4  UNL     1      51.690  19.676  -4.556  1.00  0.00     0.162 HD
BRANCH  29  32
HETATM   32  C14 UNL     1      53.779  19.057  -2.886  1.00  0.00     0.185 C 
BRANCH  32  33
HETATM   33  S1  UNL     1      53.036  17.971  -1.697  1.00  0.00    -0.084 SA
BRANCH  33  34
HETATM   34  C15 UNL     1      53.102  16.253  -2.070  1.00  0.00     0.149 A 
HETATM   35  N5  UNL     1      52.184  15.448  -1.505  1.00  0.00    -0.321 N 
HETATM   36  C16 UNL     1      52.142  14.124  -1.738  1.00  0.00     0.144 A 
ATOM     37  H5  UNL     1      51.493  15.858  -0.875  1.00  0.00     0.169 HD
HETATM   38  N6  UNL     1      51.219  13.302  -1.174  1.00  0.00    -0.176 N 
HETATM   39  C19 UNL     1      53.066  13.555  -2.584  1.00  0.00     0.145 A 
HETATM   40  C17 UNL     1      51.186  11.974  -1.415  1.00  0.00     0.680 A 
ATOM     41  H6  UNL     1      50.525  13.703  -0.544  1.00  0.00     0.186 HD
HETATM   42  N8  UNL     1      52.079  11.392  -2.238  1.00  0.00    -0.155 N 
HETATM   43  C18 UNL     1      52.995  12.191  -2.803  1.00  0.00     0.279 A 
ATOM     44  H8  UNL     1      52.059  10.389  -2.423  1.00  0.00     0.187 HD
HETATM   45  O2  UNL     1      53.849  11.690  -3.580  1.00  0.00    -0.266 OA
HETATM   46  C20 UNL     1      53.995  14.362  -3.158  1.00  0.00     0.267 A 
HETATM   47  O3  UNL     1      54.851  13.900  -3.927  1.00  0.00    -0.267 OA
HETATM   48  N9  UNL     1      53.995  15.705  -2.887  1.00  0.00    -0.303 N 
ATOM     49  H9  UNL     1      54.699  16.299  -3.324  1.00  0.00     0.171 HD
BRANCH  40  50
HETATM   50  N7  UNL     1      50.263  11.273  -0.825  1.00  0.00    -0.234 N 
ATOM     51  H72 UNL     1      50.145  11.305   0.187  1.00  0.00     0.174 HD
ATOM     52  H71 UNL     1      49.661  10.692  -1.410  1.00  0.00     0.174 HD
ENDBRANCH  40  50
ENDBRANCH  33  34
ENDBRANCH  32  33
ENDBRANCH  29  32
ENDBRANCH  27  28
ENDBRANCH   1  27
TORSDOF 13
ENDMDL
MODEL 3
REMARK VINA RESULT: -9.932894520      2.496      3.312
REMARK  13 active torsions:
REMARK  status: ('A' for Active; 'I' for Inactive)
REMARK    1  A    between atoms: C1_4  and  C2_6 
REMARK    2  A    between atoms: C5_9  and  C6_10 
REMARK    3  A    between atoms: C6_10  and  C7_11 
REMARK    4  A    between atoms: C8_14  and  C9_15 
REMARK    5  A    between atoms: C9_15  and  C10_16 
REMARK    6  A    between atoms: C10_16  and  C11_17 
REMARK    7  A    between atoms: C11_17  and  C12_18 
REMARK    8  A    between atoms: C12_18  and  N4_19 
REMARK       I    between atoms: N4_19  and  C13_21 
REMARK    9  A    between atoms: C13_21  and  C14_23 
REMARK   10  A    between atoms: C14_23  and  S1_24 
REMARK   11  A    between atoms: S1_24  and  C15_25 
REMARK   12  A    between atoms: C17_31  and  N7_32 
REMARK   13  A    between atoms: C22_45  and  N10_46 
ROOT
HETATM    1  C11 UNL     1      50.842  18.840  -6.729  1.00  0.00     0.020 C 
ENDROOT
BRANCH   1   2
HETATM    2  C10 UNL     1      50.786  17.324  -6.514  1.00  0.00     0.007 C 
BRANCH   2   3
HETATM    3  C9  UNL     1      49.409  16.853  -6.928  1.00  0.00     0.057 C 
BRANCH   3   4
HETATM    4  C8  UNL     1      49.456  16.628  -8.415  1.00  0.00     0.014 A 
HETATM    5  N3  UNL     1      48.817  17.504  -9.230  1.00  0.00    -0.349 N 
HETATM    6  C7  UNL     1      48.802  17.370 -10.556  1.00  0.00     0.087 A 
ATOM      7  H3  UNL     1      48.330  18.296  -8.811  1.00  0.00     0.167 HD
HETATM    8  N11 UNL     1      49.452  16.319 -11.099  1.00  0.00    -0.332 N 
HETATM    9  C22 UNL     1      50.101  15.422 -10.334  1.00  0.00     0.101 A 
ATOM     10  H11 UNL     1      49.450  16.202 -12.112  1.00  0.00     0.168 HD
HETATM   11  C21 UNL     1      50.121  15.552  -8.962  1.00  0.00     0.073 A 
BRANCH   6  12
HETATM   12  C6  UNL     1      48.107  18.340 -11.445  1.00  0.00     0.115 C 
BRANCH  12  13
HETATM   13  C5  UNL     1      49.008  19.417 -11.900  1.00  0.00    -0.051 A 
HETATM   14  C4  UNL     1      49.897  20.053 -11.067  1.00  0.00     0.008 A 
HETATM   15  C3  UNL     1      50.735  21.053 -11.495  1.00  0.00     0.015 A 
HETATM   16  C2  UNL     1      50.717  21.465 -12.802  1.00  0.00     0.004 A 
HETATM   17  C24 UNL     1      49.823  20.838 -13.677  1.00  0.00     0.015 A 
HETATM   18  C23 UNL     1      48.997  19.838 -13.213  1.00  0.00     0.008 A 
BRANCH  16  19
HETATM   19  C1  UNL     1      51.592  22.524 -13.304  1.00  0.00     0.120 C 
HETATM   20  N1  UNL     1      51.404  22.994 -14.473  1.00  0.00    -0.387 N 
ATOM     21  H12 UNL     1      52.014  23.732 -14.822  1.00  0.00     0.157 HD
ATOM     22  H11 UNL     1      50.649  22.641 -15.061  1.00  0.00     0.157 HD
HETATM   23  N2  UNL     1      52.632  23.009 -12.494  1.00  0.00    -0.082 NA
ENDBRANCH  16  19
ENDBRANCH  12  13
ENDBRANCH   6  12
BRANCH   9  24
HETATM   24  N10 UNL     1      50.724  14.412 -10.873  1.00  0.00    -0.385 N 
ATOM     25 2H10 UNL     1      50.639  13.475 -10.479  1.00  0.00     0.157 HD
ATOM     26 1H10 UNL     1      51.299  14.578 -11.699  1.00  0.00     0.157 HD
ENDBRANCH   9  24
ENDBRANCH   3   4
ENDBRANCH   2   3
ENDBRANCH   1   2
BRANCH   1  27
HETATM   27  C12 UNL     1      52.158  19.303  -6.184  1.00  0.00     0.122 C 
BRANCH  27  28
HETATM   28  N4  UNL     1      52.289  18.942  -4.799  1.00  0.00    -0.360 N 
HETATM   29  C13 UNL     1      53.447  18.425  -4.188  1.00  0.00     0.227 C 
HETATM   30  O1  UNL     1      54.478  18.256  -4.934  1.00  0.00    -0.273 OA
ATOM     31  H4  UNL     1      51.470  19.071  -4.205  1.00  0.00     0.162 HD
BRANCH  29  32
HETATM   32  C14 UNL     1      53.588  18.059  -2.782  1.00  0.00     0.185 C 
BRANCH  32  33
HETATM   33  S1  UNL     1      52.996  16.463  -2.280  1.00  0.00    -0.084 SA
BRANCH  33  34
HETATM   34  C15 UNL     1      53.340  15.130  -3.374  1.00  0.00     0.149 A 
HETATM   35  N5  UNL     1      52.435  14.845  -4.327  1.00  0.00    -0.321 N 
HETATM   36  C16 UNL     1      52.612  13.855  -5.220  1.00  0.00     0.144 A 
ATOM     37  H5  UNL     1      51.581  15.401  -4.375  1.00  0.00     0.169 HD
HETATM   38  N6  UNL     1      51.706  13.559  -6.187  1.00  0.00    -0.176 N 
HETATM   39  C19 UNL     1      53.758  13.095  -5.171  1.00  0.00     0.145 A 
HETATM   40  C17 UNL     1      51.894  12.562  -7.079  1.00  0.00     0.680 A 
ATOM     41  H6  UNL     1      50.850  14.110  -6.243  1.00  0.00     0.186 HD
HETATM   42  N8  UNL     1      53.006  11.804  -7.051  1.00  0.00    -0.155 N 
HETATM   43  C18 UNL     1      53.911  12.085  -6.103  1.00  0.00     0.279 A 
ATOM     44  H8  UNL     1      53.153  11.049  -7.722  1.00  0.00     0.187 HD
HETATM   45  O2  UNL     1      54.965  11.401  -6.041  1.00  0.00    -0.266 OA
HETATM   46  C20 UNL     1      54.676  13.377  -4.210  1.00  0.00     0.267 A 
HETATM   47  O3  UNL     1      55.725  12.723  -4.121  1.00  0.00    -0.267 OA
HETATM   48  N9  UNL     1      54.447  14.396  -3.325  1.00  0.00    -0.303 N 
ATOM     49  H9  UNL     1      55.144  14.598  -2.608  1.00  0.00     0.171 HD
BRANCH  40  50
HETATM   50  N7  UNL     1      50.966  12.359  -7.966  1.00  0.00    -0.234 N 
ATOM     51  H72 UNL     1      50.463  13.139  -8.389  1.00  0.00     0.174 HD
ATOM     52  H71 UNL     1      50.759  11.394  -8.225  1.00  0.00     0.174 HD
ENDBRANCH  40  50
ENDBRANCH  33  34
ENDBRANCH  32  33
ENDBRANCH  29  32
ENDBRANCH  27  28
ENDBRANCH   1  27
TORSDOF 13
ENDMDL
MODEL 4
REMARK VINA RESULT: -9.803188421      2.758      3.555
REMARK  13 active torsions:
REMARK  status: ('A' for Active; 'I' for Inactive)
REMARK    1  A    between atoms: C1_4  and  C2_6 
REMARK    2  A    between atoms: C5_9  and  C6_10 
REMARK    3  A    between atoms: C6_10  and  C7_11 
REMARK    4  A    between atoms: C8_14  and  C9_15 
REMARK    5  A    between atoms: C9_15  and  C10_16 
REMARK    6  A    between atoms: C10_16  and  C11_17 
REMARK    7  A    between atoms: C11_17  and  C12_18 
REMARK    8  A    between atoms: C12_18  and  N4_19 
REMARK       I    between atoms: N4_19  and  C13_21 
REMARK    9  A    between atoms: C13_21  and  C14_23 
REMARK   10  A    between atoms: C14_23  and  S1_24 
REMARK   11  A    between atoms: S1_24  and  C15_25 
REMARK   12  A    between atoms: C17_31  and  N7_32 
REMARK   13  A    between atoms: C22_45  and  N10_46 
ROOT
HETATM    1  C11 UNL     1      50.608  19.282  -7.126  1.00  0.00     0.020 C 
ENDROOT
BRANCH   1   2
HETATM    2  C10 UNL     1      50.103  17.850  -6.926  1.00  0.00     0.007 C 
BRANCH   2   3
HETATM    3  C9  UNL     1      51.021  16.928  -7.698  1.00  0.00     0.057 C 
BRANCH   3   4
HETATM    4  C8  UNL     1      50.352  16.652  -9.016  1.00  0.00     0.014 A 
HETATM    5  N3  UNL     1      49.640  17.643  -9.608  1.00  0.00    -0.349 N 
HETATM    6  C7  UNL     1      49.009  17.478 -10.771  1.00  0.00     0.087 A 
ATOM      7  H3  UNL     1      49.585  18.551  -9.146  1.00  0.00     0.167 HD
HETATM    8  N11 UNL     1      49.088  16.273 -11.374  1.00  0.00    -0.332 N 
HETATM    9  C22 UNL     1      49.783  15.257 -10.828  1.00  0.00     0.101 A 
ATOM     10  H11 UNL     1      48.611  16.129 -12.264  1.00  0.00     0.168 HD
HETATM   11  C21 UNL     1      50.438  15.419  -9.627  1.00  0.00     0.073 A 
BRANCH   6  12
HETATM   12  C6  UNL     1      48.236  18.572 -11.419  1.00  0.00     0.115 C 
BRANCH  12  13
HETATM   13  C5  UNL     1      49.118  19.623 -11.963  1.00  0.00    -0.051 A 
HETATM   14  C4  UNL     1      49.093  20.017 -13.279  1.00  0.00     0.008 A 
HETATM   15  C3  UNL     1      49.914  20.997 -13.781  1.00  0.00     0.015 A 
HETATM   16  C2  UNL     1      50.812  21.637 -12.966  1.00  0.00     0.004 A 
HETATM   17  C24 UNL     1      50.864  21.260 -11.619  1.00  0.00     0.015 A 
HETATM   18  C23 UNL     1      50.024  20.273 -11.152  1.00  0.00     0.008 A 
BRANCH  16  19
HETATM   19  C1  UNL     1      51.705  22.688 -13.454  1.00  0.00     0.120 C 
HETATM   20  N1  UNL     1      51.649  23.042 -14.676  1.00  0.00    -0.387 N 
ATOM     21  H12 UNL     1      52.272  23.774 -15.016  1.00  0.00     0.157 HD
ATOM     22  H11 UNL     1      50.988  22.603 -15.317  1.00  0.00     0.157 HD
HETATM   23  N2  UNL     1      52.615  23.292 -12.572  1.00  0.00    -0.082 NA
ENDBRANCH  16  19
ENDBRANCH  12  13
ENDBRANCH   6  12
BRANCH   9  24
HETATM   24  N10 UNL     1      49.850  14.099 -11.424  1.00  0.00    -0.385 N 
ATOM     25 2H10 UNL     1      49.770  14.029 -12.438  1.00  0.00     0.157 HD
ATOM     26 1H10 UNL     1      49.985  13.265 -10.854  1.00  0.00     0.157 HD
ENDBRANCH   9  24
ENDBRANCH   3   4
ENDBRANCH   2   3
ENDBRANCH   1   2
BRANCH   1  27
HETATM   27  C12 UNL     1      51.965  19.352  -6.496  1.00  0.00     0.122 C 
BRANCH  27  28
HETATM   28  N4  UNL     1      51.921  18.873  -5.141  1.00  0.00    -0.360 N 
HETATM   29  C13 UNL     1      53.015  18.385  -4.404  1.00  0.00     0.227 C 
HETATM   30  O1  UNL     1      54.155  18.359  -4.993  1.00  0.00    -0.273 OA
ATOM     31  H4  UNL     1      51.015  18.889  -4.672  1.00  0.00     0.162 HD
BRANCH  29  32
HETATM   32  C14 UNL     1      52.978  17.900  -3.028  1.00  0.00     0.185 C 
BRANCH  32  33
HETATM   33  S1  UNL     1      53.660  16.295  -2.698  1.00  0.00    -0.084 SA
BRANCH  33  34
HETATM   34  C15 UNL     1      53.357  15.060  -3.913  1.00  0.00     0.149 A 
HETATM   35  N5  UNL     1      54.309  14.133  -4.122  1.00  0.00    -0.321 N 
HETATM   36  C16 UNL     1      54.166  13.140  -5.019  1.00  0.00     0.144 A 
ATOM     37  H5  UNL     1      55.171  14.185  -3.580  1.00  0.00     0.169 HD
HETATM   38  N6  UNL     1      55.119  12.198  -5.237  1.00  0.00    -0.176 N 
HETATM   39  C19 UNL     1      53.008  13.055  -5.758  1.00  0.00     0.145 A 
HETATM   40  C17 UNL     1      54.966  11.205  -6.140  1.00  0.00     0.680 A 
ATOM     41  H6  UNL     1      55.985  12.241  -4.700  1.00  0.00     0.186 HD
HETATM   42  N8  UNL     1      53.844  11.100  -6.876  1.00  0.00    -0.155 N 
HETATM   43  C18 UNL     1      52.893  12.023  -6.671  1.00  0.00     0.279 A 
ATOM     44  H8  UNL     1      53.723  10.353  -7.560  1.00  0.00     0.187 HD
HETATM   45  O2  UNL     1      51.828  11.963  -7.337  1.00  0.00    -0.266 OA
HETATM   46  C20 UNL     1      52.044  13.989  -5.552  1.00  0.00     0.267 A 
HETATM   47  O3  UNL     1      50.982  13.959  -6.192  1.00  0.00    -0.267 OA
HETATM   48  N9  UNL     1      52.239  14.980  -4.627  1.00  0.00    -0.303 N 
ATOM     49  H9  UNL     1      51.507  15.675  -4.482  1.00  0.00     0.171 HD
BRANCH  40  50
HETATM   50  N7  UNL     1      55.938  10.352  -6.275  1.00  0.00    -0.234 N 
ATOM     51  H72 UNL     1      56.801  10.610  -6.753  1.00  0.00     0.174 HD
ATOM     52  H71 UNL     1      55.808   9.418  -5.886  1.00  0.00     0.174 HD
ENDBRANCH  40  50
ENDBRANCH  33  34
ENDBRANCH  32  33
ENDBRANCH  29  32
ENDBRANCH  27  28
ENDBRANCH   1  27
TORSDOF 13
ENDMDL
MODEL 5
REMARK VINA RESULT: -9.698096275      3.698     12.288
REMARK  13 active torsions:
REMARK  status: ('A' for Active; 'I' for Inactive)
REMARK    1  A    between atoms: C1_4  and  C2_6 
REMARK    2  A    between atoms: C5_9  and  C6_10 
REMARK    3  A    between atoms: C6_10  and  C7_11 
REMARK    4  A    between atoms: C8_14  and  C9_15 
REMARK    5  A    between atoms: C9_15  and  C10_16 
REMARK    6  A    between atoms: C10_16  and  C11_17 
REMARK    7  A    between atoms: C11_17  and  C12_18 
REMARK    8  A    between atoms: C12_18  and  N4_19 
REMARK       I    between atoms: N4_19  and  C13_21 
REMARK    9  A    between atoms: C13_21  and  C14_23 
REMARK   10  A    between atoms: C14_23  and  S1_24 
REMARK   11  A    between atoms: S1_24  and  C15_25 
REMARK   12  A    between atoms: C17_31  and  N7_32 
REMARK   13  A    between atoms: C22_45  and  N10_46 
ROOT
HETATM    1  C11 UNL     1      53.698  18.822  -2.967  1.00  0.00     0.020 C 
ENDROOT
BRANCH   1   2
HETATM    2  C10 UNL     1      54.044  17.506  -2.264  1.00  0.00     0.007 C 
BRANCH   2   3
HETATM    3  C9  UNL     1      52.767  16.956  -1.667  1.00  0.00     0.057 C 
BRANCH   3   4
HETATM    4  C8  UNL     1      52.727  15.490  -2.001  1.00  0.00     0.014 A 
HETATM    5  N3  UNL     1      53.438  15.042  -3.066  1.00  0.00    -0.349 N 
HETATM    6  C7  UNL     1      53.449  13.762  -3.435  1.00  0.00     0.087 A 
ATOM      7  H3  UNL     1      53.987  15.712  -3.606  1.00  0.00     0.167 HD
HETATM    8  N11 UNL     1      52.720  12.884  -2.714  1.00  0.00    -0.332 N 
HETATM    9  C22 UNL     1      51.997  13.277  -1.648  1.00  0.00     0.101 A 
ATOM     10  H11 UNL     1      52.716  11.900  -2.983  1.00  0.00     0.168 HD
HETATM   11  C21 UNL     1      51.981  14.599  -1.260  1.00  0.00     0.073 A 
BRANCH   6  12
HETATM   12  C6  UNL     1      54.237  13.276  -4.600  1.00  0.00     0.115 C 
BRANCH  12  13
HETATM   13  C5  UNL     1      55.474  12.587  -4.180  1.00  0.00    -0.051 A 
HETATM   14  C4  UNL     1      56.193  12.948  -3.066  1.00  0.00     0.008 A 
HETATM   15  C3  UNL     1      57.341  12.304  -2.678  1.00  0.00     0.015 A 
HETATM   16  C2  UNL     1      57.827  11.247  -3.405  1.00  0.00     0.004 A 
HETATM   17  C24 UNL     1      57.118  10.853  -4.546  1.00  0.00     0.015 A 
HETATM   18  C23 UNL     1      55.969  11.524  -4.904  1.00  0.00     0.008 A 
BRANCH  16  19
HETATM   19  C1  UNL     1      59.044  10.528  -3.029  1.00  0.00     0.120 C 
HETATM   20  N1  UNL     1      59.950  11.130  -2.367  1.00  0.00    -0.387 N 
ATOM     21  H12 UNL     1      60.798  10.629  -2.106  1.00  0.00     0.157 HD
ATOM     22  H11 UNL     1      59.835  12.106  -2.094  1.00  0.00     0.157 HD
HETATM   23  N2  UNL     1      59.202   9.185  -3.406  1.00  0.00    -0.082 NA
ENDBRANCH  16  19
ENDBRANCH  12  13
ENDBRANCH   6  12
BRANCH   9  24
HETATM   24  N10 UNL     1      51.299  12.417  -0.962  1.00  0.00    -0.385 N 
ATOM     25 2H10 UNL     1      50.362  12.650  -0.631  1.00  0.00     0.157 HD
ATOM     26 1H10 UNL     1      51.708  11.505  -0.762  1.00  0.00     0.157 HD
ENDBRANCH   9  24
ENDBRANCH   3   4
ENDBRANCH   2   3
ENDBRANCH   1   2
BRANCH   1  27
HETATM   27  C12 UNL     1      53.623  18.521  -4.432  1.00  0.00     0.122 C 
BRANCH  27  28
HETATM   28  N4  UNL     1      52.356  18.935  -4.971  1.00  0.00    -0.360 N 
HETATM   29  C13 UNL     1      51.995  18.921  -6.331  1.00  0.00     0.227 C 
HETATM   30  O1  UNL     1      52.876  18.505  -7.168  1.00  0.00    -0.273 OA
ATOM     31  H4  UNL     1      51.657  19.270  -4.309  1.00  0.00     0.162 HD
BRANCH  29  32
HETATM   32  C14 UNL     1      50.710  19.337  -6.885  1.00  0.00     0.185 C 
BRANCH  32  33
HETATM   33  S1  UNL     1      50.007  18.346  -8.178  1.00  0.00    -0.084 SA
BRANCH  33  34
HETATM   34  C15 UNL     1      49.932  19.090  -9.770  1.00  0.00     0.149 A 
HETATM   35  N5  UNL     1      50.685  20.182  -9.993  1.00  0.00    -0.321 N 
HETATM   36  C16 UNL     1      50.708  20.814 -11.180  1.00  0.00     0.144 A 
ATOM     37  H5  UNL     1      51.262  20.544  -9.233  1.00  0.00     0.169 HD
HETATM   38  N6  UNL     1      51.466  21.916 -11.417  1.00  0.00    -0.176 N 
HETATM   39  C19 UNL     1      49.936  20.340 -12.216  1.00  0.00     0.145 A 
HETATM   40  C17 UNL     1      51.481  22.543 -12.613  1.00  0.00     0.680 A 
ATOM     41  H6  UNL     1      52.046  22.284 -10.664  1.00  0.00     0.186 HD
HETATM   42  N8  UNL     1      50.735  22.100 -13.642  1.00  0.00    -0.155 N 
HETATM   43  C18 UNL     1      49.982  21.013 -13.423  1.00  0.00     0.279 A 
ATOM     44  H8  UNL     1      50.741  22.571 -14.547  1.00  0.00     0.187 HD
HETATM   45  O2  UNL     1      49.269  20.563 -14.358  1.00  0.00    -0.266 OA
HETATM   46  C20 UNL     1      49.173  19.238 -11.996  1.00  0.00     0.267 A 
HETATM   47  O3  UNL     1      48.458  18.770 -12.895  1.00  0.00    -0.267 OA
HETATM   48  N9  UNL     1      49.186  18.631 -10.769  1.00  0.00    -0.303 N 
ATOM     49  H9  UNL     1      48.607  17.805 -10.618  1.00  0.00     0.171 HD
BRANCH  40  50
HETATM   50  N7  UNL     1      52.240  23.591 -12.739  1.00  0.00    -0.234 N 
ATOM     51  H72 UNL     1      52.003  24.471 -12.281  1.00  0.00     0.174 HD
ATOM     52  H71 UNL     1      53.081  23.503 -13.310  1.00  0.00     0.174 HD
ENDBRANCH  40  50
ENDBRANCH  33  34
ENDBRANCH  32  33
ENDBRANCH  29  32
ENDBRANCH  27  28
ENDBRANCH   1  27
TORSDOF 13
ENDMDL
