MODEL 1
REMARK VINA RESULT: -7.079504212      0.000      0.000
REMARK  14 active torsions:
REMARK  status: ('A' for Active; 'I' for Inactive)
REMARK       I    between atoms: C2_2  and  N1_4 
REMARK    1  A    between atoms: N1_4  and  C3_6 
REMARK    2  A    between atoms: C3_6  and  C4_7 
REMARK    3  A    between atoms: C4_7  and  C5_8 
REMARK    4  A    between atoms: C5_8  and  C6_9 
REMARK    5  A    between atoms: C6_9  and  C7_10 
REMARK    6  A    between atoms: C7_10  and  C8_11 
REMARK    7  A    between atoms: C8_11  and  N2_12 
REMARK       I    between atoms: N2_12  and  C9_14 
REMARK       I    between atoms: C9_14  and  N4_18 
REMARK    8  A    between atoms: N4_18  and  C10_20 
REMARK    9  A    between atoms: C10_20  and  C11_21 
REMARK   10  A    between atoms: C11_21  and  C12_22 
REMARK   11  A    between atoms: C12_22  and  C13_23 
REMARK   12  A    between atoms: C13_23  and  N5_24 
REMARK   13  A    between atoms: N5_24  and  C14_26 
REMARK   14  A    between atoms: C14_26  and  C15_28 
ROOT
HETATM    1  C10 UNL     1      51.897  18.358  -6.470  1.00  0.00     0.138 C 
ENDROOT
BRANCH   1   2
HETATM    2  N4  UNL     1      52.451  19.187  -5.393  1.00  0.00    -0.227 N 
HETATM    3  C9  UNL     1      53.456  18.597  -4.577  1.00  0.00     0.667 C 
HETATM    4  N2  UNL     1      53.286  18.667  -3.188  1.00  0.00    -0.227 N 
HETATM    5  N3  UNL     1      54.467  18.035  -5.154  1.00  0.00    -0.235 N 
ATOM      6  H2  UNL     1      52.629  18.047  -2.716  1.00  0.00     0.177 HD
ATOM      7  H32 UNL     1      55.187  17.612  -4.569  1.00  0.00     0.174 HD
ATOM      8  H31 UNL     1      54.590  17.984  -6.165  1.00  0.00     0.174 HD
ATOM      9  H4  UNL     1      52.131  20.143  -5.237  1.00  0.00     0.177 HD
BRANCH   4  10
HETATM   10  C8  UNL     1      54.064  19.639  -2.427  1.00  0.00     0.138 C 
BRANCH  10  11
HETATM   11  C7  UNL     1      53.605  19.693  -1.016  1.00  0.00     0.024 C 
BRANCH  11  12
HETATM   12  C6  UNL     1      53.956  18.510  -0.208  1.00  0.00     0.028 C 
BRANCH  12  13
HETATM   13  C5  UNL     1      52.934  17.601   0.322  1.00  0.00    -0.029 C 
BRANCH  13  14
HETATM   14  C4  UNL     1      52.094  16.765  -0.515  1.00  0.00    -0.011 C 
BRANCH  14  15
HETATM   15  C3  UNL     1      52.388  15.368  -0.844  1.00  0.00     0.149 C 
BRANCH  15  16
HETATM   16  N1  UNL     1      52.507  14.980  -2.213  1.00  0.00    -0.358 N 
HETATM   17  C2  UNL     1      53.492  15.153  -3.169  1.00  0.00     0.213 C 
HETATM   18  C1  UNL     1      53.275  14.606  -4.566  1.00  0.00     0.117 C 
HETATM   19  O1  UNL     1      54.568  15.727  -3.007  1.00  0.00    -0.274 OA
ATOM     20  H1  UNL     1      51.696  14.466  -2.558  1.00  0.00     0.162 HD
ENDBRANCH  15  16
ENDBRANCH  14  15
ENDBRANCH  13  14
ENDBRANCH  12  13
ENDBRANCH  11  12
ENDBRANCH  10  11
ENDBRANCH   4  10
ENDBRANCH   1   2
BRANCH   1  21
HETATM   21  C11 UNL     1      51.700  19.271  -7.638  1.00  0.00     0.022 C 
BRANCH  21  22
HETATM   22  C12 UNL     1      50.478  20.129  -7.460  1.00  0.00     0.021 C 
BRANCH  22  23
HETATM   23  C13 UNL     1      50.224  20.904  -8.723  1.00  0.00     0.120 C 
BRANCH  23  24
HETATM   24  N5  UNL     1      49.141  20.357  -9.516  1.00  0.00    -0.384 N 
ATOM     25  H5  UNL     1      48.182  20.516  -9.205  1.00  0.00     0.160 HD
BRANCH  24  26
HETATM   26  C14 UNL     1      49.348  19.623 -10.686  1.00  0.00     0.077 C 
HETATM   27  S1  UNL     1      50.083  20.238 -11.972  1.00  0.00    -0.065 SA
BRANCH  26  28
HETATM   28  C15 UNL     1      48.845  18.202 -10.752  1.00  0.00     0.051 C 
HETATM   29  C16 UNL     1      49.713  17.240 -10.035  1.00  0.00     0.045 C 
HETATM   30  C17 UNL     1      48.953  16.210  -9.200  1.00  0.00     0.191 C 
HETATM   31  C18 UNL     1      48.812  16.807  -7.868  1.00  0.00     0.033 C 
HETATM   32  N6  UNL     1      47.797  15.810  -9.904  1.00  0.00    -0.066 N 
HETATM   33  C19 UNL     1      47.726  16.434  -6.962  1.00  0.00     0.002 C 
HETATM   34  C20 UNL     1      46.342  16.502  -7.409  1.00  0.00     0.002 C 
HETATM   35  C21 UNL     1      45.992  17.064  -8.716  1.00  0.00     0.033 C 
HETATM   36  C22 UNL     1      46.839  16.891  -9.907  1.00  0.00     0.191 C 
HETATM   37  C23 UNL     1      47.407  18.186 -10.413  1.00  0.00     0.045 C 
HETATM   38  C24 UNL     1      47.163  14.598  -9.422  1.00  0.00     0.273 C 
HETATM   39  C25 UNL     1      48.113  15.525 -11.304  1.00  0.00     0.273 C 
ENDBRANCH  26  28
ENDBRANCH  24  26
ENDBRANCH  23  24
ENDBRANCH  22  23
ENDBRANCH  21  22
ENDBRANCH   1  21
TORSDOF 14
ENDMDL
MODEL 2
REMARK VINA RESULT: -6.991439628      2.374      3.033
REMARK  14 active torsions:
REMARK  status: ('A' for Active; 'I' for Inactive)
REMARK       I    between atoms: C2_2  and  N1_4 
REMARK    1  A    between atoms: N1_4  and  C3_6 
REMARK    2  A    between atoms: C3_6  and  C4_7 
REMARK    3  A    between atoms: C4_7  and  C5_8 
REMARK    4  A    between atoms: C5_8  and  C6_9 
REMARK    5  A    between atoms: C6_9  and  C7_10 
REMARK    6  A    between atoms: C7_10  and  C8_11 
REMARK    7  A    between atoms: C8_11  and  N2_12 
REMARK       I    between atoms: N2_12  and  C9_14 
REMARK       I    between atoms: C9_14  and  N4_18 
REMARK    8  A    between atoms: N4_18  and  C10_20 
REMARK    9  A    between atoms: C10_20  and  C11_21 
REMARK   10  A    between atoms: C11_21  and  C12_22 
REMARK   11  A    between atoms: C12_22  and  C13_23 
REMARK   12  A    between atoms: C13_23  and  N5_24 
REMARK   13  A    between atoms: N5_24  and  C14_26 
REMARK   14  A    between atoms: C14_26  and  C15_28 
ROOT
HETATM    1  C10 UNL     1      51.045  18.874  -6.625  1.00  0.00     0.138 C 
ENDROOT
BRANCH   1   2
HETATM    2  N4  UNL     1      52.329  18.934  -5.918  1.00  0.00    -0.227 N 
HETATM    3  C9  UNL     1      52.442  18.177  -4.719  1.00  0.00     0.667 C 
HETATM    4  N2  UNL     1      52.920  18.835  -3.579  1.00  0.00    -0.227 N 
HETATM    5  N3  UNL     1      52.104  16.929  -4.744  1.00  0.00    -0.235 N 
ATOM      6  H2  UNL     1      52.312  19.461  -3.051  1.00  0.00     0.177 HD
ATOM      7  H32 UNL     1      52.185  16.386  -3.885  1.00  0.00     0.174 HD
ATOM      8  H31 UNL     1      51.757  16.449  -5.574  1.00  0.00     0.174 HD
ATOM      9  H4  UNL     1      53.106  19.494  -6.270  1.00  0.00     0.177 HD
BRANCH   4  10
HETATM   10  C8  UNL     1      54.299  18.614  -3.157  1.00  0.00     0.138 C 
BRANCH  10  11
HETATM   11  C7  UNL     1      54.722  19.645  -2.176  1.00  0.00     0.024 C 
BRANCH  11  12
HETATM   12  C6  UNL     1      53.980  19.625  -0.901  1.00  0.00     0.028 C 
BRANCH  12  13
HETATM   13  C5  UNL     1      54.006  18.462  -0.007  1.00  0.00    -0.029 C 
BRANCH  13  14
HETATM   14  C4  UNL     1      52.827  17.692   0.339  1.00  0.00    -0.011 C 
BRANCH  14  15
HETATM   15  C3  UNL     1      52.039  16.914  -0.619  1.00  0.00     0.149 C 
BRANCH  15  16
HETATM   16  N1  UNL     1      52.690  15.939  -1.436  1.00  0.00    -0.358 N 
HETATM   17  C2  UNL     1      52.505  14.582  -1.627  1.00  0.00     0.213 C 
HETATM   18  C1  UNL     1      53.411  13.838  -2.587  1.00  0.00     0.117 C 
HETATM   19  O1  UNL     1      51.653  13.881  -1.081  1.00  0.00    -0.274 OA
ATOM     20  H1  UNL     1      53.449  16.326  -1.996  1.00  0.00     0.162 HD
ENDBRANCH  15  16
ENDBRANCH  14  15
ENDBRANCH  13  14
ENDBRANCH  12  13
ENDBRANCH  11  12
ENDBRANCH  10  11
ENDBRANCH   4  10
ENDBRANCH   1   2
BRANCH   1  21
HETATM   21  C11 UNL     1      51.252  19.581  -7.927  1.00  0.00     0.022 C 
BRANCH  21  22
HETATM   22  C12 UNL     1      50.046  20.397  -8.301  1.00  0.00     0.021 C 
BRANCH  22  23
HETATM   23  C13 UNL     1      50.454  21.477  -9.265  1.00  0.00     0.120 C 
BRANCH  23  24
HETATM   24  N5  UNL     1      51.129  20.964 -10.441  1.00  0.00    -0.384 N 
ATOM     25  H5  UNL     1      51.917  20.329 -10.310  1.00  0.00     0.160 HD
BRANCH  24  26
HETATM   26  C14 UNL     1      50.751  21.297 -11.743  1.00  0.00     0.077 C 
HETATM   27  S1  UNL     1      51.252  22.636 -12.470  1.00  0.00    -0.065 SA
BRANCH  26  28
HETATM   28  C15 UNL     1      49.822  20.373 -12.491  1.00  0.00     0.051 C 
HETATM   29  C16 UNL     1      49.586  19.089 -11.793  1.00  0.00     0.045 C 
HETATM   30  C17 UNL     1      48.130  18.626 -11.805  1.00  0.00     0.191 C 
HETATM   31  C18 UNL     1      47.523  19.194 -10.597  1.00  0.00     0.033 C 
HETATM   32  N6  UNL     1      47.564  18.919 -13.064  1.00  0.00    -0.066 N 
HETATM   33  C19 UNL     1      46.088  19.459 -10.500  1.00  0.00     0.002 C 
HETATM   34  C20 UNL     1      45.422  20.268 -11.511  1.00  0.00     0.002 C 
HETATM   35  C21 UNL     1      46.182  20.940 -12.568  1.00  0.00     0.033 C 
HETATM   36  C22 UNL     1      47.378  20.346 -13.187  1.00  0.00     0.191 C 
HETATM   37  C23 UNL     1      48.628  21.134 -12.914  1.00  0.00     0.045 C 
HETATM   38  C24 UNL     1      46.319  18.239 -13.362  1.00  0.00     0.273 C 
HETATM   39  C25 UNL     1      48.467  18.520 -14.145  1.00  0.00     0.273 C 
ENDBRANCH  26  28
ENDBRANCH  24  26
ENDBRANCH  23  24
ENDBRANCH  22  23
ENDBRANCH  21  22
ENDBRANCH   1  21
TORSDOF 14
ENDMDL
MODEL 3
REMARK VINA RESULT: -6.768395073      2.872      4.846
REMARK  14 active torsions:
REMARK  status: ('A' for Active; 'I' for Inactive)
REMARK       I    between atoms: C2_2  and  N1_4 
REMARK    1  A    between atoms: N1_4  and  C3_6 
REMARK    2  A    between atoms: C3_6  and  C4_7 
REMARK    3  A    between atoms: C4_7  and  C5_8 
REMARK    4  A    between atoms: C5_8  and  C6_9 
REMARK    5  A    between atoms: C6_9  and  C7_10 
REMARK    6  A    between atoms: C7_10  and  C8_11 
REMARK    7  A    between atoms: C8_11  and  N2_12 
REMARK       I    between atoms: N2_12  and  C9_14 
REMARK       I    between atoms: C9_14  and  N4_18 
REMARK    8  A    between atoms: N4_18  and  C10_20 
REMARK    9  A    between atoms: C10_20  and  C11_21 
REMARK   10  A    between atoms: C11_21  and  C12_22 
REMARK   11  A    between atoms: C12_22  and  C13_23 
REMARK   12  A    between atoms: C13_23  and  N5_24 
REMARK   13  A    between atoms: N5_24  and  C14_26 
REMARK   14  A    between atoms: C14_26  and  C15_28 
ROOT
HETATM    1  C10 UNL     1      51.104  17.273  -6.397  1.00  0.00     0.138 C 
ENDROOT
BRANCH   1   2
HETATM    2  N4  UNL     1      52.295  17.909  -5.820  1.00  0.00    -0.227 N 
HETATM    3  C9  UNL     1      52.629  17.558  -4.483  1.00  0.00     0.667 C 
HETATM    4  N2  UNL     1      52.859  18.601  -3.576  1.00  0.00    -0.227 N 
HETATM    5  N3  UNL     1      52.707  16.304  -4.176  1.00  0.00    -0.235 N 
ATOM      6  H2  UNL     1      52.077  19.120  -3.177  1.00  0.00     0.177 HD
ATOM      7  H32 UNL     1      52.947  16.052  -3.217  1.00  0.00     0.174 HD
ATOM      8  H31 UNL     1      52.540  15.545  -4.835  1.00  0.00     0.174 HD
ATOM      9  H4  UNL     1      52.856  18.573  -6.353  1.00  0.00     0.177 HD
BRANCH   4  10
HETATM   10  C8  UNL     1      54.232  18.935  -3.212  1.00  0.00     0.138 C 
BRANCH  10  11
HETATM   11  C7  UNL     1      54.258  19.908  -2.091  1.00  0.00     0.024 C 
BRANCH  11  12
HETATM   12  C6  UNL     1      53.406  19.548  -0.942  1.00  0.00     0.028 C 
BRANCH  12  13
HETATM   13  C5  UNL     1      53.704  18.395  -0.087  1.00  0.00    -0.029 C 
BRANCH  13  14
HETATM   14  C4  UNL     1      52.736  17.364   0.234  1.00  0.00    -0.011 C 
BRANCH  14  15
HETATM   15  C3  UNL     1      51.939  16.641  -0.761  1.00  0.00     0.149 C 
BRANCH  15  16
HETATM   16  N1  UNL     1      51.871  15.216  -0.704  1.00  0.00    -0.358 N 
HETATM   17  C2  UNL     1      52.555  14.204  -1.353  1.00  0.00     0.213 C 
HETATM   18  C1  UNL     1      52.206  12.760  -1.051  1.00  0.00     0.117 C 
HETATM   19  O1  UNL     1      53.452  14.351  -2.182  1.00  0.00    -0.274 OA
ATOM     20  H1  UNL     1      51.170  14.872  -0.047  1.00  0.00     0.162 HD
ENDBRANCH  15  16
ENDBRANCH  14  15
ENDBRANCH  13  14
ENDBRANCH  12  13
ENDBRANCH  11  12
ENDBRANCH  10  11
ENDBRANCH   4  10
ENDBRANCH   1   2
BRANCH   1  21
HETATM   21  C11 UNL     1      50.562  18.240  -7.402  1.00  0.00     0.022 C 
BRANCH  21  22
HETATM   22  C12 UNL     1      51.214  19.588  -7.266  1.00  0.00     0.021 C 
BRANCH  22  23
HETATM   23  C13 UNL     1      50.630  20.529  -8.284  1.00  0.00     0.120 C 
BRANCH  23  24
HETATM   24  N5  UNL     1      51.113  20.282  -9.629  1.00  0.00    -0.384 N 
ATOM     25  H5  UNL     1      52.119  20.207  -9.777  1.00  0.00     0.160 HD
BRANCH  24  26
HETATM   26  C14 UNL     1      50.265  20.143 -10.729  1.00  0.00     0.077 C 
HETATM   27  S1  UNL     1      49.015  19.138 -10.734  1.00  0.00    -0.065 SA
BRANCH  26  28
HETATM   28  C15 UNL     1      50.545  20.954 -11.970  1.00  0.00     0.051 C 
HETATM   29  C16 UNL     1      50.229  20.234 -13.225  1.00  0.00     0.045 C 
HETATM   30  C17 UNL     1      49.512  21.083 -14.274  1.00  0.00     0.191 C 
HETATM   31  C18 UNL     1      48.080  20.905 -14.016  1.00  0.00     0.033 C 
HETATM   32  N6  UNL     1      50.059  22.385 -14.263  1.00  0.00    -0.066 N 
HETATM   33  C19 UNL     1      47.091  21.912 -14.399  1.00  0.00     0.002 C 
HETATM   34  C20 UNL     1      47.246  23.293 -13.966  1.00  0.00     0.002 C 
HETATM   35  C21 UNL     1      48.311  23.684 -13.038  1.00  0.00     0.033 C 
HETATM   36  C22 UNL     1      49.648  23.069 -13.059  1.00  0.00     0.191 C 
HETATM   37  C23 UNL     1      49.956  22.300 -11.806  1.00  0.00     0.045 C 
HETATM   38  C24 UNL     1      49.743  23.202 -15.419  1.00  0.00     0.273 C 
HETATM   39  C25 UNL     1      51.522  22.335 -14.239  1.00  0.00     0.273 C 
ENDBRANCH  26  28
ENDBRANCH  24  26
ENDBRANCH  23  24
ENDBRANCH  22  23
ENDBRANCH  21  22
ENDBRANCH   1  21
TORSDOF 14
ENDMDL
MODEL 4
REMARK VINA RESULT: -6.734308071      2.766      5.361
REMARK  14 active torsions:
REMARK  status: ('A' for Active; 'I' for Inactive)
REMARK       I    between atoms: C2_2  and  N1_4 
REMARK    1  A    between atoms: N1_4  and  C3_6 
REMARK    2  A    between atoms: C3_6  and  C4_7 
REMARK    3  A    between atoms: C4_7  and  C5_8 
REMARK    4  A    between atoms: C5_8  and  C6_9 
REMARK    5  A    between atoms: C6_9  and  C7_10 
REMARK    6  A    between atoms: C7_10  and  C8_11 
REMARK    7  A    between atoms: C8_11  and  N2_12 
REMARK       I    between atoms: N2_12  and  C9_14 
REMARK       I    between atoms: C9_14  and  N4_18 
REMARK    8  A    between atoms: N4_18  and  C10_20 
REMARK    9  A    between atoms: C10_20  and  C11_21 
REMARK   10  A    between atoms: C11_21  and  C12_22 
REMARK   11  A    between atoms: C12_22  and  C13_23 
REMARK   12  A    between atoms: C13_23  and  N5_24 
REMARK   13  A    between atoms: N5_24  and  C14_26 
REMARK   14  A    between atoms: C14_26  and  C15_28 
ROOT
HETATM    1  C10 UNL     1      52.237  18.483  -5.450  1.00  0.00     0.138 C 
ENDROOT
BRANCH   1   2
HETATM    2  N4  UNL     1      51.874  17.262  -4.721  1.00  0.00    -0.227 N 
HETATM    3  C9  UNL     1      52.920  16.338  -4.449  1.00  0.00     0.667 C 
HETATM    4  N2  UNL     1      52.709  14.997  -4.797  1.00  0.00    -0.227 N 
HETATM    5  N3  UNL     1      54.002  16.778  -3.894  1.00  0.00    -0.235 N 
ATOM      6  H2  UNL     1      52.785  14.699  -5.769  1.00  0.00     0.177 HD
ATOM      7  H32 UNL     1      54.752  16.115  -3.698  1.00  0.00     0.174 HD
ATOM      8  H31 UNL     1      54.155  17.753  -3.640  1.00  0.00     0.174 HD
ATOM      9  H4  UNL     1      50.914  17.083  -4.425  1.00  0.00     0.177 HD
BRANCH   4  10
HETATM   10  C8  UNL     1      52.379  14.036  -3.751  1.00  0.00     0.138 C 
BRANCH  10  11
HETATM   11  C7  UNL     1      53.317  14.160  -2.606  1.00  0.00     0.024 C 
BRANCH  11  12
HETATM   12  C6  UNL     1      52.669  14.220  -1.283  1.00  0.00     0.028 C 
BRANCH  12  13
HETATM   13  C5  UNL     1      51.913  15.397  -0.842  1.00  0.00    -0.029 C 
BRANCH  13  14
HETATM   14  C4  UNL     1      52.536  16.631  -0.401  1.00  0.00    -0.011 C 
BRANCH  14  15
HETATM   15  C3  UNL     1      52.252  17.949  -0.973  1.00  0.00     0.149 C 
BRANCH  15  16
HETATM   16  N1  UNL     1      53.234  18.981  -0.880  1.00  0.00    -0.358 N 
HETATM   17  C2  UNL     1      54.564  19.066  -1.252  1.00  0.00     0.213 C 
HETATM   18  C1  UNL     1      55.330  20.346  -0.984  1.00  0.00     0.117 C 
HETATM   19  O1  UNL     1      55.222  18.182  -1.799  1.00  0.00    -0.274 OA
ATOM     20  H1  UNL     1      52.881  19.835  -0.448  1.00  0.00     0.162 HD
ENDBRANCH  15  16
ENDBRANCH  14  15
ENDBRANCH  13  14
ENDBRANCH  12  13
ENDBRANCH  11  12
ENDBRANCH  10  11
ENDBRANCH   4  10
ENDBRANCH   1   2
BRANCH   1  21
HETATM   21  C11 UNL     1      51.860  18.243  -6.878  1.00  0.00     0.022 C 
BRANCH  21  22
HETATM   22  C12 UNL     1      50.543  18.889  -7.208  1.00  0.00     0.021 C 
BRANCH  22  23
HETATM   23  C13 UNL     1      50.784  20.115  -8.044  1.00  0.00     0.120 C 
BRANCH  23  24
HETATM   24  N5  UNL     1      51.053  19.810  -9.436  1.00  0.00    -0.384 N 
ATOM     25  H5  UNL     1      52.018  19.855  -9.765  1.00  0.00     0.160 HD
BRANCH  24  26
HETATM   26  C14 UNL     1      50.055  19.459 -10.346  1.00  0.00     0.077 C 
HETATM   27  S1  UNL     1      49.585  17.941 -10.567  1.00  0.00    -0.065 SA
BRANCH  26  28
HETATM   28  C15 UNL     1      49.405  20.544 -11.168  1.00  0.00     0.051 C 
HETATM   29  C16 UNL     1      49.844  21.907 -10.793  1.00  0.00     0.045 C 
HETATM   30  C17 UNL     1      50.126  22.826 -11.980  1.00  0.00     0.191 C 
HETATM   31  C18 UNL     1      51.547  22.643 -12.294  1.00  0.00     0.033 C 
HETATM   32  N6  UNL     1      49.162  22.589 -12.984  1.00  0.00    -0.066 N 
HETATM   33  C19 UNL     1      52.084  22.887 -13.632  1.00  0.00     0.002 C 
HETATM   34  C20 UNL     1      51.493  22.233 -14.790  1.00  0.00     0.002 C 
HETATM   35  C21 UNL     1      50.442  21.223 -14.639  1.00  0.00     0.033 C 
HETATM   36  C22 UNL     1      49.408  21.303 -13.594  1.00  0.00     0.191 C 
HETATM   37  C23 UNL     1      49.497  20.182 -12.598  1.00  0.00     0.045 C 
HETATM   38  C24 UNL     1      49.072  23.607 -14.013  1.00  0.00     0.273 C 
HETATM   39  C25 UNL     1      47.817  22.530 -12.409  1.00  0.00     0.273 C 
ENDBRANCH  26  28
ENDBRANCH  24  26
ENDBRANCH  23  24
ENDBRANCH  22  23
ENDBRANCH  21  22
ENDBRANCH   1  21
TORSDOF 14
ENDMDL
MODEL 5
REMARK VINA RESULT: -6.708365534      1.296      2.618
REMARK  14 active torsions:
REMARK  status: ('A' for Active; 'I' for Inactive)
REMARK       I    between atoms: C2_2  and  N1_4 
REMARK    1  A    between atoms: N1_4  and  C3_6 
REMARK    2  A    between atoms: C3_6  and  C4_7 
REMARK    3  A    between atoms: C4_7  and  C5_8 
REMARK    4  A    between atoms: C5_8  and  C6_9 
REMARK    5  A    between atoms: C6_9  and  C7_10 
REMARK    6  A    between atoms: C7_10  and  C8_11 
REMARK    7  A    between atoms: C8_11  and  N2_12 
REMARK       I    between atoms: N2_12  and  C9_14 
REMARK       I    between atoms: C9_14  and  N4_18 
REMARK    8  A    between atoms: N4_18  and  C10_20 
REMARK    9  A    between atoms: C10_20  and  C11_21 
REMARK   10  A    between atoms: C11_21  and  C12_22 
REMARK   11  A    between atoms: C12_22  and  C13_23 
REMARK   12  A    between atoms: C13_23  and  N5_24 
REMARK   13  A    between atoms: N5_24  and  C14_26 
REMARK   14  A    between atoms: C14_26  and  C15_28 
ROOT
HETATM    1  C10 UNL     1      51.970  19.579  -6.378  1.00  0.00     0.138 C 
ENDROOT
BRANCH   1   2
HETATM    2  N4  UNL     1      52.500  18.249  -6.054  1.00  0.00    -0.227 N 
HETATM    3  C9  UNL     1      52.656  17.936  -4.676  1.00  0.00     0.667 C 
HETATM    4  N2  UNL     1      53.897  17.434  -4.261  1.00  0.00    -0.227 N 
HETATM    5  N3  UNL     1      51.653  18.125  -3.883  1.00  0.00    -0.235 N 
ATOM      6  H2  UNL     1      54.694  18.059  -4.144  1.00  0.00     0.177 HD
ATOM      7  H32 UNL     1      51.764  17.900  -2.895  1.00  0.00     0.174 HD
ATOM      8  H31 UNL     1      50.750  18.490  -4.185  1.00  0.00     0.174 HD
ATOM      9  H4  UNL     1      52.746  17.581  -6.784  1.00  0.00     0.177 HD
BRANCH   4  10
HETATM   10  C8  UNL     1      54.033  16.005  -4.001  1.00  0.00     0.138 C 
BRANCH  10  11
HETATM   11  C7  UNL     1      52.777  15.450  -3.434  1.00  0.00     0.024 C 
BRANCH  11  12
HETATM   12  C6  UNL     1      52.927  14.806  -2.116  1.00  0.00     0.028 C 
BRANCH  12  13
HETATM   13  C5  UNL     1      52.343  15.381  -0.900  1.00  0.00    -0.029 C 
BRANCH  13  14
HETATM   14  C4  UNL     1      52.215  16.808  -0.671  1.00  0.00    -0.011 C 
BRANCH  14  15
HETATM   15  C3  UNL     1      53.012  17.562   0.301  1.00  0.00     0.149 C 
BRANCH  15  16
HETATM   16  N1  UNL     1      53.710  18.734  -0.122  1.00  0.00    -0.358 N 
HETATM   17  C2  UNL     1      54.771  18.950  -0.982  1.00  0.00     0.213 C 
HETATM   18  C1  UNL     1      55.279  20.363  -1.194  1.00  0.00     0.117 C 
HETATM   19  O1  UNL     1      55.376  18.089  -1.620  1.00  0.00    -0.274 OA
ATOM     20  H1  UNL     1      53.350  19.590   0.298  1.00  0.00     0.162 HD
ENDBRANCH  15  16
ENDBRANCH  14  15
ENDBRANCH  13  14
ENDBRANCH  12  13
ENDBRANCH  11  12
ENDBRANCH  10  11
ENDBRANCH   4  10
ENDBRANCH   1   2
BRANCH   1  21
HETATM   21  C11 UNL     1      50.847  19.356  -7.341  1.00  0.00     0.022 C 
BRANCH  21  22
HETATM   22  C12 UNL     1      51.156  19.955  -8.686  1.00  0.00     0.021 C 
BRANCH  22  23
HETATM   23  C13 UNL     1      50.210  21.093  -8.953  1.00  0.00     0.120 C 
BRANCH  23  24
HETATM   24  N5  UNL     1      49.057  20.701  -9.740  1.00  0.00    -0.384 N 
ATOM     25  H5  UNL     1      48.141  21.058  -9.469  1.00  0.00     0.160 HD
BRANCH  24  26
HETATM   26  C14 UNL     1      49.142  19.858 -10.849  1.00  0.00     0.077 C 
HETATM   27  S1  UNL     1      49.884  20.289 -12.205  1.00  0.00    -0.065 SA
BRANCH  26  28
HETATM   28  C15 UNL     1      48.496  18.496 -10.781  1.00  0.00     0.051 C 
HETATM   29  C16 UNL     1      49.373  17.407 -11.268  1.00  0.00     0.045 C 
HETATM   30  C17 UNL     1      49.349  16.147 -10.403  1.00  0.00     0.191 C 
HETATM   31  C18 UNL     1      50.416  16.327  -9.413  1.00  0.00     0.033 C 
HETATM   32  N6  UNL     1      48.029  15.918  -9.961  1.00  0.00    -0.066 N 
HETATM   33  C19 UNL     1      50.387  15.660  -8.111  1.00  0.00     0.002 C 
HETATM   34  C20 UNL     1      49.225  15.795  -7.245  1.00  0.00     0.002 C 
HETATM   35  C21 UNL     1      48.121  16.694  -7.588  1.00  0.00     0.033 C 
HETATM   36  C22 UNL     1      47.673  16.910  -8.974  1.00  0.00     0.191 C 
HETATM   37  C23 UNL     1      47.890  18.320  -9.444  1.00  0.00     0.045 C 
HETATM   38  C24 UNL     1      47.770  14.592  -9.433  1.00  0.00     0.273 C 
HETATM   39  C25 UNL     1      47.078  16.064 -11.064  1.00  0.00     0.273 C 
ENDBRANCH  26  28
ENDBRANCH  24  26
ENDBRANCH  23  24
ENDBRANCH  22  23
ENDBRANCH  21  22
ENDBRANCH   1  21
TORSDOF 14
ENDMDL
