MODEL 1
REMARK VINA RESULT: -4.520353108      0.000      0.000
REMARK  2 active torsions:
REMARK  status: ('A' for Active; 'I' for Inactive)
REMARK    1  A    between atoms: O1_1  and  C1_3 
REMARK    2  A    between atoms: C2_4  and  C3_5 
ROOT
HETATM    1  C3  UNL     1      28.994  14.732  17.207  1.00  0.00     0.033 A 
HETATM    2  C4  UNL     1      28.387  13.757  18.024  1.00  0.00     0.031 A 
HETATM    3  C5  UNL     1      28.359  14.284  19.294  1.00  0.00     0.019 A 
HETATM    4  C6  UNL     1      28.923  15.535  19.288  1.00  0.00     0.088 A 
HETATM    5  N1  UNL     1      29.292  15.761  18.000  1.00  0.00    -0.366 N 
ATOM      6  H1  UNL     1      29.743  16.617  17.678  1.00  0.00     0.165 HD
ENDROOT
BRANCH   1   7
HETATM    7  C2  UNL     1      29.187  14.506  15.792  1.00  0.00     0.053 C 
HETATM    8  C1  UNL     1      29.477  15.469  14.967  1.00  0.00     0.133 C 
BRANCH   8   9
HETATM    9  O1  UNL     1      29.623  16.766  15.365  1.00  0.00    -0.373 OA
ATOM     10  H1  UNL     1      29.806  17.474  14.758  1.00  0.00     0.216 HD
ENDBRANCH   8   9
ENDBRANCH   1   7
TORSDOF 2
ENDMDL
MODEL 2
REMARK VINA RESULT: -4.365506783      1.446      1.680
REMARK  2 active torsions:
REMARK  status: ('A' for Active; 'I' for Inactive)
REMARK    1  A    between atoms: O1_1  and  C1_3 
REMARK    2  A    between atoms: C2_4  and  C3_5 
ROOT
HETATM    1  C3  UNL     1      29.137  14.597  17.365  1.00  0.00     0.033 A 
HETATM    2  C4  UNL     1      28.692  14.689  18.698  1.00  0.00     0.031 A 
HETATM    3  C5  UNL     1      29.297  13.657  19.377  1.00  0.00     0.019 A 
HETATM    4  C6  UNL     1      30.090  12.940  18.517  1.00  0.00     0.088 A 
HETATM    5  N1  UNL     1      29.960  13.550  17.309  1.00  0.00    -0.366 N 
ATOM      6  H1  UNL     1      30.435  13.242  16.460  1.00  0.00     0.165 HD
ENDROOT
BRANCH   1   7
HETATM    7  C2  UNL     1      28.692  15.540  16.362  1.00  0.00     0.053 C 
HETATM    8  C1  UNL     1      29.393  15.807  15.299  1.00  0.00     0.133 C 
BRANCH   8   9
HETATM    9  O1  UNL     1      30.599  15.223  15.042  1.00  0.00    -0.373 OA
ATOM     10  H1  UNL     1      31.291  15.661  14.559  1.00  0.00     0.216 HD
ENDBRANCH   8   9
ENDBRANCH   1   7
TORSDOF 2
ENDMDL
MODEL 3
REMARK VINA RESULT: -4.311029296      2.259      2.700
REMARK  2 active torsions:
REMARK  status: ('A' for Active; 'I' for Inactive)
REMARK    1  A    between atoms: O1_1  and  C1_3 
REMARK    2  A    between atoms: C2_4  and  C3_5 
ROOT
HETATM    1  C3  UNL     1      29.488  13.560  16.875  1.00  0.00     0.033 A 
HETATM    2  C4  UNL     1      30.042  13.353  18.154  1.00  0.00     0.031 A 
HETATM    3  C5  UNL     1      30.560  12.079  18.147  1.00  0.00     0.019 A 
HETATM    4  C6  UNL     1      30.346  11.500  16.922  1.00  0.00     0.088 A 
HETATM    5  N1  UNL     1      29.694  12.438  16.185  1.00  0.00    -0.366 N 
ATOM      6  H1  UNL     1      29.396  12.299  15.220  1.00  0.00     0.165 HD
ENDROOT
BRANCH   1   7
HETATM    7  C2  UNL     1      28.851  14.811  16.530  1.00  0.00     0.053 C 
HETATM    8  C1  UNL     1      29.309  15.590  15.594  1.00  0.00     0.133 C 
BRANCH   8   9
HETATM    9  O1  UNL     1      30.422  15.293  14.863  1.00  0.00    -0.373 OA
ATOM     10  H1  UNL     1      30.666  14.404  14.633  1.00  0.00     0.216 HD
ENDBRANCH   8   9
ENDBRANCH   1   7
TORSDOF 2
ENDMDL
MODEL 4
REMARK VINA RESULT: -4.266455895      2.647      3.294
REMARK  2 active torsions:
REMARK  status: ('A' for Active; 'I' for Inactive)
REMARK    1  A    between atoms: O1_1  and  C1_3 
REMARK    2  A    between atoms: C2_4  and  C3_5 
ROOT
HETATM    1  C3  UNL     1      29.759  13.809  17.063  1.00  0.00     0.033 A 
HETATM    2  C4  UNL     1      28.834  14.553  17.822  1.00  0.00     0.031 A 
HETATM    3  C5  UNL     1      28.433  15.598  17.023  1.00  0.00     0.019 A 
HETATM    4  C6  UNL     1      29.073  15.525  15.811  1.00  0.00     0.088 A 
HETATM    5  N1  UNL     1      29.865  14.422  15.885  1.00  0.00    -0.366 N 
ATOM      6  H1  UNL     1      30.469  14.103  15.128  1.00  0.00     0.165 HD
ENDROOT
BRANCH   1   7
HETATM    7  C2  UNL     1      30.388  12.624  17.604  1.00  0.00     0.053 C 
HETATM    8  C1  UNL     1      30.385  11.486  16.974  1.00  0.00     0.133 C 
BRANCH   8   9
HETATM    9  O1  UNL     1      29.791  11.315  15.758  1.00  0.00    -0.373 OA
ATOM     10  H1  UNL     1      29.589  12.039  15.176  1.00  0.00     0.216 HD
ENDBRANCH   8   9
ENDBRANCH   1   7
TORSDOF 2
ENDMDL
MODEL 5
REMARK VINA RESULT: -4.211490493      2.963      3.728
REMARK  2 active torsions:
REMARK  status: ('A' for Active; 'I' for Inactive)
REMARK    1  A    between atoms: O1_1  and  C1_3 
REMARK    2  A    between atoms: C2_4  and  C3_5 
ROOT
HETATM    1  C3  UNL     1      27.857  13.302  18.775  1.00  0.00     0.033 A 
HETATM    2  C4  UNL     1      28.089  12.151  17.996  1.00  0.00     0.031 A 
HETATM    3  C5  UNL     1      27.481  11.110  18.658  1.00  0.00     0.019 A 
HETATM    4  C6  UNL     1      26.890  11.575  19.806  1.00  0.00     0.088 A 
HETATM    5  N1  UNL     1      27.146  12.909  19.832  1.00  0.00    -0.366 N 
ATOM      6  H1  UNL     1      26.831  13.536  20.572  1.00  0.00     0.165 HD
ENDROOT
BRANCH   1   7
HETATM    7  C2  UNL     1      28.363  14.594  18.368  1.00  0.00     0.053 C 
HETATM    8  C1  UNL     1      28.915  15.421  19.207  1.00  0.00     0.133 C 
BRANCH   8   9
HETATM    9  O1  UNL     1      29.061  15.140  20.535  1.00  0.00    -0.373 OA
ATOM     10  H1  UNL     1      28.327  15.102  21.137  1.00  0.00     0.216 HD
ENDBRANCH   8   9
ENDBRANCH   1   7
TORSDOF 2
ENDMDL
