MODEL 1
REMARK VINA RESULT: -4.641406056      0.000      0.000
REMARK  1 active torsions:
REMARK  status: ('A' for Active; 'I' for Inactive)
REMARK    1  A    between atoms: N1_3  and  C4_5 
ROOT
HETATM    1  C1  UNL     1      27.758  11.469  17.839  1.00  0.00     0.031 C 
HETATM    2  C2  UNL     1      28.440  12.444  18.047  1.00  0.00    -0.024 C 
HETATM    3  N1  UNL     1      29.235  13.589  18.281  1.00  0.00    -0.213 NA
HETATM    4  C3  UNL     1      28.966  14.052  19.629  1.00  0.00     0.133 C 
ENDROOT
BRANCH   3   5
HETATM    5  C4  UNL     1      28.950  14.593  17.337  1.00  0.00     0.038 A 
HETATM    6  C5  UNL     1      29.524  14.718  16.098  1.00  0.00     0.043 A 
HETATM    7  C6  UNL     1      28.984  15.840  15.453  1.00  0.00     0.089 A 
HETATM    8  N2  UNL     1      28.089  16.374  16.318  1.00  0.00    -0.373 N 
HETATM    9  C7  UNL     1      28.060  15.627  17.464  1.00  0.00     0.112 A 
ATOM     10  H2  UNL     1      27.524  17.205  16.142  1.00  0.00     0.164 HD
ENDBRANCH   3   5
TORSDOF 1
ENDMDL
MODEL 2
REMARK VINA RESULT: -4.637694608      1.127      1.307
REMARK  1 active torsions:
REMARK  status: ('A' for Active; 'I' for Inactive)
REMARK    1  A    between atoms: N1_3  and  C4_5 
ROOT
HETATM    1  C1  UNL     1      30.823  12.004  18.240  1.00  0.00     0.031 C 
HETATM    2  C2  UNL     1      30.054  12.901  18.487  1.00  0.00    -0.024 C 
HETATM    3  N1  UNL     1      29.156  13.955  18.770  1.00  0.00    -0.213 NA
HETATM    4  C3  UNL     1      27.908  13.370  19.224  1.00  0.00     0.133 C 
ENDROOT
BRANCH   3   5
HETATM    5  C4  UNL     1      28.952  14.752  17.628  1.00  0.00     0.038 A 
HETATM    6  C5  UNL     1      29.656  14.670  16.455  1.00  0.00     0.043 A 
HETATM    7  C6  UNL     1      29.164  15.626  15.555  1.00  0.00     0.089 A 
HETATM    8  N2  UNL     1      28.165  16.271  16.205  1.00  0.00    -0.373 N 
HETATM    9  C7  UNL     1      28.028  15.751  17.462  1.00  0.00     0.112 A 
ATOM     10  H2  UNL     1      27.603  17.029  15.816  1.00  0.00     0.164 HD
ENDBRANCH   3   5
TORSDOF 1
ENDMDL
MODEL 3
REMARK VINA RESULT: -4.610932663      1.455      3.821
REMARK  1 active torsions:
REMARK  status: ('A' for Active; 'I' for Inactive)
REMARK    1  A    between atoms: N1_3  and  C4_5 
ROOT
HETATM    1  C1  UNL     1      26.716  17.400  16.636  1.00  0.00     0.031 C 
HETATM    2  C2  UNL     1      27.634  16.638  16.823  1.00  0.00    -0.024 C 
HETATM    3  N1  UNL     1      28.704  15.742  17.049  1.00  0.00    -0.213 NA
HETATM    4  C3  UNL     1      29.129  15.221  15.764  1.00  0.00     0.133 C 
ENDROOT
BRANCH   3   5
HETATM    5  C4  UNL     1      28.305  14.701  17.908  1.00  0.00     0.038 A 
HETATM    6  C5  UNL     1      28.490  13.361  17.686  1.00  0.00     0.043 A 
HETATM    7  C6  UNL     1      27.960  12.638  18.764  1.00  0.00     0.089 A 
HETATM    8  N2  UNL     1      27.463  13.560  19.622  1.00  0.00    -0.373 N 
HETATM    9  C7  UNL     1      27.665  14.814  19.114  1.00  0.00     0.112 A 
ATOM     10  H2  UNL     1      27.006  13.352  20.511  1.00  0.00     0.164 HD
ENDBRANCH   3   5
TORSDOF 1
ENDMDL
MODEL 4
REMARK VINA RESULT: -4.538176203      1.206      1.516
REMARK  1 active torsions:
REMARK  status: ('A' for Active; 'I' for Inactive)
REMARK    1  A    between atoms: N1_3  and  C4_5 
ROOT
HETATM    1  C1  UNL     1      27.844  11.613  17.929  1.00  0.00     0.031 C 
HETATM    2  C2  UNL     1      28.270  12.724  18.138  1.00  0.00    -0.024 C 
HETATM    3  N1  UNL     1      28.773  14.023  18.375  1.00  0.00    -0.213 NA
HETATM    4  C3  UNL     1      27.719  14.804  18.994  1.00  0.00     0.133 C 
ENDROOT
BRANCH   3   5
HETATM    5  C4  UNL     1      29.200  14.617  17.172  1.00  0.00     0.038 A 
HETATM    6  C5  UNL     1      28.536  15.595  16.479  1.00  0.00     0.043 A 
HETATM    7  C6  UNL     1      29.272  15.929  15.334  1.00  0.00     0.089 A 
HETATM    8  N2  UNL     1      30.374  15.141  15.357  1.00  0.00    -0.373 N 
HETATM    9  C7  UNL     1      30.341  14.342  16.466  1.00  0.00     0.112 A 
ATOM     10  H2  UNL     1      31.114  15.144  14.654  1.00  0.00     0.164 HD
ENDBRANCH   3   5
TORSDOF 1
ENDMDL
MODEL 5
REMARK VINA RESULT: -4.518436755      1.350      2.162
REMARK  1 active torsions:
REMARK  status: ('A' for Active; 'I' for Inactive)
REMARK    1  A    between atoms: N1_3  and  C4_5 
ROOT
HETATM    1  C1  UNL     1      27.148  11.297  18.734  1.00  0.00     0.031 C 
HETATM    2  C2  UNL     1      27.828  11.756  17.848  1.00  0.00    -0.024 C 
HETATM    3  N1  UNL     1      28.621  12.303  16.814  1.00  0.00    -0.213 NA
HETATM    4  C3  UNL     1      29.834  11.513  16.716  1.00  0.00     0.133 C 
ENDROOT
BRANCH   3   5
HETATM    5  C4  UNL     1      28.919  13.653  17.078  1.00  0.00     0.038 A 
HETATM    6  C5  UNL     1      29.030  14.223  18.319  1.00  0.00     0.043 A 
HETATM    7  C6  UNL     1      29.336  15.584  18.175  1.00  0.00     0.089 A 
HETATM    8  N2  UNL     1      29.403  15.812  16.842  1.00  0.00    -0.373 N 
HETATM    9  C7  UNL     1      29.151  14.649  16.166  1.00  0.00     0.112 A 
ATOM     10  H2  UNL     1      29.609  16.712  16.408  1.00  0.00     0.164 HD
ENDBRANCH   3   5
TORSDOF 1
ENDMDL
