MODEL 1
REMARK VINA RESULT: -4.349394137      0.000      0.000
REMARK  1 active torsions:
REMARK  status: ('A' for Active; 'I' for Inactive)
REMARK    1  A    between atoms: C1_2  and  C2_4 
ROOT
HETATM    1  C2  UNL     1      29.207  15.173  17.610  1.00  0.00     0.084 A 
HETATM    2  C3  UNL     1      29.358  14.900  16.164  1.00  0.00     0.025 A 
HETATM    3  C4  UNL     1      29.435  13.854  17.106  1.00  0.00    -0.028 A 
HETATM    4  C5  UNL     1      28.776  12.605  17.257  1.00  0.00     0.011 A 
HETATM    5  C6  UNL     1      30.308  12.812  17.455  1.00  0.00     0.011 A 
ENDROOT
BRANCH   1   6
HETATM    6  C1  UNL     1      27.911  15.470  18.230  1.00  0.00     0.236 C 
HETATM    7  N1  UNL     1      27.664  14.923  19.506  1.00  0.00    -0.062 NA
HETATM    8  O1  UNL     1      27.021  16.164  17.713  1.00  0.00    -0.276 OA
ENDBRANCH   1   6
TORSDOF 1
ENDMDL
MODEL 2
REMARK VINA RESULT: -4.250943024      1.727      2.250
REMARK  1 active torsions:
REMARK  status: ('A' for Active; 'I' for Inactive)
REMARK    1  A    between atoms: C1_2  and  C2_4 
ROOT
HETATM    1  C2  UNL     1      27.859  14.705  18.740  1.00  0.00     0.084 A 
HETATM    2  C3  UNL     1      28.946  14.075  19.521  1.00  0.00     0.025 A 
HETATM    3  C4  UNL     1      28.290  13.364  18.496  1.00  0.00    -0.028 A 
HETATM    4  C5  UNL     1      28.727  12.655  17.345  1.00  0.00     0.011 A 
HETATM    5  C6  UNL     1      27.626  12.140  18.320  1.00  0.00     0.011 A 
ENDROOT
BRANCH   1   6
HETATM    6  C1  UNL     1      28.106  15.718  17.709  1.00  0.00     0.236 C 
HETATM    7  N1  UNL     1      27.037  16.574  17.371  1.00  0.00    -0.062 NA
HETATM    8  O1  UNL     1      29.185  15.875  17.115  1.00  0.00    -0.276 OA
ENDBRANCH   1   6
TORSDOF 1
ENDMDL
MODEL 3
REMARK VINA RESULT: -4.246735592      1.181      1.181
REMARK  1 active torsions:
REMARK  status: ('A' for Active; 'I' for Inactive)
REMARK    1  A    between atoms: C1_2  and  C2_4 
ROOT
HETATM    1  C2  UNL     1      29.180  15.279  17.318  1.00  0.00     0.084 A 
HETATM    2  C3  UNL     1      29.273  14.886  15.895  1.00  0.00     0.025 A 
HETATM    3  C4  UNL     1      29.409  13.926  16.917  1.00  0.00    -0.028 A 
HETATM    4  C5  UNL     1      28.780  12.685  17.204  1.00  0.00     0.011 A 
HETATM    5  C6  UNL     1      30.315  12.929  17.314  1.00  0.00     0.011 A 
ENDROOT
BRANCH   1   6
HETATM    6  C1  UNL     1      27.909  15.611  17.969  1.00  0.00     0.236 C 
HETATM    7  N1  UNL     1      27.095  16.579  17.345  1.00  0.00    -0.062 NA
HETATM    8  O1  UNL     1      27.501  15.102  19.025  1.00  0.00    -0.276 OA
ENDBRANCH   1   6
TORSDOF 1
ENDMDL
MODEL 4
REMARK VINA RESULT: -4.225249869      1.939      2.348
REMARK  1 active torsions:
REMARK  status: ('A' for Active; 'I' for Inactive)
REMARK    1  A    between atoms: C1_2  and  C2_4 
ROOT
HETATM    1  C2  UNL     1      27.970  13.900  18.480  1.00  0.00     0.084 A 
HETATM    2  C3  UNL     1      27.905  12.568  19.121  1.00  0.00     0.025 A 
HETATM    3  C4  UNL     1      28.793  12.811  18.054  1.00  0.00    -0.028 A 
HETATM    4  C5  UNL     1      30.191  12.636  17.867  1.00  0.00     0.011 A 
HETATM    5  C6  UNL     1      29.116  12.260  16.804  1.00  0.00     0.011 A 
ENDROOT
BRANCH   1   6
HETATM    6  C1  UNL     1      28.612  15.056  19.114  1.00  0.00     0.236 C 
HETATM    7  N1  UNL     1      29.222  16.004  18.267  1.00  0.00    -0.062 NA
HETATM    8  O1  UNL     1      28.657  15.257  20.339  1.00  0.00    -0.276 OA
ENDBRANCH   1   6
TORSDOF 1
ENDMDL
MODEL 5
REMARK VINA RESULT: -4.205065496      1.942      2.222
REMARK  1 active torsions:
REMARK  status: ('A' for Active; 'I' for Inactive)
REMARK    1  A    between atoms: C1_2  and  C2_4 
ROOT
HETATM    1  C2  UNL     1      29.817  13.987  17.333  1.00  0.00     0.084 A 
HETATM    2  C3  UNL     1      29.110  12.857  16.691  1.00  0.00     0.025 A 
HETATM    3  C4  UNL     1      29.067  13.033  18.088  1.00  0.00    -0.028 A 
HETATM    4  C5  UNL     1      28.021  13.124  19.045  1.00  0.00     0.011 A 
HETATM    5  C6  UNL     1      29.321  12.291  19.252  1.00  0.00     0.011 A 
ENDROOT
BRANCH   1   6
HETATM    6  C1  UNL     1      29.329  15.369  17.269  1.00  0.00     0.236 C 
HETATM    7  N1  UNL     1      28.911  15.850  16.012  1.00  0.00    -0.062 NA
HETATM    8  O1  UNL     1      29.260  16.140  18.240  1.00  0.00    -0.276 OA
ENDBRANCH   1   6
TORSDOF 1
ENDMDL
