MODEL 1
REMARK VINA RESULT: -4.633983491      0.000      0.000
REMARK  1 active torsions:
REMARK  status: ('A' for Active; 'I' for Inactive)
REMARK    1  A    between atoms: C1_4  and  C2_5 
ROOT
HETATM    1  C2  UNL     1      29.560  14.973  17.098  1.00  0.00     0.053 A 
HETATM    2  C3  UNL     1      29.955  13.641  17.445  1.00  0.00     0.021 A 
HETATM    3  C4  UNL     1      29.637  12.785  18.628  1.00  0.00     0.009 C 
HETATM    4  C5  UNL     1      28.246  12.836  17.964  1.00  0.00     0.027 C 
HETATM    5  C6  UNL     1      28.579  14.303  17.874  1.00  0.00     0.050 A 
HETATM    6 CL1  UNL     1      28.512  14.988  19.541  1.00  0.00    -0.118 Cl
ENDROOT
BRANCH   1   7
HETATM    7  C1  UNL     1      29.108  15.370  15.714  1.00  0.00     0.059 C 
HETATM    8  N1  UNL     1      29.530  16.384  15.096  1.00  0.00    -0.411 N 
ATOM      9  H12 UNL     1      30.221  16.961  15.576  1.00  0.00     0.155 HD
ATOM     10  H11 UNL     1      29.225  16.652  14.161  1.00  0.00     0.155 HD
ENDBRANCH   1   7
TORSDOF 1
ENDMDL
MODEL 2
REMARK VINA RESULT: -4.135715121      1.018      1.018
REMARK  1 active torsions:
REMARK  status: ('A' for Active; 'I' for Inactive)
REMARK    1  A    between atoms: C1_4  and  C2_5 
ROOT
HETATM    1  C2  UNL     1      29.498  14.959  17.313  1.00  0.00     0.053 A 
HETATM    2  C3  UNL     1      30.131  13.692  17.108  1.00  0.00     0.021 A 
HETATM    3  C4  UNL     1      30.137  12.438  17.922  1.00  0.00     0.009 C 
HETATM    4  C5  UNL     1      28.663  12.445  17.467  1.00  0.00     0.027 C 
HETATM    5  C6  UNL     1      28.763  13.890  17.886  1.00  0.00     0.050 A 
HETATM    6 CL1  UNL     1      28.872  13.936  19.686  1.00  0.00    -0.118 Cl
ENDROOT
BRANCH   1   7
HETATM    7  C1  UNL     1      28.773  15.711  16.223  1.00  0.00     0.059 C 
HETATM    8  N1  UNL     1      27.826  16.515  16.428  1.00  0.00    -0.411 N 
ATOM      9  H12 UNL     1      27.543  16.655  17.398  1.00  0.00     0.155 HD
ATOM     10  H11 UNL     1      27.336  17.023  15.691  1.00  0.00     0.155 HD
ENDBRANCH   1   7
TORSDOF 1
ENDMDL
MODEL 3
REMARK VINA RESULT: -4.066846021      2.620      3.112
REMARK  1 active torsions:
REMARK  status: ('A' for Active; 'I' for Inactive)
REMARK    1  A    between atoms: C1_4  and  C2_5 
ROOT
HETATM    1  C2  UNL     1      28.212  14.498  18.027  1.00  0.00     0.053 A 
HETATM    2  C3  UNL     1      28.464  13.118  17.745  1.00  0.00     0.021 A 
HETATM    3  C4  UNL     1      29.203  12.448  16.631  1.00  0.00     0.009 C 
HETATM    4  C5  UNL     1      30.384  13.130  17.353  1.00  0.00     0.027 C 
HETATM    5  C6  UNL     1      29.437  14.303  17.338  1.00  0.00     0.050 A 
HETATM    6 CL1  UNL     1      29.309  14.888  15.637  1.00  0.00    -0.118 Cl
ENDROOT
BRANCH   1   7
HETATM    7  C1  UNL     1      28.352  15.103  19.404  1.00  0.00     0.059 C 
HETATM    8  N1  UNL     1      28.939  14.541  20.366  1.00  0.00    -0.411 N 
ATOM      9  H12 UNL     1      29.340  13.620  20.188  1.00  0.00     0.155 HD
ATOM     10  H11 UNL     1      29.033  14.949  21.296  1.00  0.00     0.155 HD
ENDBRANCH   1   7
TORSDOF 1
ENDMDL
MODEL 4
REMARK VINA RESULT: -4.017471085      1.597      2.043
REMARK  1 active torsions:
REMARK  status: ('A' for Active; 'I' for Inactive)
REMARK    1  A    between atoms: C1_4  and  C2_5 
ROOT
HETATM    1  C2  UNL     1      28.800  14.331  16.814  1.00  0.00     0.053 A 
HETATM    2  C3  UNL     1      28.254  15.148  17.855  1.00  0.00     0.021 A 
HETATM    3  C4  UNL     1      27.595  14.800  19.151  1.00  0.00     0.009 C 
HETATM    4  C5  UNL     1      29.032  14.332  19.458  1.00  0.00     0.027 C 
HETATM    5  C6  UNL     1      28.894  13.716  18.089  1.00  0.00     0.050 A 
HETATM    6 CL1  UNL     1      27.737  12.339  18.217  1.00  0.00    -0.118 Cl
ENDROOT
BRANCH   1   7
HETATM    7  C1  UNL     1      30.125  14.612  16.148  1.00  0.00     0.059 C 
HETATM    8  N1  UNL     1      30.257  15.288  15.094  1.00  0.00    -0.411 N 
ATOM      9  H12 UNL     1      29.406  15.663  14.677  1.00  0.00     0.155 HD
ATOM     10  H11 UNL     1      31.153  15.478  14.644  1.00  0.00     0.155 HD
ENDBRANCH   1   7
TORSDOF 1
ENDMDL
MODEL 5
REMARK VINA RESULT: -4.015939204      1.952      2.274
REMARK  1 active torsions:
REMARK  status: ('A' for Active; 'I' for Inactive)
REMARK    1  A    between atoms: C1_4  and  C2_5 
ROOT
HETATM    1  C2  UNL     1      28.150  14.211  18.320  1.00  0.00     0.053 A 
HETATM    2  C3  UNL     1      28.956  13.612  19.341  1.00  0.00     0.021 A 
HETATM    3  C4  UNL     1      29.329  12.189  19.606  1.00  0.00     0.009 C 
HETATM    4  C5  UNL     1      30.110  12.422  18.296  1.00  0.00     0.027 C 
HETATM    5  C6  UNL     1      28.797  13.031  17.873  1.00  0.00     0.050 A 
HETATM    6 CL1  UNL     1      27.606  11.691  17.673  1.00  0.00    -0.118 Cl
ENDROOT
BRANCH   1   7
HETATM    7  C1  UNL     1      28.546  15.467  17.582  1.00  0.00     0.059 C 
HETATM    8  N1  UNL     1      27.732  16.230  16.998  1.00  0.00    -0.411 N 
ATOM      9  H12 UNL     1      26.747  15.969  17.037  1.00  0.00     0.155 HD
ATOM     10  H11 UNL     1      27.999  17.079  16.499  1.00  0.00     0.155 HD
ENDBRANCH   1   7
TORSDOF 1
ENDMDL
