MODEL 1
REMARK VINA RESULT: -4.523006821      0.000      0.000
REMARK  1 active torsions:
REMARK  status: ('A' for Active; 'I' for Inactive)
REMARK       I    between atoms: N1_3  and  C3_5 
REMARK    1  A    between atoms: C3_5  and  C4_7 
ROOT
HETATM    1  C1  UNL     1      29.288  15.746  14.715  1.00  0.00     0.037 C 
HETATM    2  C2  UNL     1      29.186  15.004  15.668  1.00  0.00     0.002 C 
HETATM    3  N1  UNL     1      29.058  14.162  16.779  1.00  0.00    -0.286 N 
ATOM      4  H1  UNL     1      28.924  13.162  16.633  1.00  0.00     0.179 HD
HETATM    5  C3  UNL     1      29.110  14.668  18.103  1.00  0.00     0.233 C 
HETATM    6  O1  UNL     1      29.276  15.904  18.258  1.00  0.00    -0.272 OA
ENDROOT
BRANCH   5   7
HETATM    7  C4  UNL     1      28.975  13.780  19.257  1.00  0.00     0.079 C 
HETATM    8  C5  UNL     1      27.658  12.994  19.278  1.00  0.00     0.014 C 
HETATM    9  C6  UNL     1      28.474  11.872  19.937  1.00  0.00     0.002 C 
HETATM   10  C7  UNL     1      29.649  12.411  19.103  1.00  0.00     0.014 C 
ENDBRANCH   5   7
TORSDOF 1
ENDMDL
MODEL 2
REMARK VINA RESULT: -4.453055547      1.759      4.304
REMARK  1 active torsions:
REMARK  status: ('A' for Active; 'I' for Inactive)
REMARK       I    between atoms: N1_3  and  C3_5 
REMARK    1  A    between atoms: C3_5  and  C4_7 
ROOT
HETATM    1  C1  UNL     1      26.747  11.098  20.533  1.00  0.00     0.037 C 
HETATM    2  C2  UNL     1      27.144  11.925  19.741  1.00  0.00     0.002 C 
HETATM    3  N1  UNL     1      27.622  12.879  18.835  1.00  0.00    -0.286 N 
ATOM      4  H1  UNL     1      27.283  12.868  17.874  1.00  0.00     0.179 HD
HETATM    5  C3  UNL     1      28.569  13.860  19.224  1.00  0.00     0.233 C 
HETATM    6  O1  UNL     1      28.974  13.855  20.413  1.00  0.00    -0.272 OA
ENDROOT
BRANCH   5   7
HETATM    7  C4  UNL     1      29.062  14.854  18.270  1.00  0.00     0.079 C 
HETATM    8  C5  UNL     1      29.384  14.272  16.887  1.00  0.00     0.014 C 
HETATM    9  C6  UNL     1      28.926  15.631  16.339  1.00  0.00     0.002 C 
HETATM   10  C7  UNL     1      27.973  15.654  17.545  1.00  0.00     0.014 C 
ENDBRANCH   5   7
TORSDOF 1
ENDMDL
MODEL 3
REMARK VINA RESULT: -4.344195897      1.564      4.329
REMARK  1 active torsions:
REMARK  status: ('A' for Active; 'I' for Inactive)
REMARK       I    between atoms: N1_3  and  C3_5 
REMARK    1  A    between atoms: C3_5  and  C4_7 
ROOT
HETATM    1  C1  UNL     1      28.675  11.310  21.225  1.00  0.00     0.037 C 
HETATM    2  C2  UNL     1      28.983  12.013  20.286  1.00  0.00     0.002 C 
HETATM    3  N1  UNL     1      29.339  12.840  19.216  1.00  0.00    -0.286 N 
ATOM      4  H1  UNL     1      29.942  12.472  18.480  1.00  0.00     0.179 HD
HETATM    5  C3  UNL     1      28.881  14.180  19.131  1.00  0.00     0.233 C 
HETATM    6  O1  UNL     1      28.140  14.612  20.048  1.00  0.00    -0.272 OA
ENDROOT
BRANCH   5   7
HETATM    7  C4  UNL     1      29.259  15.037  18.007  1.00  0.00     0.079 C 
HETATM    8  C5  UNL     1      29.424  14.279  16.683  1.00  0.00     0.014 C 
HETATM    9  C6  UNL     1      28.901  15.562  16.020  1.00  0.00     0.002 C 
HETATM   10  C7  UNL     1      28.091  15.749  17.313  1.00  0.00     0.014 C 
ENDBRANCH   5   7
TORSDOF 1
ENDMDL
MODEL 4
REMARK VINA RESULT: -4.334960174      2.055      4.526
REMARK  1 active torsions:
REMARK  status: ('A' for Active; 'I' for Inactive)
REMARK       I    between atoms: N1_3  and  C3_5 
REMARK    1  A    between atoms: C3_5  and  C4_7 
ROOT
HETATM    1  C1  UNL     1      27.111  10.589  21.330  1.00  0.00     0.037 C 
HETATM    2  C2  UNL     1      27.095  11.379  20.410  1.00  0.00     0.002 C 
HETATM    3  N1  UNL     1      27.099  12.291  19.349  1.00  0.00    -0.286 N 
ATOM      4  H1  UNL     1      26.404  12.198  18.610  1.00  0.00     0.179 HD
HETATM    5  C3  UNL     1      28.049  13.342  19.279  1.00  0.00     0.233 C 
HETATM    6  O1  UNL     1      28.896  13.438  20.201  1.00  0.00    -0.272 OA
ENDROOT
BRANCH   5   7
HETATM    7  C4  UNL     1      28.044  14.291  18.166  1.00  0.00     0.079 C 
HETATM    8  C5  UNL     1      29.001  15.475  18.362  1.00  0.00     0.014 C 
HETATM    9  C6  UNL     1      29.187  15.425  16.838  1.00  0.00     0.002 C 
HETATM   10  C7  UNL     1      28.949  13.913  16.986  1.00  0.00     0.014 C 
ENDBRANCH   5   7
TORSDOF 1
ENDMDL
MODEL 5
REMARK VINA RESULT: -4.291389990      3.312      5.125
REMARK  1 active torsions:
REMARK  status: ('A' for Active; 'I' for Inactive)
REMARK       I    between atoms: N1_3  and  C3_5 
REMARK    1  A    between atoms: C3_5  and  C4_7 
ROOT
HETATM    1  C1  UNL     1      24.099   9.950  20.338  1.00  0.00     0.037 C 
HETATM    2  C2  UNL     1      24.999  10.567  19.809  1.00  0.00     0.002 C 
HETATM    3  N1  UNL     1      26.052  11.269  19.213  1.00  0.00    -0.286 N 
ATOM      4  H1  UNL     1      26.057  11.396  18.201  1.00  0.00     0.179 HD
HETATM    5  C3  UNL     1      27.113  11.809  19.983  1.00  0.00     0.233 C 
HETATM    6  O1  UNL     1      27.086  11.641  21.228  1.00  0.00    -0.272 OA
ENDROOT
BRANCH   5   7
HETATM    7  C4  UNL     1      28.209  12.542  19.351  1.00  0.00     0.079 C 
HETATM    8  C5  UNL     1      28.283  12.348  17.830  1.00  0.00     0.014 C 
HETATM    9  C6  UNL     1      28.792  13.796  17.787  1.00  0.00     0.002 C 
HETATM   10  C7  UNL     1      27.904  14.010  19.025  1.00  0.00     0.014 C 
ENDBRANCH   5   7
TORSDOF 1
ENDMDL
