MODEL 1
REMARK VINA RESULT: -4.514427281      0.000      0.000
REMARK  1 active torsions:
REMARK  status: ('A' for Active; 'I' for Inactive)
REMARK    1  A    between atoms: C2_2  and  C3_3 
REMARK       I    between atoms: C3_3  and  N1_4 
ROOT
HETATM    1  C1  UNL     1      29.384  15.145  15.093  1.00  0.00     0.027 C 
HETATM    2  C2  UNL     1      29.135  14.702  16.515  1.00  0.00     0.055 A 
HETATM    3  C4  UNL     1      30.242  13.874  17.128  1.00  0.00     0.041 A 
HETATM    4  C5  UNL     1      28.878  13.311  16.917  1.00  0.00     0.101 A 
HETATM    5 CL1  UNL     1      27.948  13.113  18.447  1.00  0.00    -0.124 Cl
ENDROOT
BRANCH   2   6
HETATM    6  C3  UNL     1      28.599  15.815  17.395  1.00  0.00     0.225 C 
HETATM    7  N1  UNL     1      27.389  16.410  17.147  1.00  0.00    -0.369 N 
ATOM      8  H12 UNL     1      26.795  16.150  16.360  1.00  0.00     0.159 HD
ATOM      9  H11 UNL     1      27.029  17.158  17.738  1.00  0.00     0.159 HD
HETATM   10  O1  UNL     1      29.320  16.130  18.350  1.00  0.00    -0.273 OA
ENDBRANCH   2   6
TORSDOF 1
ENDMDL
MODEL 2
REMARK VINA RESULT: -4.329433727      1.816      1.927
REMARK  1 active torsions:
REMARK  status: ('A' for Active; 'I' for Inactive)
REMARK    1  A    between atoms: C2_2  and  C3_3 
REMARK       I    between atoms: C3_3  and  N1_4 
ROOT
HETATM    1  C1  UNL     1      29.618  14.642  16.552  1.00  0.00     0.027 C 
HETATM    2  C2  UNL     1      29.003  13.894  17.710  1.00  0.00     0.055 A 
HETATM    3  C4  UNL     1      29.877  12.815  18.309  1.00  0.00     0.041 A 
HETATM    4  C5  UNL     1      28.578  12.487  17.656  1.00  0.00     0.101 A 
HETATM    5 CL1  UNL     1      27.291  12.027  18.829  1.00  0.00    -0.124 Cl
ENDROOT
BRANCH   2   6
HETATM    6  C3  UNL     1      28.329  14.809  18.713  1.00  0.00     0.225 C 
HETATM    7  N1  UNL     1      28.783  14.926  20.001  1.00  0.00    -0.369 N 
ATOM      8  H12 UNL     1      29.583  14.402  20.356  1.00  0.00     0.159 HD
ATOM      9  H11 UNL     1      28.329  15.541  20.676  1.00  0.00     0.159 HD
HETATM   10  O1  UNL     1      27.358  15.445  18.282  1.00  0.00    -0.273 OA
ENDBRANCH   2   6
TORSDOF 1
ENDMDL
MODEL 3
REMARK VINA RESULT: -4.120697844      1.979      2.138
REMARK  1 active torsions:
REMARK  status: ('A' for Active; 'I' for Inactive)
REMARK    1  A    between atoms: C2_2  and  C3_3 
REMARK       I    between atoms: C3_3  and  N1_4 
ROOT
HETATM    1  C1  UNL     1      29.285  15.387  17.319  1.00  0.00     0.027 C 
HETATM    2  C2  UNL     1      28.995  14.069  17.995  1.00  0.00     0.055 A 
HETATM    3  C4  UNL     1      30.052  13.006  17.802  1.00  0.00     0.041 A 
HETATM    4  C5  UNL     1      28.667  12.825  17.281  1.00  0.00     0.101 A 
HETATM    5 CL1  UNL     1      27.706  11.628  18.222  1.00  0.00    -0.124 Cl
ENDROOT
BRANCH   2   6
HETATM    6  C3  UNL     1      28.495  14.231  19.417  1.00  0.00     0.225 C 
HETATM    7  N1  UNL     1      27.302  14.845  19.697  1.00  0.00    -0.369 N 
ATOM      8  H12 UNL     1      26.696  15.233  18.974  1.00  0.00     0.159 HD
ATOM      9  H11 UNL     1      26.967  14.955  20.654  1.00  0.00     0.159 HD
HETATM   10  O1  UNL     1      29.232  13.761  20.294  1.00  0.00    -0.273 OA
ENDBRANCH   2   6
TORSDOF 1
ENDMDL
MODEL 4
REMARK VINA RESULT: -4.079892600      2.644      3.294
REMARK  1 active torsions:
REMARK  status: ('A' for Active; 'I' for Inactive)
REMARK    1  A    between atoms: C2_2  and  C3_3 
REMARK       I    between atoms: C3_3  and  N1_4 
ROOT
HETATM    1  C1  UNL     1      27.778  13.458  18.897  1.00  0.00     0.027 C 
HETATM    2  C2  UNL     1      28.651  14.174  17.895  1.00  0.00     0.055 A 
HETATM    3  C4  UNL     1      29.162  15.524  18.344  1.00  0.00     0.041 A 
HETATM    4  C5  UNL     1      28.254  15.390  17.169  1.00  0.00     0.101 A 
HETATM    5 CL1  UNL     1      29.088  15.652  15.594  1.00  0.00    -0.124 Cl
ENDROOT
BRANCH   2   6
HETATM    6  C3  UNL     1      29.689  13.268  17.263  1.00  0.00     0.225 C 
HETATM    7  N1  UNL     1      29.516  12.736  16.011  1.00  0.00    -0.369 N 
ATOM      8  H12 UNL     1      28.684  12.908  15.447  1.00  0.00     0.159 HD
ATOM      9  H11 UNL     1      30.214  12.127  15.586  1.00  0.00     0.159 HD
HETATM   10  O1  UNL     1      30.699  13.059  17.948  1.00  0.00    -0.273 OA
ENDBRANCH   2   6
TORSDOF 1
ENDMDL
MODEL 5
REMARK VINA RESULT: -4.074314011      2.571      3.246
REMARK  1 active torsions:
REMARK  status: ('A' for Active; 'I' for Inactive)
REMARK    1  A    between atoms: C2_2  and  C3_3 
REMARK       I    between atoms: C3_3  and  N1_4 
ROOT
HETATM    1  C1  UNL     1      30.145  11.572  18.809  1.00  0.00     0.027 C 
HETATM    2  C2  UNL     1      29.405  12.836  18.442  1.00  0.00     0.055 A 
HETATM    3  C4  UNL     1      28.807  12.845  17.053  1.00  0.00     0.041 A 
HETATM    4  C5  UNL     1      29.873  13.811  17.445  1.00  0.00     0.101 A 
HETATM    5 CL1  UNL     1      29.262  15.491  17.666  1.00  0.00    -0.124 Cl
ENDROOT
BRANCH   2   6
HETATM    6  C3  UNL     1      28.484  13.323  19.544  1.00  0.00     0.225 C 
HETATM    7  N1  UNL     1      27.154  12.996  19.568  1.00  0.00    -0.369 N 
ATOM      8  H12 UNL     1      26.710  12.424  18.850  1.00  0.00     0.159 HD
ATOM      9  H11 UNL     1      26.534  13.324  20.309  1.00  0.00     0.159 HD
HETATM   10  O1  UNL     1      29.023  14.018  20.416  1.00  0.00    -0.273 OA
ENDBRANCH   2   6
TORSDOF 1
ENDMDL
