MODEL 1
REMARK VINA RESULT: -4.266085174      0.000      0.000
REMARK  5 active torsions:
REMARK  status: ('A' for Active; 'I' for Inactive)
REMARK    1  A    between atoms: C2_2  and  C3_3 
REMARK    2  A    between atoms: C3_3  and  C4_4 
REMARK    3  A    between atoms: C5_5  and  C6_6 
REMARK    4  A    between atoms: C7_7  and  C8_8 
REMARK    5  A    between atoms: C8_8  and  N1_10 
ROOT
HETATM    1  C6  UNL     1      28.539  12.608  17.378  1.00  0.00    -0.077 C 
HETATM    2  C7  UNL     1      29.072  13.639  17.011  1.00  0.00    -0.069 C 
ENDROOT
BRANCH   2   3
HETATM    3  C8  UNL     1      29.713  14.896  16.595  1.00  0.00     0.260 C 
HETATM    4  C9  UNL     1      29.312  15.240  15.169  1.00  0.00     0.054 C 
BRANCH   3   5
HETATM    5  N1  UNL     1      29.242  15.903  17.521  1.00  0.00    -0.065 N 
HETATM    6  C10 UNL     1      27.777  16.043  17.472  1.00  0.00     0.268 C 
ATOM      7  H12 UNL     1      29.566  15.716  18.470  1.00  0.00     0.278 HD
ATOM      8  H11 UNL     1      29.706  16.798  17.368  1.00  0.00     0.278 HD
ENDBRANCH   3   5
ENDBRANCH   2   3
BRANCH   1   9
HETATM    9  C5  UNL     1      27.910  11.408  17.836  1.00  0.00     0.060 C 
HETATM   10  C4  UNL     1      27.080  11.469  18.858  1.00  0.00    -0.014 C 
BRANCH  10  11
HETATM   11  C3  UNL     1      26.384  10.269  19.399  1.00  0.00     0.054 C 
BRANCH  11  12
HETATM   12  C2  UNL     1      24.947  10.347  19.026  1.00  0.00    -0.033 C 
HETATM   13  C1  UNL     1      24.036  10.376  19.976  1.00  0.00     0.007 C 
ENDBRANCH  11  12
ENDBRANCH  10  11
ENDBRANCH   1   9
TORSDOF 5
ENDMDL
MODEL 2
REMARK VINA RESULT: -4.253161422      3.344      6.227
REMARK  5 active torsions:
REMARK  status: ('A' for Active; 'I' for Inactive)
REMARK    1  A    between atoms: C2_2  and  C3_3 
REMARK    2  A    between atoms: C3_3  and  C4_4 
REMARK    3  A    between atoms: C5_5  and  C6_6 
REMARK    4  A    between atoms: C7_7  and  C8_8 
REMARK    5  A    between atoms: C8_8  and  N1_10 
ROOT
HETATM    1  C6  UNL     1      29.105  12.964  19.595  1.00  0.00    -0.077 C 
HETATM    2  C7  UNL     1      28.937  12.225  20.547  1.00  0.00    -0.069 C 
ENDROOT
BRANCH   2   3
HETATM    3  C8  UNL     1      28.705  11.332  21.693  1.00  0.00     0.260 C 
HETATM    4  C9  UNL     1      29.542  10.071  21.551  1.00  0.00     0.054 C 
BRANCH   3   5
HETATM    5  N1  UNL     1      29.100  12.085  22.864  1.00  0.00    -0.065 N 
HETATM    6  C10 UNL     1      28.456  11.569  24.084  1.00  0.00     0.268 C 
ATOM      7  H12 UNL     1      30.115  12.115  22.963  1.00  0.00     0.278 HD
ATOM      8  H11 UNL     1      28.922  13.083  22.743  1.00  0.00     0.278 HD
ENDBRANCH   3   5
ENDBRANCH   2   3
BRANCH   1   9
HETATM    9  C5  UNL     1      29.274  13.832  18.470  1.00  0.00     0.060 C 
HETATM   10  C4  UNL     1      28.354  14.742  18.220  1.00  0.00    -0.014 C 
BRANCH  10  11
HETATM   11  C3  UNL     1      28.451  15.685  17.072  1.00  0.00     0.054 C 
BRANCH  11  12
HETATM   12  C2  UNL     1      29.309  15.071  16.025  1.00  0.00    -0.033 C 
HETATM   13  C1  UNL     1      29.331  15.599  14.819  1.00  0.00     0.007 C 
ENDBRANCH  11  12
ENDBRANCH  10  11
ENDBRANCH   1   9
TORSDOF 5
ENDMDL
MODEL 3
REMARK VINA RESULT: -4.207418448      3.876      5.467
REMARK  5 active torsions:
REMARK  status: ('A' for Active; 'I' for Inactive)
REMARK    1  A    between atoms: C2_2  and  C3_3 
REMARK    2  A    between atoms: C3_3  and  C4_4 
REMARK    3  A    between atoms: C5_5  and  C6_6 
REMARK    4  A    between atoms: C7_7  and  C8_8 
REMARK    5  A    between atoms: C8_8  and  N1_10 
ROOT
HETATM    1  C6  UNL     1      30.508  12.264  17.880  1.00  0.00    -0.077 C 
HETATM    2  C7  UNL     1      29.970  13.261  17.438  1.00  0.00    -0.069 C 
ENDROOT
BRANCH   2   3
HETATM    3  C8  UNL     1      29.297  14.451  16.893  1.00  0.00     0.260 C 
HETATM    4  C9  UNL     1      29.174  15.520  17.968  1.00  0.00     0.054 C 
BRANCH   3   5
HETATM    5  N1  UNL     1      30.129  14.909  15.802  1.00  0.00    -0.065 N 
HETATM    6  C10 UNL     1      29.340  15.608  14.773  1.00  0.00     0.268 C 
ATOM      7  H12 UNL     1      30.899  15.487  16.138  1.00  0.00     0.278 HD
ATOM      8  H11 UNL     1      30.670  14.143  15.399  1.00  0.00     0.278 HD
ENDBRANCH   3   5
ENDBRANCH   2   3
BRANCH   1   9
HETATM    9  C5  UNL     1      31.118  11.075  18.392  1.00  0.00     0.060 C 
HETATM   10  C4  UNL     1      32.287  10.698  17.913  1.00  0.00    -0.014 C 
BRANCH  10  11
HETATM   11  C3  UNL     1      32.992   9.475  18.388  1.00  0.00     0.054 C 
BRANCH  11  12
HETATM   12  C2  UNL     1      34.448   9.643  18.144  1.00  0.00    -0.033 C 
HETATM   13  C1  UNL     1      35.123  10.522  18.856  1.00  0.00     0.007 C 
ENDBRANCH  11  12
ENDBRANCH  10  11
ENDBRANCH   1   9
TORSDOF 5
ENDMDL
MODEL 4
REMARK VINA RESULT: -4.195843823      1.057      1.657
REMARK  5 active torsions:
REMARK  status: ('A' for Active; 'I' for Inactive)
REMARK    1  A    between atoms: C2_2  and  C3_3 
REMARK    2  A    between atoms: C3_3  and  C4_4 
REMARK    3  A    between atoms: C5_5  and  C6_6 
REMARK    4  A    between atoms: C7_7  and  C8_8 
REMARK    5  A    between atoms: C8_8  and  N1_10 
ROOT
HETATM    1  C6  UNL     1      28.133  12.518  17.963  1.00  0.00    -0.077 C 
HETATM    2  C7  UNL     1      28.402  13.667  17.666  1.00  0.00    -0.069 C 
ENDROOT
BRANCH   2   3
HETATM    3  C8  UNL     1      28.700  15.059  17.293  1.00  0.00     0.260 C 
HETATM    4  C9  UNL     1      29.081  15.861  18.527  1.00  0.00     0.054 C 
BRANCH   3   5
HETATM    5  N1  UNL     1      29.806  14.987  16.362  1.00  0.00    -0.065 N 
HETATM    6  C10 UNL     1      29.406  15.416  15.011  1.00  0.00     0.268 C 
ATOM      7  H12 UNL     1      30.610  15.516  16.698  1.00  0.00     0.278 HD
ATOM      8  H11 UNL     1      30.222  14.056  16.348  1.00  0.00     0.278 HD
ENDBRANCH   3   5
ENDBRANCH   2   3
BRANCH   1   9
HETATM    9  C5  UNL     1      27.793  11.170  18.298  1.00  0.00     0.060 C 
HETATM   10  C4  UNL     1      26.531  10.794  18.238  1.00  0.00    -0.014 C 
BRANCH  10  11
HETATM   11  C3  UNL     1      26.089   9.411  18.570  1.00  0.00     0.054 C 
BRANCH  11  12
HETATM   12  C2  UNL     1      24.686   9.467  19.059  1.00  0.00    -0.033 C 
HETATM   13  C1  UNL     1      24.261  10.551  19.674  1.00  0.00     0.007 C 
ENDBRANCH  11  12
ENDBRANCH  10  11
ENDBRANCH   1   9
TORSDOF 5
ENDMDL
MODEL 5
REMARK VINA RESULT: -4.177594385      2.280      6.174
REMARK  5 active torsions:
REMARK  status: ('A' for Active; 'I' for Inactive)
REMARK    1  A    between atoms: C2_2  and  C3_3 
REMARK    2  A    between atoms: C3_3  and  C4_4 
REMARK    3  A    between atoms: C5_5  and  C6_6 
REMARK    4  A    between atoms: C7_7  and  C8_8 
REMARK    5  A    between atoms: C8_8  and  N1_10 
ROOT
HETATM    1  C6  UNL     1      27.765  12.166  18.413  1.00  0.00    -0.077 C 
HETATM    2  C7  UNL     1      27.102  11.362  19.040  1.00  0.00    -0.069 C 
ENDROOT
BRANCH   2   3
HETATM    3  C8  UNL     1      26.278  10.409  19.800  1.00  0.00     0.260 C 
HETATM    4  C9  UNL     1      26.822  10.258  21.212  1.00  0.00     0.054 C 
BRANCH   3   5
HETATM    5  N1  UNL     1      24.944  10.969  19.817  1.00  0.00    -0.065 N 
HETATM    6  C10 UNL     1      23.930   9.947  20.125  1.00  0.00     0.268 C 
ATOM      7  H12 UNL     1      24.881  11.761  20.457  1.00  0.00     0.278 HD
ATOM      8  H11 UNL     1      24.732  11.453  18.944  1.00  0.00     0.278 HD
ENDBRANCH   3   5
ENDBRANCH   2   3
BRANCH   1   9
HETATM    9  C5  UNL     1      28.524  13.131  17.677  1.00  0.00     0.060 C 
HETATM   10  C4  UNL     1      28.364  14.412  17.946  1.00  0.00    -0.014 C 
BRANCH  10  11
HETATM   11  C3  UNL     1      29.112  15.481  17.230  1.00  0.00     0.054 C 
BRANCH  11  12
HETATM   12  C2  UNL     1      29.527  14.960  15.901  1.00  0.00    -0.033 C 
HETATM   13  C1  UNL     1      29.244  15.656  14.819  1.00  0.00     0.007 C 
ENDBRANCH  11  12
ENDBRANCH  10  11
ENDBRANCH   1   9
TORSDOF 5
ENDMDL
