MODEL 1
REMARK VINA RESULT: -4.504481628      0.000      0.000
REMARK  3 active torsions:
REMARK  status: ('A' for Active; 'I' for Inactive)
REMARK    1  A    between atoms: C2_2  and  C3_3 
REMARK    2  A    between atoms: C2_2  and  C7_8 
REMARK    3  A    between atoms: C3_3  and  N1_4 
ROOT
HETATM    1  C1  UNL     1      29.416  15.145  15.286  1.00  0.00     0.023 C 
HETATM    2  C2  UNL     1      28.992  14.610  16.679  1.00  0.00     0.109 C 
ENDROOT
BRANCH   2   3
HETATM    3  C3  UNL     1      30.139  13.817  17.160  1.00  0.00     0.251 C 
BRANCH   3   4
HETATM    4  N1  UNL     1      29.924  12.614  17.861  1.00  0.00    -0.078 N 
HETATM    5  C4  UNL     1      30.977  11.673  17.928  1.00  0.00     0.271 C 
HETATM    6  C5  UNL     1      28.771  11.937  17.227  1.00  0.00     0.271 C 
HETATM    7  C6  UNL     1      29.465  12.850  19.237  1.00  0.00     0.271 C 
ENDBRANCH   3   4
ENDBRANCH   2   3
BRANCH   2   8
HETATM    8  C7  UNL     1      28.657  15.845  17.396  1.00  0.00     0.178 C 
HETATM    9  O1  UNL     1      29.329  16.253  18.354  1.00  0.00    -0.648 OA
HETATM   10  O2  UNL     1      27.560  16.575  16.991  1.00  0.00    -0.648 OA
ENDBRANCH   2   8
TORSDOF 3
ENDMDL
MODEL 2
REMARK VINA RESULT: -4.491768514      0.098      1.265
REMARK  3 active torsions:
REMARK  status: ('A' for Active; 'I' for Inactive)
REMARK    1  A    between atoms: C2_2  and  C3_3 
REMARK    2  A    between atoms: C2_2  and  C7_8 
REMARK    3  A    between atoms: C3_3  and  N1_4 
ROOT
HETATM    1  C1  UNL     1      29.458  15.202  15.267  1.00  0.00     0.023 C 
HETATM    2  C2  UNL     1      28.958  14.640  16.623  1.00  0.00     0.109 C 
ENDROOT
BRANCH   2   3
HETATM    3  C3  UNL     1      30.053  13.787  17.122  1.00  0.00     0.251 C 
BRANCH   3   4
HETATM    4  N1  UNL     1      29.765  12.653  17.908  1.00  0.00    -0.078 N 
HETATM    5  C4  UNL     1      29.449  12.838  19.273  1.00  0.00     0.271 C 
HETATM    6  C5  UNL     1      30.950  11.767  17.849  1.00  0.00     0.271 C 
HETATM    7  C6  UNL     1      28.697  11.831  17.323  1.00  0.00     0.271 C 
ENDBRANCH   3   4
ENDBRANCH   2   3
BRANCH   2   8
HETATM    8  C7  UNL     1      28.643  15.864  17.368  1.00  0.00     0.178 C 
HETATM    9  O1  UNL     1      29.333  16.251  18.321  1.00  0.00    -0.648 OA
HETATM   10  O2  UNL     1      27.541  16.606  16.997  1.00  0.00    -0.648 OA
ENDBRANCH   2   8
TORSDOF 3
ENDMDL
MODEL 3
REMARK VINA RESULT: -4.487432872      0.120      1.620
REMARK  3 active torsions:
REMARK  status: ('A' for Active; 'I' for Inactive)
REMARK    1  A    between atoms: C2_2  and  C3_3 
REMARK    2  A    between atoms: C2_2  and  C7_8 
REMARK    3  A    between atoms: C3_3  and  N1_4 
ROOT
HETATM    1  C1  UNL     1      29.469  15.194  15.253  1.00  0.00     0.023 C 
HETATM    2  C2  UNL     1      28.937  14.642  16.601  1.00  0.00     0.109 C 
ENDROOT
BRANCH   2   3
HETATM    3  C3  UNL     1      30.033  13.821  17.149  1.00  0.00     0.251 C 
BRANCH   3   4
HETATM    4  N1  UNL     1      29.745  12.688  17.935  1.00  0.00    -0.078 N 
HETATM    5  C4  UNL     1      29.425  12.874  19.300  1.00  0.00     0.271 C 
HETATM    6  C5  UNL     1      30.930  11.803  17.880  1.00  0.00     0.271 C 
HETATM    7  C6  UNL     1      28.678  11.865  17.349  1.00  0.00     0.271 C 
ENDBRANCH   3   4
ENDBRANCH   2   3
BRANCH   2   8
HETATM    8  C7  UNL     1      28.570  15.869  17.316  1.00  0.00     0.178 C 
HETATM    9  O1  UNL     1      27.594  16.557  16.986  1.00  0.00    -0.648 OA
HETATM   10  O2  UNL     1      29.336  16.270  18.390  1.00  0.00    -0.648 OA
ENDBRANCH   2   8
TORSDOF 3
ENDMDL
MODEL 4
REMARK VINA RESULT: -4.430512317      0.098      1.280
REMARK  3 active torsions:
REMARK  status: ('A' for Active; 'I' for Inactive)
REMARK    1  A    between atoms: C2_2  and  C3_3 
REMARK    2  A    between atoms: C2_2  and  C7_8 
REMARK    3  A    between atoms: C3_3  and  N1_4 
ROOT
HETATM    1  C1  UNL     1      29.452  15.198  15.280  1.00  0.00     0.023 C 
HETATM    2  C2  UNL     1      28.961  14.634  16.639  1.00  0.00     0.109 C 
ENDROOT
BRANCH   2   3
HETATM    3  C3  UNL     1      30.066  13.793  17.137  1.00  0.00     0.251 C 
BRANCH   3   4
HETATM    4  N1  UNL     1      29.792  12.559  17.760  1.00  0.00    -0.078 N 
HETATM    5  C4  UNL     1      28.726  11.773  17.265  1.00  0.00     0.271 C 
HETATM    6  C5  UNL     1      29.503  12.842  19.184  1.00  0.00     0.271 C 
HETATM    7  C6  UNL     1      30.978  11.694  17.819  1.00  0.00     0.271 C 
ENDBRANCH   3   4
ENDBRANCH   2   3
BRANCH   2   8
HETATM    8  C7  UNL     1      28.635  15.855  17.383  1.00  0.00     0.178 C 
HETATM    9  O1  UNL     1      29.330  16.257  18.326  1.00  0.00    -0.648 OA
HETATM   10  O2  UNL     1      27.519  16.579  17.020  1.00  0.00    -0.648 OA
ENDBRANCH   2   8
TORSDOF 3
ENDMDL
MODEL 5
REMARK VINA RESULT: -4.244903878      1.103      1.813
REMARK  3 active torsions:
REMARK  status: ('A' for Active; 'I' for Inactive)
REMARK    1  A    between atoms: C2_2  and  C3_3 
REMARK    2  A    between atoms: C2_2  and  C7_8 
REMARK    3  A    between atoms: C3_3  and  N1_4 
ROOT
HETATM    1  C1  UNL     1      29.264  15.253  15.800  1.00  0.00     0.023 C 
HETATM    2  C2  UNL     1      28.822  14.289  16.931  1.00  0.00     0.109 C 
ENDROOT
BRANCH   2   3
HETATM    3  C3  UNL     1      29.879  13.262  17.007  1.00  0.00     0.251 C 
BRANCH   3   4
HETATM    4  N1  UNL     1      29.565  11.951  17.416  1.00  0.00    -0.078 N 
HETATM    5  C4  UNL     1      28.205  11.571  17.484  1.00  0.00     0.271 C 
HETATM    6  C5  UNL     1      30.140  11.764  18.768  1.00  0.00     0.271 C 
HETATM    7  C6  UNL     1      30.259  10.939  16.609  1.00  0.00     0.271 C 
ENDBRANCH   3   4
ENDBRANCH   2   3
BRANCH   2   8
HETATM    8  C7  UNL     1      28.662  15.199  18.070  1.00  0.00     0.178 C 
HETATM    9  O1  UNL     1      29.350  16.221  18.198  1.00  0.00    -0.648 OA
HETATM   10  O2  UNL     1      27.716  14.908  19.029  1.00  0.00    -0.648 OA
ENDBRANCH   2   8
TORSDOF 3
ENDMDL
