MODEL 1
REMARK VINA RESULT: -4.855972363      0.000      0.000
REMARK  3 active torsions:
REMARK  status: ('A' for Active; 'I' for Inactive)
REMARK    1  A    between atoms: C2_2  and  C8_9 
REMARK    2  A    between atoms: C3_3  and  C4_4 
REMARK    3  A    between atoms: C4_4  and  N1_5 
ROOT
HETATM    1  C1  UNL     1      27.388  10.894  17.738  1.00  0.00     0.055 C 
HETATM    2  C2  UNL     1      27.385  11.888  18.834  1.00  0.00     0.012 C 
HETATM    3  C3  UNL     1      28.003  13.043  18.690  1.00  0.00     0.014 C 
ENDROOT
BRANCH   3   4
HETATM    4  C4  UNL     1      28.693  13.336  17.435  1.00  0.00     0.265 C 
BRANCH   4   5
HETATM    5  N1  UNL     1      28.786  14.749  17.142  1.00  0.00    -0.065 N 
HETATM    6  C5  UNL     1      29.180  15.168  15.807  1.00  0.00     0.273 C 
HETATM    7  C6  UNL     1      27.764  15.540  17.829  1.00  0.00     0.265 A 
HETATM    8  C7  UNL     1      29.174  15.660  18.227  1.00  0.00     0.265 A 
ENDBRANCH   4   5
ENDBRANCH   3   4
BRANCH   2   9
HETATM    9  C8  UNL     1      26.706  11.614  20.086  1.00  0.00     0.204 C 
HETATM   10  O1  UNL     1      27.281  11.879  21.166  1.00  0.00    -0.644 OA
HETATM   11  O2  UNL     1      25.432  11.066  20.142  1.00  0.00    -0.644 OA
ENDBRANCH   2   9
TORSDOF 3
ENDMDL
MODEL 2
REMARK VINA RESULT: -4.648695156      3.521      5.015
REMARK  3 active torsions:
REMARK  status: ('A' for Active; 'I' for Inactive)
REMARK    1  A    between atoms: C2_2  and  C8_9 
REMARK    2  A    between atoms: C3_3  and  C4_4 
REMARK    3  A    between atoms: C4_4  and  N1_5 
ROOT
HETATM    1  C1  UNL     1      29.087  15.685  18.332  1.00  0.00     0.055 C 
HETATM    2  C2  UNL     1      29.280  15.056  17.007  1.00  0.00     0.012 C 
HETATM    3  C3  UNL     1      29.712  13.814  16.914  1.00  0.00     0.014 C 
ENDROOT
BRANCH   3   4
HETATM    4  C4  UNL     1      30.000  13.060  18.133  1.00  0.00     0.265 C 
BRANCH   4   5
HETATM    5  N1  UNL     1      28.975  12.100  18.475  1.00  0.00    -0.065 N 
HETATM    6  C5  UNL     1      28.350  11.327  17.415  1.00  0.00     0.273 C 
HETATM    7  C6  UNL     1      29.232  11.425  19.748  1.00  0.00     0.265 A 
HETATM    8  C7  UNL     1      28.119  12.380  19.636  1.00  0.00     0.265 A 
ENDBRANCH   4   5
ENDBRANCH   3   4
BRANCH   2   9
HETATM    9  C8  UNL     1      29.000  15.788  15.787  1.00  0.00     0.204 C 
HETATM   10  O1  UNL     1      28.345  16.854  15.849  1.00  0.00    -0.644 OA
HETATM   11  O2  UNL     1      29.429  15.356  14.540  1.00  0.00    -0.644 OA
ENDBRANCH   2   9
TORSDOF 3
ENDMDL
MODEL 3
REMARK VINA RESULT: -4.622938649      3.335      4.773
REMARK  3 active torsions:
REMARK  status: ('A' for Active; 'I' for Inactive)
REMARK    1  A    between atoms: C2_2  and  C8_9 
REMARK    2  A    between atoms: C3_3  and  C4_4 
REMARK    3  A    between atoms: C4_4  and  N1_5 
ROOT
HETATM    1  C1  UNL     1      29.218  15.711  15.175  1.00  0.00     0.055 C 
HETATM    2  C2  UNL     1      28.541  15.809  16.487  1.00  0.00     0.012 C 
HETATM    3  C3  UNL     1      28.914  15.041  17.491  1.00  0.00     0.014 C 
ENDROOT
BRANCH   3   4
HETATM    4  C4  UNL     1      30.007  14.089  17.299  1.00  0.00     0.265 C 
BRANCH   4   5
HETATM    5  N1  UNL     1      29.875  12.889  18.093  1.00  0.00    -0.065 N 
HETATM    6  C5  UNL     1      30.908  11.870  18.010  1.00  0.00     0.273 C 
HETATM    7  C6  UNL     1      29.270  13.138  19.402  1.00  0.00     0.265 A 
HETATM    8  C7  UNL     1      28.523  12.390  18.380  1.00  0.00     0.265 A 
ENDBRANCH   4   5
ENDBRANCH   3   4
BRANCH   2   9
HETATM    9  C8  UNL     1      27.456  16.748  16.696  1.00  0.00     0.204 C 
HETATM   10  O1  UNL     1      26.657  16.561  17.643  1.00  0.00    -0.644 OA
HETATM   11  O2  UNL     1      27.259  17.857  15.885  1.00  0.00    -0.644 OA
ENDBRANCH   2   9
TORSDOF 3
ENDMDL
MODEL 4
REMARK VINA RESULT: -4.616739980      3.143      4.678
REMARK  3 active torsions:
REMARK  status: ('A' for Active; 'I' for Inactive)
REMARK    1  A    between atoms: C2_2  and  C8_9 
REMARK    2  A    between atoms: C3_3  and  C4_4 
REMARK    3  A    between atoms: C4_4  and  N1_5 
ROOT
HETATM    1  C1  UNL     1      29.518  13.247  16.499  1.00  0.00     0.055 C 
HETATM    2  C2  UNL     1      28.767  14.130  17.419  1.00  0.00     0.012 C 
HETATM    3  C3  UNL     1      27.948  13.618  18.315  1.00  0.00     0.014 C 
ENDROOT
BRANCH   3   4
HETATM    4  C4  UNL     1      27.786  12.168  18.395  1.00  0.00     0.265 C 
BRANCH   4   5
HETATM    5  N1  UNL     1      27.993  11.634  19.722  1.00  0.00    -0.065 N 
HETATM    6  C5  UNL     1      26.863  11.067  20.439  1.00  0.00     0.273 C 
HETATM    7  C6  UNL     1      29.293  10.979  19.875  1.00  0.00     0.265 A 
HETATM    8  C7  UNL     1      29.026  12.250  20.566  1.00  0.00     0.265 A 
ENDBRANCH   4   5
ENDBRANCH   3   4
BRANCH   2   9
HETATM    9  C8  UNL     1      28.915  15.571  17.354  1.00  0.00     0.204 C 
HETATM   10  O1  UNL     1      29.370  16.185  18.346  1.00  0.00    -0.644 OA
HETATM   11  O2  UNL     1      28.571  16.309  16.230  1.00  0.00    -0.644 OA
ENDBRANCH   2   9
TORSDOF 3
ENDMDL
MODEL 5
REMARK VINA RESULT: -4.604105606      3.151      4.671
REMARK  3 active torsions:
REMARK  status: ('A' for Active; 'I' for Inactive)
REMARK    1  A    between atoms: C2_2  and  C8_9 
REMARK    2  A    between atoms: C3_3  and  C4_4 
REMARK    3  A    between atoms: C4_4  and  N1_5 
ROOT
HETATM    1  C1  UNL     1      29.848  14.435  16.906  1.00  0.00     0.055 C 
HETATM    2  C2  UNL     1      28.605  14.950  17.521  1.00  0.00     0.012 C 
HETATM    3  C3  UNL     1      28.086  14.355  18.576  1.00  0.00     0.014 C 
ENDROOT
BRANCH   3   4
HETATM    4  C4  UNL     1      28.750  13.179  19.136  1.00  0.00     0.265 C 
BRANCH   4   5
HETATM    5  N1  UNL     1      27.968  11.968  19.032  1.00  0.00    -0.065 N 
HETATM    6  C5  UNL     1      27.755  11.375  17.722  1.00  0.00     0.273 C 
HETATM    7  C6  UNL     1      28.170  11.062  20.163  1.00  0.00     0.265 A 
HETATM    8  C7  UNL     1      26.884  11.755  20.001  1.00  0.00     0.265 A 
ENDBRANCH   4   5
ENDBRANCH   3   4
BRANCH   2   9
HETATM    9  C8  UNL     1      27.933  16.115  16.979  1.00  0.00     0.204 C 
HETATM   10  O1  UNL     1      28.442  16.719  16.007  1.00  0.00    -0.644 OA
HETATM   11  O2  UNL     1      26.738  16.597  17.495  1.00  0.00    -0.644 OA
ENDBRANCH   2   9
TORSDOF 3
ENDMDL
