MODEL 1
REMARK VINA RESULT: -5.148468292      0.000      0.000
REMARK  2 active torsions:
REMARK  status: ('A' for Active; 'I' for Inactive)
REMARK    1  A    between atoms: C2_2  and  C3_3 
REMARK    2  A    between atoms: C7_10  and  C9_12 
ROOT
HETATM    1  C3  UNL     1      78.755  52.957  34.692  1.00  0.00     0.220 C 
HETATM    2  N1  UNL     1      79.584  52.287  33.696  1.00  0.00    -0.063 N 
ATOM      3  H11 UNL     1      79.239  51.380  33.383  1.00  0.00     0.278 HD
ATOM      4  H12 UNL     1      80.477  51.934  34.041  1.00  0.00     0.278 HD
HETATM    5  C4  UNL     1      79.679  53.303  32.662  1.00  0.00     0.183 C 
HETATM    6  C5  UNL     1      80.275  52.771  31.397  1.00  0.00     0.040 C 
HETATM    7  C6  UNL     1      78.185  53.622  32.495  1.00  0.00     0.048 C 
HETATM    8  C7  UNL     1      77.835  53.878  33.965  1.00  0.00     0.007 C 
HETATM    9  C8  UNL     1      78.176  55.342  34.219  1.00  0.00     0.022 C 
ENDROOT
BRANCH   8  10
HETATM   10  C9  UNL     1      76.412  53.695  34.248  1.00  0.00    -0.025 C 
HETATM   11  C10 UNL     1      75.501  53.933  33.314  1.00  0.00     0.008 C 
ENDBRANCH   8  10
BRANCH   1  12
HETATM   12  C2  UNL     1      78.058  51.970  35.554  1.00  0.00    -0.004 C 
HETATM   13  C1  UNL     1      78.680  50.976  36.170  1.00  0.00     0.009 C 
ENDBRANCH   1  12
TORSDOF 2
ENDMDL
MODEL 2
REMARK VINA RESULT: -5.072446970      1.440      3.297
REMARK  2 active torsions:
REMARK  status: ('A' for Active; 'I' for Inactive)
REMARK    1  A    between atoms: C2_2  and  C3_3 
REMARK    2  A    between atoms: C7_10  and  C9_12 
ROOT
HETATM    1  C3  UNL     1      78.055  53.544  33.883  1.00  0.00     0.220 C 
HETATM    2  N1  UNL     1      78.111  54.725  34.738  1.00  0.00    -0.063 N 
ATOM      3  H11 UNL     1      78.950  54.806  35.312  1.00  0.00     0.278 HD
ATOM      4  H12 UNL     1      77.460  54.724  35.523  1.00  0.00     0.278 HD
HETATM    5  C4  UNL     1      77.915  55.794  33.774  1.00  0.00     0.183 C 
HETATM    6  C5  UNL     1      78.185  57.144  34.361  1.00  0.00     0.040 C 
HETATM    7  C6  UNL     1      78.987  55.398  32.747  1.00  0.00     0.048 C 
HETATM    8  C7  UNL     1      78.585  53.933  32.545  1.00  0.00     0.007 C 
HETATM    9  C8  UNL     1      77.493  53.949  31.482  1.00  0.00     0.022 C 
ENDROOT
BRANCH   8  10
HETATM   10  C9  UNL     1      79.685  53.109  32.044  1.00  0.00    -0.025 C 
HETATM   11  C10 UNL     1      80.750  53.669  31.488  1.00  0.00     0.008 C 
ENDBRANCH   8  10
BRANCH   1  12
HETATM   12  C2  UNL     1      78.771  52.403  34.505  1.00  0.00    -0.004 C 
HETATM   13  C1  UNL     1      78.374  51.819  35.625  1.00  0.00     0.009 C 
ENDBRANCH   1  12
TORSDOF 2
ENDMDL
MODEL 3
REMARK VINA RESULT: -5.061831972      1.726      3.306
REMARK  2 active torsions:
REMARK  status: ('A' for Active; 'I' for Inactive)
REMARK    1  A    between atoms: C2_2  and  C3_3 
REMARK    2  A    between atoms: C7_10  and  C9_12 
ROOT
HETATM    1  C3  UNL     1      78.397  55.747  33.188  1.00  0.00     0.220 C 
HETATM    2  N1  UNL     1      79.585  55.751  32.341  1.00  0.00    -0.063 N 
ATOM      3  H11 UNL     1      80.473  55.679  32.838  1.00  0.00     0.278 HD
ATOM      4  H12 UNL     1      79.799  56.644  31.897  1.00  0.00     0.278 HD
HETATM    5  C4  UNL     1      79.297  54.659  31.427  1.00  0.00     0.183 C 
HETATM    6  C5  UNL     1      80.487  54.281  30.602  1.00  0.00     0.040 C 
HETATM    7  C6  UNL     1      78.948  53.568  32.452  1.00  0.00     0.048 C 
HETATM    8  C7  UNL     1      77.908  54.341  33.270  1.00  0.00     0.007 C 
HETATM    9  C8  UNL     1      76.586  54.154  32.537  1.00  0.00     0.022 C 
ENDROOT
BRANCH   8  10
HETATM   10  C9  UNL     1      77.748  53.812  34.624  1.00  0.00    -0.025 C 
HETATM   11  C10 UNL     1      78.279  52.645  34.961  1.00  0.00     0.008 C 
ENDBRANCH   8  10
BRANCH   1  12
HETATM   12  C2  UNL     1      78.684  56.362  34.508  1.00  0.00    -0.004 C 
HETATM   13  C1  UNL     1      78.655  57.669  34.723  1.00  0.00     0.009 C 
ENDBRANCH   1  12
TORSDOF 2
ENDMDL
MODEL 4
REMARK VINA RESULT: -4.980846135      2.128      4.098
REMARK  2 active torsions:
REMARK  status: ('A' for Active; 'I' for Inactive)
REMARK    1  A    between atoms: C2_2  and  C3_3 
REMARK    2  A    between atoms: C7_10  and  C9_12 
ROOT
HETATM    1  C3  UNL     1      75.973  54.787  33.617  1.00  0.00     0.220 C 
HETATM    2  N1  UNL     1      75.884  56.199  33.975  1.00  0.00    -0.063 N 
ATOM      3  H11 UNL     1      75.603  56.385  34.938  1.00  0.00     0.278 HD
ATOM      4  H12 UNL     1      75.109  56.707  33.551  1.00  0.00     0.278 HD
HETATM    5  C4  UNL     1      77.208  56.676  33.614  1.00  0.00     0.183 C 
HETATM    6  C5  UNL     1      77.471  58.058  34.122  1.00  0.00     0.040 C 
HETATM    7  C6  UNL     1      78.056  55.630  34.354  1.00  0.00     0.048 C 
HETATM    8  C7  UNL     1      77.389  54.362  33.811  1.00  0.00     0.007 C 
HETATM    9  C8  UNL     1      78.082  54.068  32.485  1.00  0.00     0.022 C 
ENDROOT
BRANCH   8  10
HETATM   10  C9  UNL     1      77.581  53.204  34.683  1.00  0.00    -0.025 C 
HETATM   11  C10 UNL     1      78.687  52.477  34.607  1.00  0.00     0.008 C 
ENDBRANCH   8  10
BRANCH   1  12
HETATM   12  C2  UNL     1      74.993  53.981  34.387  1.00  0.00    -0.004 C 
HETATM   13  C1  UNL     1      73.697  54.252  34.423  1.00  0.00     0.009 C 
ENDBRANCH   1  12
TORSDOF 2
ENDMDL
MODEL 5
REMARK VINA RESULT: -4.948711463      2.804      4.859
REMARK  2 active torsions:
REMARK  status: ('A' for Active; 'I' for Inactive)
REMARK    1  A    between atoms: C2_2  and  C3_3 
REMARK    2  A    between atoms: C7_10  and  C9_12 
ROOT
HETATM    1  C3  UNL     1      76.785  56.650  33.400  1.00  0.00     0.220 C 
HETATM    2  N1  UNL     1      76.770  57.911  34.133  1.00  0.00    -0.063 N 
ATOM      3  H11 UNL     1      76.307  57.879  35.041  1.00  0.00     0.278 HD
ATOM      4  H12 UNL     1      76.163  58.632  33.744  1.00  0.00     0.278 HD
HETATM    5  C4  UNL     1      78.183  58.245  34.170  1.00  0.00     0.183 C 
HETATM    6  C5  UNL     1      78.473  59.382  35.098  1.00  0.00     0.040 C 
HETATM    7  C6  UNL     1      78.735  56.917  34.712  1.00  0.00     0.048 C 
HETATM    8  C7  UNL     1      78.072  55.964  33.711  1.00  0.00     0.007 C 
HETATM    9  C8  UNL     1      79.002  55.923  32.505  1.00  0.00     0.022 C 
ENDROOT
BRANCH   8  10
HETATM   10  C9  UNL     1      77.947  54.601  34.227  1.00  0.00    -0.025 C 
HETATM   11  C10 UNL     1      78.482  53.579  33.573  1.00  0.00     0.008 C 
ENDBRANCH   8  10
BRANCH   1  12
HETATM   12  C2  UNL     1      75.582  55.839  33.712  1.00  0.00    -0.004 C 
HETATM   13  C1  UNL     1      74.570  55.685  32.871  1.00  0.00     0.009 C 
ENDBRANCH   1  12
TORSDOF 2
ENDMDL
