MODEL 1
REMARK VINA RESULT: -5.600794753      0.000      0.000
REMARK  3 active torsions:
REMARK  status: ('A' for Active; 'I' for Inactive)
REMARK    1  A    between atoms: C2_2  and  C4_4 
REMARK    2  A    between atoms: C5_5  and  C6_6 
REMARK    3  A    between atoms: C6_6  and  C8_8 
ROOT
HETATM    1  C6  UNL     1      78.861  52.964  33.464  1.00  0.00     0.011 C 
HETATM    2  C7  UNL     1      78.072  54.140  33.919  1.00  0.00     0.015 C 
ENDROOT
BRANCH   1   3
HETATM    3  C5  UNL     1      79.143  52.095  34.633  1.00  0.00    -0.026 C 
HETATM    4  C4  UNL     1      78.478  52.230  35.792  1.00  0.00    -0.026 C 
BRANCH   4   5
HETATM    5  C2  UNL     1      78.747  51.375  36.964  1.00  0.00    -0.001 C 
HETATM    6  C1  UNL     1      78.889  49.917  36.521  1.00  0.00     0.013 C 
HETATM    7  C3  UNL     1      80.044  51.738  37.650  1.00  0.00     0.013 C 
ENDBRANCH   4   5
ENDBRANCH   1   3
BRANCH   1   8
HETATM    8  C8  UNL     1      80.094  53.316  32.689  1.00  0.00     0.044 A 
HETATM    9  C9  UNL     1      80.280  52.369  31.503  1.00  0.00     0.239 A 
HETATM   10  N1  UNL     1      80.042  53.447  30.567  1.00  0.00    -0.074 N 
HETATM   11  C10 UNL     1      79.954  54.385  31.648  1.00  0.00     0.239 A 
ATOM     12  H12 UNL     1      80.702  53.611  29.806  1.00  0.00     0.277 HD
ATOM     13  H11 UNL     1      79.278  53.374  29.895  1.00  0.00     0.277 HD
ENDBRANCH   1   8
TORSDOF 3
ENDMDL
MODEL 2
REMARK VINA RESULT: -5.583856197      1.251      2.338
REMARK  3 active torsions:
REMARK  status: ('A' for Active; 'I' for Inactive)
REMARK    1  A    between atoms: C2_2  and  C4_4 
REMARK    2  A    between atoms: C5_5  and  C6_6 
REMARK    3  A    between atoms: C6_6  and  C8_8 
ROOT
HETATM    1  C6  UNL     1      80.376  52.860  32.378  1.00  0.00     0.011 C 
HETATM    2  C7  UNL     1      81.028  51.545  32.132  1.00  0.00     0.015 C 
ENDROOT
BRANCH   1   3
HETATM    3  C5  UNL     1      79.420  52.717  33.503  1.00  0.00    -0.026 C 
HETATM    4  C4  UNL     1      79.516  51.716  34.392  1.00  0.00    -0.026 C 
BRANCH   4   5
HETATM    5  C2  UNL     1      78.573  51.560  35.516  1.00  0.00    -0.001 C 
HETATM    6  C1  UNL     1      79.336  51.594  36.842  1.00  0.00     0.013 C 
HETATM    7  C3  UNL     1      77.567  52.686  35.577  1.00  0.00     0.013 C 
ENDBRANCH   4   5
ENDBRANCH   1   3
BRANCH   1   8
HETATM    8  C8  UNL     1      79.756  53.472  31.159  1.00  0.00     0.044 A 
HETATM    9  C9  UNL     1      78.861  54.651  31.539  1.00  0.00     0.239 A 
HETATM   10  N1  UNL     1      79.756  55.580  30.883  1.00  0.00    -0.074 N 
HETATM   11  C10 UNL     1      80.572  54.492  30.426  1.00  0.00     0.239 A 
ATOM     12  H12 UNL     1      79.384  56.252  30.210  1.00  0.00     0.277 HD
ATOM     13  H11 UNL     1      80.177  56.340  31.417  1.00  0.00     0.277 HD
ENDBRANCH   1   8
TORSDOF 3
ENDMDL
MODEL 3
REMARK VINA RESULT: -5.503220501      2.126      2.959
REMARK  3 active torsions:
REMARK  status: ('A' for Active; 'I' for Inactive)
REMARK    1  A    between atoms: C2_2  and  C4_4 
REMARK    2  A    between atoms: C5_5  and  C6_6 
REMARK    3  A    between atoms: C6_6  and  C8_8 
ROOT
HETATM    1  C6  UNL     1      78.317  53.763  33.784  1.00  0.00     0.011 C 
HETATM    2  C7  UNL     1      79.270  52.992  32.942  1.00  0.00     0.015 C 
ENDROOT
BRANCH   1   3
HETATM    3  C5  UNL     1      78.123  53.047  35.068  1.00  0.00    -0.026 C 
HETATM    4  C4  UNL     1      78.960  52.078  35.471  1.00  0.00    -0.026 C 
BRANCH   4   5
HETATM    5  C2  UNL     1      78.782  51.356  36.746  1.00  0.00    -0.001 C 
HETATM    6  C1  UNL     1      78.857  49.847  36.503  1.00  0.00     0.013 C 
HETATM    7  C3  UNL     1      79.870  51.680  37.743  1.00  0.00     0.013 C 
ENDBRANCH   4   5
ENDBRANCH   1   3
BRANCH   1   8
HETATM    8  C8  UNL     1      77.025  54.092  33.099  1.00  0.00     0.044 A 
HETATM    9  C9  UNL     1      75.841  53.882  34.042  1.00  0.00     0.239 A 
HETATM   10  N1  UNL     1      75.564  55.303  34.059  1.00  0.00    -0.074 N 
HETATM   11  C10 UNL     1      76.607  55.531  33.101  1.00  0.00     0.239 A 
ATOM     12  H12 UNL     1      74.619  55.637  33.869  1.00  0.00     0.277 HD
ATOM     13  H11 UNL     1      75.570  55.810  34.945  1.00  0.00     0.277 HD
ENDBRANCH   1   8
TORSDOF 3
ENDMDL
MODEL 4
REMARK VINA RESULT: -5.311262176      1.125      1.230
REMARK  3 active torsions:
REMARK  status: ('A' for Active; 'I' for Inactive)
REMARK    1  A    between atoms: C2_2  and  C4_4 
REMARK    2  A    between atoms: C5_5  and  C6_6 
REMARK    3  A    between atoms: C6_6  and  C8_8 
ROOT
HETATM    1  C6  UNL     1      78.196  53.526  33.414  1.00  0.00     0.011 C 
HETATM    2  C7  UNL     1      76.915  54.182  33.038  1.00  0.00     0.015 C 
ENDROOT
BRANCH   1   3
HETATM    3  C5  UNL     1      78.064  52.966  34.781  1.00  0.00    -0.026 C 
HETATM    4  C4  UNL     1      78.861  51.979  35.222  1.00  0.00    -0.026 C 
BRANCH   4   5
HETATM    5  C2  UNL     1      78.742  51.412  36.579  1.00  0.00    -0.001 C 
HETATM    6  C1  UNL     1      78.802  49.884  36.511  1.00  0.00     0.013 C 
HETATM    7  C3  UNL     1      79.878  51.841  37.479  1.00  0.00     0.013 C 
ENDBRANCH   4   5
ENDBRANCH   1   3
BRANCH   1   8
HETATM    8  C8  UNL     1      79.402  54.401  33.255  1.00  0.00     0.044 A 
HETATM    9  C9  UNL     1      80.262  53.934  32.081  1.00  0.00     0.239 A 
HETATM   10  N1  UNL     1      79.962  55.142  31.343  1.00  0.00    -0.074 N 
HETATM   11  C10 UNL     1      79.224  55.658  32.460  1.00  0.00     0.239 A 
ATOM     12  H12 UNL     1      80.722  55.692  30.941  1.00  0.00     0.277 HD
ATOM     13  H11 UNL     1      79.517  55.079  30.427  1.00  0.00     0.277 HD
ENDBRANCH   1   8
TORSDOF 3
ENDMDL
MODEL 5
REMARK VINA RESULT: -5.298490727      0.917      1.657
REMARK  3 active torsions:
REMARK  status: ('A' for Active; 'I' for Inactive)
REMARK    1  A    between atoms: C2_2  and  C4_4 
REMARK    2  A    between atoms: C5_5  and  C6_6 
REMARK    3  A    between atoms: C6_6  and  C8_8 
ROOT
HETATM    1  C6  UNL     1      78.122  53.614  33.477  1.00  0.00     0.011 C 
HETATM    2  C7  UNL     1      78.125  54.896  34.230  1.00  0.00     0.015 C 
ENDROOT
BRANCH   1   3
HETATM    3  C5  UNL     1      78.897  52.607  34.241  1.00  0.00    -0.026 C 
HETATM    4  C4  UNL     1      78.548  52.240  35.485  1.00  0.00    -0.026 C 
BRANCH   4   5
HETATM    5  C2  UNL     1      79.309  51.240  36.259  1.00  0.00    -0.001 C 
HETATM    6  C1  UNL     1      79.818  51.866  37.559  1.00  0.00     0.013 C 
HETATM    7  C3  UNL     1      78.455  50.059  36.662  1.00  0.00     0.013 C 
ENDBRANCH   4   5
ENDBRANCH   1   3
BRANCH   1   8
HETATM    8  C8  UNL     1      78.573  53.739  32.053  1.00  0.00     0.044 A 
HETATM    9  C9  UNL     1      79.285  55.072  31.824  1.00  0.00     0.239 A 
HETATM   10  N1  UNL     1      80.542  54.395  31.591  1.00  0.00    -0.074 N 
HETATM   11  C10 UNL     1      79.892  53.121  31.706  1.00  0.00     0.239 A 
ATOM     12  H12 UNL     1      81.087  54.612  30.757  1.00  0.00     0.277 HD
ATOM     13  H11 UNL     1      81.348  54.607  32.180  1.00  0.00     0.277 HD
ENDBRANCH   1   8
TORSDOF 3
ENDMDL
