MODEL 1
REMARK VINA RESULT: -5.033541237      0.000      0.000
REMARK  3 active torsions:
REMARK  status: ('A' for Active; 'I' for Inactive)
REMARK    1  A    between atoms: C4_4  and  N1_5 
REMARK    2  A    between atoms: N1_5  and  C5_8 
REMARK    3  A    between atoms: C5_8  and  C7_10 
ROOT
HETATM    1  N1  UNL     1      80.575  52.547  34.047  1.00  0.00    -0.066 N 
ATOM      2  H11 UNL     1      81.410  52.201  34.521  1.00  0.00     0.278 HD
ATOM      3  H12 UNL     1      80.517  53.482  34.452  1.00  0.00     0.278 HD
ENDROOT
BRANCH   1   4
HETATM    4  C4  UNL     1      79.428  51.769  34.424  1.00  0.00     0.190 A 
HETATM    5  C2  UNL     1      79.191  51.655  35.908  1.00  0.00     0.014 A 
HETATM    6  C1  UNL     1      78.671  50.316  36.420  1.00  0.00     0.012 C 
HETATM    7  C3  UNL     1      78.248  52.509  35.074  1.00  0.00     0.039 A 
ENDBRANCH   1   4
BRANCH   1   8
HETATM    8  C5  UNL     1      80.805  52.630  32.632  1.00  0.00     0.186 C 
HETATM    9  C6  UNL     1      80.932  51.224  32.109  1.00  0.00     0.040 C 
BRANCH   8  10
HETATM   10  C7  UNL     1      79.768  53.433  31.911  1.00  0.00     0.016 C 
HETATM   11  C8  UNL     1      80.240  54.084  30.616  1.00  0.00     0.007 C 
HETATM   12  C9  UNL     1      79.250  55.208  30.963  1.00  0.00     0.001 C 
HETATM   13  C10 UNL     1      79.588  54.864  32.420  1.00  0.00     0.007 C 
ENDBRANCH   8  10
ENDBRANCH   1   8
TORSDOF 3
ENDMDL
MODEL 2
REMARK VINA RESULT: -5.028410350      2.378      3.493
REMARK  3 active torsions:
REMARK  status: ('A' for Active; 'I' for Inactive)
REMARK    1  A    between atoms: C4_4  and  N1_5 
REMARK    2  A    between atoms: N1_5  and  C5_8 
REMARK    3  A    between atoms: C5_8  and  C7_10 
ROOT
HETATM    1  N1  UNL     1      77.188  53.275  34.476  1.00  0.00    -0.066 N 
ATOM      2  H11 UNL     1      76.422  53.317  35.148  1.00  0.00     0.278 HD
ATOM      3  H12 UNL     1      76.874  52.496  33.898  1.00  0.00     0.278 HD
ENDROOT
BRANCH   1   4
HETATM    4  C4  UNL     1      78.416  52.938  35.141  1.00  0.00     0.190 A 
HETATM    5  C2  UNL     1      78.452  51.565  35.762  1.00  0.00     0.014 A 
HETATM    6  C1  UNL     1      79.187  51.432  37.092  1.00  0.00     0.012 C 
HETATM    7  C3  UNL     1      79.284  51.833  34.517  1.00  0.00     0.039 A 
ENDBRANCH   1   4
BRANCH   1   8
HETATM    8  C5  UNL     1      77.238  54.483  33.701  1.00  0.00     0.186 C 
HETATM    9  C6  UNL     1      75.841  55.044  33.646  1.00  0.00     0.040 C 
BRANCH   8  10
HETATM   10  C7  UNL     1      78.247  55.468  34.204  1.00  0.00     0.016 C 
HETATM   11  C8  UNL     1      77.757  56.909  34.285  1.00  0.00     0.007 C 
HETATM   12  C9  UNL     1      79.210  57.293  33.957  1.00  0.00     0.001 C 
HETATM   13  C10 UNL     1      79.223  55.989  33.148  1.00  0.00     0.007 C 
ENDBRANCH   8  10
ENDBRANCH   1   8
TORSDOF 3
ENDMDL
MODEL 3
REMARK VINA RESULT: -5.005246251      2.237      3.060
REMARK  3 active torsions:
REMARK  status: ('A' for Active; 'I' for Inactive)
REMARK    1  A    between atoms: C4_4  and  N1_5 
REMARK    2  A    between atoms: N1_5  and  C5_8 
REMARK    3  A    between atoms: C5_8  and  C7_10 
ROOT
HETATM    1  N1  UNL     1      78.126  52.339  35.148  1.00  0.00    -0.066 N 
ATOM      2  H11 UNL     1      77.510  52.774  35.834  1.00  0.00     0.278 HD
ATOM      3  H12 UNL     1      77.473  51.686  34.713  1.00  0.00     0.278 HD
ENDROOT
BRANCH   1   4
HETATM    4  C4  UNL     1      79.180  51.621  35.809  1.00  0.00     0.190 A 
HETATM    5  C2  UNL     1      79.128  51.648  37.315  1.00  0.00     0.014 A 
HETATM    6  C1  UNL     1      80.463  51.733  38.048  1.00  0.00     0.012 C 
HETATM    7  C3  UNL     1      78.799  50.352  36.589  1.00  0.00     0.039 A 
ENDBRANCH   1   4
BRANCH   1   8
HETATM    8  C5  UNL     1      78.571  53.311  34.190  1.00  0.00     0.186 C 
HETATM    9  C6  UNL     1      79.553  52.630  33.274  1.00  0.00     0.040 C 
BRANCH   8  10
HETATM   10  C7  UNL     1      77.447  53.975  33.456  1.00  0.00     0.016 C 
HETATM   11  C8  UNL     1      77.274  55.461  33.748  1.00  0.00     0.007 C 
HETATM   12  C9  UNL     1      75.774  55.206  33.526  1.00  0.00     0.001 C 
HETATM   13  C10 UNL     1      76.070  53.814  34.101  1.00  0.00     0.007 C 
ENDBRANCH   8  10
ENDBRANCH   1   8
TORSDOF 3
ENDMDL
MODEL 4
REMARK VINA RESULT: -4.959096596      4.933      5.759
REMARK  3 active torsions:
REMARK  status: ('A' for Active; 'I' for Inactive)
REMARK    1  A    between atoms: C4_4  and  N1_5 
REMARK    2  A    between atoms: N1_5  and  C5_8 
REMARK    3  A    between atoms: C5_8  and  C7_10 
ROOT
HETATM    1  N1  UNL     1      75.506  56.217  34.011  1.00  0.00    -0.066 N 
ATOM      2  H11 UNL     1      76.011  55.822  34.804  1.00  0.00     0.278 HD
ATOM      3  H12 UNL     1      75.162  57.080  34.432  1.00  0.00     0.278 HD
ENDROOT
BRANCH   1   4
HETATM    4  C4  UNL     1      74.406  55.368  33.647  1.00  0.00     0.190 A 
HETATM    5  C2  UNL     1      74.760  53.921  33.421  1.00  0.00     0.014 A 
HETATM    6  C1  UNL     1      74.023  53.200  32.297  1.00  0.00     0.012 C 
HETATM    7  C3  UNL     1      73.963  54.301  34.661  1.00  0.00     0.039 A 
ENDBRANCH   1   4
BRANCH   1   8
HETATM    8  C5  UNL     1      76.416  56.513  32.940  1.00  0.00     0.186 C 
HETATM    9  C6  UNL     1      75.625  57.175  31.843  1.00  0.00     0.040 C 
BRANCH   8  10
HETATM   10  C7  UNL     1      77.601  57.317  33.376  1.00  0.00     0.016 C 
HETATM   11  C8  UNL     1      78.569  56.590  34.303  1.00  0.00     0.007 C 
HETATM   12  C9  UNL     1      78.817  57.972  34.929  1.00  0.00     0.001 C 
HETATM   13  C10 UNL     1      77.350  58.243  34.567  1.00  0.00     0.007 C 
ENDBRANCH   8  10
ENDBRANCH   1   8
TORSDOF 3
ENDMDL
MODEL 5
REMARK VINA RESULT: -4.957999109      3.248      4.323
REMARK  3 active torsions:
REMARK  status: ('A' for Active; 'I' for Inactive)
REMARK    1  A    between atoms: C4_4  and  N1_5 
REMARK    2  A    between atoms: N1_5  and  C5_8 
REMARK    3  A    between atoms: C5_8  and  C7_10 
ROOT
HETATM    1  N1  UNL     1      78.163  55.579  34.580  1.00  0.00    -0.066 N 
ATOM      2  H11 UNL     1      78.449  55.604  35.559  1.00  0.00     0.278 HD
ATOM      3  H12 UNL     1      77.215  55.948  34.664  1.00  0.00     0.278 HD
ENDROOT
BRANCH   1   4
HETATM    4  C4  UNL     1      78.129  54.224  34.105  1.00  0.00     0.190 A 
HETATM    5  C2  UNL     1      78.111  53.168  35.181  1.00  0.00     0.014 A 
HETATM    6  C1  UNL     1      78.902  51.893  34.905  1.00  0.00     0.012 C 
HETATM    7  C3  UNL     1      76.850  53.410  34.364  1.00  0.00     0.039 A 
ENDBRANCH   1   4
BRANCH   1   8
HETATM    8  C5  UNL     1      78.977  56.468  33.800  1.00  0.00     0.186 C 
HETATM    9  C6  UNL     1      79.012  55.934  32.393  1.00  0.00     0.040 C 
BRANCH   8  10
HETATM   10  C7  UNL     1      78.533  57.896  33.875  1.00  0.00     0.016 C 
HETATM   11  C8  UNL     1      79.146  58.704  35.013  1.00  0.00     0.007 C 
HETATM   12  C9  UNL     1      77.809  59.463  35.032  1.00  0.00     0.001 C 
HETATM   13  C10 UNL     1      77.203  58.122  34.596  1.00  0.00     0.007 C 
ENDBRANCH   8  10
ENDBRANCH   1   8
TORSDOF 3
ENDMDL
