MODEL 1
REMARK VINA RESULT: -5.545011038      0.000      0.000
REMARK  3 active torsions:
REMARK  status: ('A' for Active; 'I' for Inactive)
REMARK    1  A    between atoms: C2_2  and  C3_3 
REMARK    2  A    between atoms: C4_4  and  C5_5 
REMARK    3  A    between atoms: C8_8  and  N1_9 
ROOT
HETATM    1  C5  UNL     1      78.135  53.891  33.299  1.00  0.00    -0.023 C 
HETATM    2  C6  UNL     1      76.795  54.077  32.646  1.00  0.00     0.019 C 
HETATM    3  C7  UNL     1      78.983  55.158  33.105  1.00  0.00     0.037 C 
HETATM    4  C8  UNL     1      79.158  54.656  31.680  1.00  0.00     0.078 C 
HETATM    5  C10 UNL     1      79.113  53.254  32.302  1.00  0.00     0.037 C 
ENDROOT
BRANCH   1   6
HETATM    6  C4  UNL     1      78.124  53.326  34.634  1.00  0.00    -0.017 C 
HETATM    7  C3  UNL     1      78.672  52.179  34.967  1.00  0.00    -0.004 C 
BRANCH   7   8
HETATM    8  C2  UNL     1      78.628  51.663  36.320  1.00  0.00    -0.011 C 
HETATM    9  C1  UNL     1      78.769  50.373  36.522  1.00  0.00     0.011 C 
ENDBRANCH   7   8
ENDBRANCH   1   6
BRANCH   4  10
HETATM   10  N1  UNL     1      80.343  55.006  31.001  1.00  0.00    -0.421 N 
HETATM   11  C9  UNL     1      80.279  55.040  29.581  1.00  0.00     0.140 C 
ATOM     12  H1  UNL     1      81.203  55.224  31.503  1.00  0.00     0.153 HD
ENDBRANCH   4  10
TORSDOF 3
ENDMDL
MODEL 2
REMARK VINA RESULT: -5.478393910      1.503      2.425
REMARK  3 active torsions:
REMARK  status: ('A' for Active; 'I' for Inactive)
REMARK    1  A    between atoms: C2_2  and  C3_3 
REMARK    2  A    between atoms: C4_4  and  C5_5 
REMARK    3  A    between atoms: C8_8  and  N1_9 
ROOT
HETATM    1  C5  UNL     1      80.474  52.372  32.913  1.00  0.00    -0.023 C 
HETATM    2  C6  UNL     1      81.974  52.420  32.973  1.00  0.00     0.019 C 
HETATM    3  C7  UNL     1      80.027  51.958  31.503  1.00  0.00     0.037 C 
HETATM    4  C8  UNL     1      80.399  53.382  31.116  1.00  0.00     0.078 C 
HETATM    5  C10 UNL     1      79.928  53.754  32.527  1.00  0.00     0.037 C 
ENDROOT
BRANCH   1   6
HETATM    6  C4  UNL     1      79.810  51.708  34.016  1.00  0.00    -0.017 C 
HETATM    7  C3  UNL     1      78.910  52.265  34.796  1.00  0.00    -0.004 C 
BRANCH   7   8
HETATM    8  C2  UNL     1      78.280  51.549  35.887  1.00  0.00    -0.011 C 
HETATM    9  C1  UNL     1      78.860  50.473  36.370  1.00  0.00     0.011 C 
ENDBRANCH   7   8
ENDBRANCH   1   6
BRANCH   4  10
HETATM   10  N1  UNL     1      79.704  53.974  30.043  1.00  0.00    -0.421 N 
HETATM   11  C9  UNL     1      80.358  55.043  29.370  1.00  0.00     0.140 C 
ATOM     12  H1  UNL     1      78.778  53.653  29.762  1.00  0.00     0.153 HD
ENDBRANCH   4  10
TORSDOF 3
ENDMDL
MODEL 3
REMARK VINA RESULT: -5.402701770      0.776      1.178
REMARK  3 active torsions:
REMARK  status: ('A' for Active; 'I' for Inactive)
REMARK    1  A    between atoms: C2_2  and  C3_3 
REMARK    2  A    between atoms: C4_4  and  C5_5 
REMARK    3  A    between atoms: C8_8  and  N1_9 
ROOT
HETATM    1  C5  UNL     1      78.406  53.947  33.541  1.00  0.00    -0.023 C 
HETATM    2  C6  UNL     1      78.453  55.412  33.874  1.00  0.00     0.019 C 
HETATM    3  C7  UNL     1      79.690  53.548  32.795  1.00  0.00     0.037 C 
HETATM    4  C8  UNL     1      79.053  54.250  31.605  1.00  0.00     0.078 C 
HETATM    5  C10 UNL     1      77.722  53.747  32.181  1.00  0.00     0.037 C 
ENDROOT
BRANCH   1   6
HETATM    6  C4  UNL     1      77.982  53.062  34.606  1.00  0.00    -0.017 C 
HETATM    7  C3  UNL     1      78.718  52.102  35.122  1.00  0.00    -0.004 C 
BRANCH   7   8
HETATM    8  C2  UNL     1      78.238  51.246  36.187  1.00  0.00    -0.011 C 
HETATM    9  C1  UNL     1      78.933  50.181  36.520  1.00  0.00     0.011 C 
ENDBRANCH   7   8
ENDBRANCH   1   6
BRANCH   4  10
HETATM   10  N1  UNL     1      79.393  53.795  30.315  1.00  0.00    -0.421 N 
HETATM   11  C9  UNL     1      80.128  54.693  29.494  1.00  0.00     0.140 C 
ATOM     12  H1  UNL     1      79.125  52.868  29.986  1.00  0.00     0.153 HD
ENDBRANCH   4  10
TORSDOF 3
ENDMDL
MODEL 4
REMARK VINA RESULT: -5.322330568      1.979      2.596
REMARK  3 active torsions:
REMARK  status: ('A' for Active; 'I' for Inactive)
REMARK    1  A    between atoms: C2_2  and  C3_3 
REMARK    2  A    between atoms: C4_4  and  C5_5 
REMARK    3  A    between atoms: C8_8  and  N1_9 
ROOT
HETATM    1  C5  UNL     1      78.068  53.685  33.901  1.00  0.00    -0.023 C 
HETATM    2  C6  UNL     1      79.035  53.375  32.793  1.00  0.00     0.019 C 
HETATM    3  C7  UNL     1      76.681  53.978  33.307  1.00  0.00     0.037 C 
HETATM    4  C8  UNL     1      77.285  55.319  32.915  1.00  0.00     0.078 C 
HETATM    5  C10 UNL     1      78.099  55.188  34.209  1.00  0.00     0.037 C 
ENDROOT
BRANCH   1   6
HETATM    6  C4  UNL     1      78.099  52.796  35.045  1.00  0.00    -0.017 C 
HETATM    7  C3  UNL     1      78.860  51.729  35.146  1.00  0.00    -0.004 C 
BRANCH   7   8
HETATM    8  C2  UNL     1      78.847  50.877  36.317  1.00  0.00    -0.011 C 
HETATM    9  C1  UNL     1      79.458  51.275  37.410  1.00  0.00     0.011 C 
ENDBRANCH   7   8
ENDBRANCH   1   6
BRANCH   4  10
HETATM   10  N1  UNL     1      76.420  56.428  32.824  1.00  0.00    -0.421 N 
HETATM   11  C9  UNL     1      76.413  57.133  31.590  1.00  0.00     0.140 C 
ATOM     12  H1  UNL     1      75.829  56.711  33.605  1.00  0.00     0.153 HD
ENDBRANCH   4  10
TORSDOF 3
ENDMDL
MODEL 5
REMARK VINA RESULT: -5.234810103      1.533      2.011
REMARK  3 active torsions:
REMARK  status: ('A' for Active; 'I' for Inactive)
REMARK    1  A    between atoms: C2_2  and  C3_3 
REMARK    2  A    between atoms: C4_4  and  C5_5 
REMARK    3  A    between atoms: C8_8  and  N1_9 
ROOT
HETATM    1  C5  UNL     1      78.404  53.754  33.376  1.00  0.00    -0.023 C 
HETATM    2  C6  UNL     1      79.452  53.138  32.493  1.00  0.00     0.019 C 
HETATM    3  C7  UNL     1      77.149  54.068  32.546  1.00  0.00     0.037 C 
HETATM    4  C8  UNL     1      77.963  55.238  32.013  1.00  0.00     0.078 C 
HETATM    5  C10 UNL     1      78.588  55.278  33.413  1.00  0.00     0.037 C 
ENDROOT
BRANCH   1   6
HETATM    6  C4  UNL     1      78.181  53.106  34.653  1.00  0.00    -0.017 C 
HETATM    7  C3  UNL     1      78.797  52.018  35.060  1.00  0.00    -0.004 C 
BRANCH   7   8
HETATM    8  C2  UNL     1      78.531  51.414  36.349  1.00  0.00    -0.011 C 
HETATM    9  C1  UNL     1      78.824  50.147  36.539  1.00  0.00     0.011 C 
ENDBRANCH   7   8
ENDBRANCH   1   6
BRANCH   4  10
HETATM   10  N1  UNL     1      77.264  56.391  31.603  1.00  0.00    -0.421 N 
HETATM   11  C9  UNL     1      77.286  56.690  30.213  1.00  0.00     0.140 C 
ATOM     12  H1  UNL     1      76.767  56.982  32.269  1.00  0.00     0.153 HD
ENDBRANCH   4  10
TORSDOF 3
ENDMDL
