MODEL 1
REMARK VINA RESULT: -9.108032236      0.000      0.000
REMARK  9 active torsions:
REMARK  status: ('A' for Active; 'I' for Inactive)
REMARK    1  A    between atoms: O1_1  and  C1_3 
REMARK    2  A    between atoms: C1_3  and  C2_4 
REMARK    3  A    between atoms: C2_4  and  N1_5 
REMARK    4  A    between atoms: C6_9  and  C7_10 
REMARK    5  A    between atoms: C10_13  and  C11_14 
REMARK    6  A    between atoms: C11_14  and  C12_15 
REMARK    7  A    between atoms: C12_15  and  N2_16 
REMARK    8  A    between atoms: C15_19  and  C16_20 
REMARK    9  A    between atoms: C16_20  and  N3_21 
ROOT
HETATM    1  C7  UNL     1      20.114 -14.253  22.775  1.00  0.00    -0.008 A 
HETATM    2  C8  UNL     1      18.742 -14.274  22.903  1.00  0.00     0.014 A 
HETATM    3  C9  UNL     1      17.904 -13.916  21.869  1.00  0.00     0.008 A 
HETATM    4  C10 UNL     1      18.449 -13.523  20.665  1.00  0.00    -0.057 A 
HETATM    5  C22 UNL     1      19.805 -13.500  20.528  1.00  0.00     0.008 A 
HETATM    6  C23 UNL     1      20.649 -13.864  21.582  1.00  0.00     0.014 A 
ENDROOT
BRANCH   4   7
HETATM    7  C11 UNL     1      17.596 -13.126  19.515  1.00  0.00     0.058 C 
BRANCH   7   8
HETATM    8  C12 UNL     1      16.348 -13.990  19.509  1.00  0.00     0.132 C 
BRANCH   8   9
HETATM    9  N2  UNL     1      15.191 -13.246  19.972  1.00  0.00    -0.366 N 
HETATM   10  C13 UNL     1      13.940 -13.662  19.703  1.00  0.00     0.091 A 
HETATM   11  C14 UNL     1      12.825 -12.948  20.147  1.00  0.00     0.026 A 
HETATM   12  C15 UNL     1      12.971 -11.787  20.878  1.00  0.00    -0.036 A 
HETATM   13  C20 UNL     1      14.262 -11.377  21.143  1.00  0.00     0.026 A 
HETATM   14  C21 UNL     1      15.333 -12.118  20.682  1.00  0.00     0.091 A 
BRANCH  12  15
HETATM   15  C16 UNL     1      11.799 -11.008  21.362  1.00  0.00     0.186 C 
BRANCH  15  16
HETATM   16  N3  UNL     1      11.539 -11.220  22.760  1.00  0.00    -0.299 N 
HETATM   17  C17 UNL     1      11.764 -10.325  23.727  1.00  0.00     0.112 A 
HETATM   18  C18 UNL     1      11.378 -10.914  24.938  1.00  0.00     0.037 A 
HETATM   19  C19 UNL     1      10.930 -12.167  24.631  1.00  0.00     0.108 A 
HETATM   20  N4  UNL     1      11.045 -12.309  23.309  1.00  0.00    -0.310 N 
ATOM     21  H4  UNL     1      10.784 -13.149  22.793  1.00  0.00     0.186 HD
ENDBRANCH  15  16
ENDBRANCH  12  15
ENDBRANCH   8   9
ENDBRANCH   7   8
ENDBRANCH   4   7
BRANCH   1  22
HETATM   22  C6  UNL     1      20.923 -14.645  23.911  1.00  0.00     0.058 A 
HETATM   23  C5  UNL     1      20.738 -14.028  25.215  1.00  0.00     0.033 A 
HETATM   24  C4  UNL     1      21.524 -14.441  26.223  1.00  0.00     0.021 A 
HETATM   25  C3  UNL     1      22.534 -15.475  26.032  1.00  0.00     0.110 A 
HETATM   26  N1  UNL     1      22.653 -15.986  24.854  1.00  0.00    -0.301 N 
HETATM   27  N5  UNL     1      21.842 -15.562  23.805  1.00  0.00    -0.298 N 
ATOM     28  H5  UNL     1      21.976 -15.999  22.894  1.00  0.00     0.187 HD
BRANCH  26  29
HETATM   29  C2  UNL     1      23.665 -17.030  24.635  1.00  0.00     0.174 C 
BRANCH  29  30
HETATM   30  C1  UNL     1      25.025 -16.344  24.586  1.00  0.00     0.185 C 
BRANCH  30  31
HETATM   31  O1  UNL     1      24.990 -15.321  23.647  1.00  0.00    -0.399 OA
ATOM     32  H1  UNL     1      24.460 -14.607  23.980  1.00  0.00     0.209 HD
ENDBRANCH  30  31
ENDBRANCH  29  30
ENDBRANCH  26  29
ENDBRANCH   1  22
TORSDOF 9
ENDMDL
MODEL 2
REMARK VINA RESULT: -8.977077436      0.405      1.100
REMARK  9 active torsions:
REMARK  status: ('A' for Active; 'I' for Inactive)
REMARK    1  A    between atoms: O1_1  and  C1_3 
REMARK    2  A    between atoms: C1_3  and  C2_4 
REMARK    3  A    between atoms: C2_4  and  N1_5 
REMARK    4  A    between atoms: C6_9  and  C7_10 
REMARK    5  A    between atoms: C10_13  and  C11_14 
REMARK    6  A    between atoms: C11_14  and  C12_15 
REMARK    7  A    between atoms: C12_15  and  N2_16 
REMARK    8  A    between atoms: C15_19  and  C16_20 
REMARK    9  A    between atoms: C16_20  and  N3_21 
ROOT
HETATM    1  C7  UNL     1      20.207 -14.237  22.790  1.00  0.00    -0.008 A 
HETATM    2  C8  UNL     1      18.834 -14.259  22.905  1.00  0.00     0.014 A 
HETATM    3  C9  UNL     1      18.005 -13.886  21.868  1.00  0.00     0.008 A 
HETATM    4  C10 UNL     1      18.563 -13.476  20.675  1.00  0.00    -0.057 A 
HETATM    5  C22 UNL     1      19.919 -13.451  20.552  1.00  0.00     0.008 A 
HETATM    6  C23 UNL     1      20.754 -13.831  21.608  1.00  0.00     0.014 A 
ENDROOT
BRANCH   4   7
HETATM    7  C11 UNL     1      17.720 -13.063  19.523  1.00  0.00     0.058 C 
BRANCH   7   8
HETATM    8  C12 UNL     1      16.452 -13.897  19.519  1.00  0.00     0.132 C 
BRANCH   8   9
HETATM    9  N2  UNL     1      15.312 -13.124  19.978  1.00  0.00    -0.366 N 
HETATM   10  C13 UNL     1      15.465 -12.093  20.828  1.00  0.00     0.091 A 
HETATM   11  C14 UNL     1      14.371 -11.347  21.272  1.00  0.00     0.026 A 
HETATM   12  C15 UNL     1      13.092 -11.646  20.851  1.00  0.00    -0.036 A 
HETATM   13  C20 UNL     1      12.956 -12.707  19.978  1.00  0.00     0.026 A 
HETATM   14  C21 UNL     1      14.069 -13.414  19.568  1.00  0.00     0.091 A 
BRANCH  12  15
HETATM   15  C16 UNL     1      11.910 -10.867  21.308  1.00  0.00     0.186 C 
BRANCH  15  16
HETATM   16  N3  UNL     1      11.648 -11.039  22.711  1.00  0.00    -0.299 N 
HETATM   17  C17 UNL     1      11.299 -12.193  23.291  1.00  0.00     0.112 A 
HETATM   18  C18 UNL     1      11.139 -11.939  24.659  1.00  0.00     0.037 A 
HETATM   19  C19 UNL     1      11.406 -10.612  24.839  1.00  0.00     0.108 A 
HETATM   20  N4  UNL     1      11.708 -10.110  23.640  1.00  0.00    -0.310 N 
ATOM     21  H4  UNL     1      11.952  -9.134  23.467  1.00  0.00     0.186 HD
ENDBRANCH  15  16
ENDBRANCH  12  15
ENDBRANCH   8   9
ENDBRANCH   7   8
ENDBRANCH   4   7
BRANCH   1  22
HETATM   22  C6  UNL     1      21.005 -14.645  23.928  1.00  0.00     0.058 A 
HETATM   23  C5  UNL     1      20.840 -14.014  25.228  1.00  0.00     0.033 A 
HETATM   24  C4  UNL     1      21.615 -14.444  26.238  1.00  0.00     0.021 A 
HETATM   25  C3  UNL     1      22.594 -15.508  26.053  1.00  0.00     0.110 A 
HETATM   26  N1  UNL     1      22.696 -16.030  24.878  1.00  0.00    -0.301 N 
HETATM   27  N5  UNL     1      21.897 -15.589  23.828  1.00  0.00    -0.298 N 
ATOM     28  H5  UNL     1      22.017 -16.036  22.918  1.00  0.00     0.187 HD
BRANCH  26  29
HETATM   29  C2  UNL     1      23.677 -17.105  24.665  1.00  0.00     0.174 C 
BRANCH  29  30
HETATM   30  C1  UNL     1      25.051 -16.454  24.558  1.00  0.00     0.185 C 
BRANCH  30  31
HETATM   31  O1  UNL     1      24.975 -15.358  23.707  1.00  0.00    -0.399 OA
ATOM     32  H1  UNL     1      24.680 -15.645  22.851  1.00  0.00     0.209 HD
ENDBRANCH  30  31
ENDBRANCH  29  30
ENDBRANCH  26  29
ENDBRANCH   1  22
TORSDOF 9
ENDMDL
MODEL 3
REMARK VINA RESULT: -8.922059229      0.798      1.025
REMARK  9 active torsions:
REMARK  status: ('A' for Active; 'I' for Inactive)
REMARK    1  A    between atoms: O1_1  and  C1_3 
REMARK    2  A    between atoms: C1_3  and  C2_4 
REMARK    3  A    between atoms: C2_4  and  N1_5 
REMARK    4  A    between atoms: C6_9  and  C7_10 
REMARK    5  A    between atoms: C10_13  and  C11_14 
REMARK    6  A    between atoms: C11_14  and  C12_15 
REMARK    7  A    between atoms: C12_15  and  N2_16 
REMARK    8  A    between atoms: C15_19  and  C16_20 
REMARK    9  A    between atoms: C16_20  and  N3_21 
ROOT
HETATM    1  C7  UNL     1      19.946 -14.132  22.913  1.00  0.00    -0.008 A 
HETATM    2  C8  UNL     1      18.607 -13.905  23.143  1.00  0.00     0.014 A 
HETATM    3  C9  UNL     1      17.734 -13.576  22.127  1.00  0.00     0.008 A 
HETATM    4  C10 UNL     1      18.212 -13.468  20.838  1.00  0.00    -0.057 A 
HETATM    5  C22 UNL     1      19.534 -13.691  20.601  1.00  0.00     0.008 A 
HETATM    6  C23 UNL     1      20.414 -14.025  21.636  1.00  0.00     0.014 A 
ENDROOT
BRANCH   4   7
HETATM    7  C11 UNL     1      17.318 -13.115  19.703  1.00  0.00     0.058 C 
BRANCH   7   8
HETATM    8  C12 UNL     1      16.321 -14.241  19.497  1.00  0.00     0.132 C 
BRANCH   8   9
HETATM    9  N2  UNL     1      15.021 -13.898  20.044  1.00  0.00    -0.366 N 
HETATM   10  C13 UNL     1      14.297 -12.883  19.538  1.00  0.00     0.091 A 
HETATM   11  C14 UNL     1      13.046 -12.550  20.062  1.00  0.00     0.026 A 
HETATM   12  C15 UNL     1      12.510 -13.254  21.121  1.00  0.00    -0.036 A 
HETATM   13  C20 UNL     1      13.269 -14.291  21.625  1.00  0.00     0.026 A 
HETATM   14  C21 UNL     1      14.501 -14.581  21.072  1.00  0.00     0.091 A 
BRANCH  12  15
HETATM   15  C16 UNL     1      11.180 -12.919  21.697  1.00  0.00     0.186 C 
BRANCH  15  16
HETATM   16  N3  UNL     1      11.282 -12.117  22.884  1.00  0.00    -0.299 N 
HETATM   17  C17 UNL     1      11.737 -10.860  22.925  1.00  0.00     0.112 A 
HETATM   18  C18 UNL     1      11.674 -10.437  24.260  1.00  0.00     0.037 A 
HETATM   19  C19 UNL     1      11.172 -11.488  24.973  1.00  0.00     0.108 A 
HETATM   20  N4  UNL     1      10.951 -12.477  24.105  1.00  0.00    -0.310 N 
ATOM     21  H4  UNL     1      10.575 -13.392  24.356  1.00  0.00     0.186 HD
ENDBRANCH  15  16
ENDBRANCH  12  15
ENDBRANCH   8   9
ENDBRANCH   7   8
ENDBRANCH   4   7
BRANCH   1  22
HETATM   22  C6  UNL     1      20.795 -14.474  24.036  1.00  0.00     0.058 A 
HETATM   23  C5  UNL     1      20.613 -13.845  25.335  1.00  0.00     0.033 A 
HETATM   24  C4  UNL     1      21.437 -14.212  26.331  1.00  0.00     0.021 A 
HETATM   25  C3  UNL     1      22.483 -15.206  26.133  1.00  0.00     0.110 A 
HETATM   26  N1  UNL     1      22.597 -15.730  24.960  1.00  0.00    -0.301 N 
HETATM   27  N5  UNL     1      21.747 -15.355  23.924  1.00  0.00    -0.298 N 
ATOM     28  H5  UNL     1      21.879 -15.800  23.015  1.00  0.00     0.187 HD
BRANCH  26  29
HETATM   29  C2  UNL     1      23.646 -16.736  24.733  1.00  0.00     0.174 C 
BRANCH  29  30
HETATM   30  C1  UNL     1      24.955 -15.988  24.511  1.00  0.00     0.185 C 
BRANCH  30  31
HETATM   31  O1  UNL     1      24.704 -14.828  23.789  1.00  0.00    -0.399 OA
ATOM     32  H1  UNL     1      25.509 -14.330  23.705  1.00  0.00     0.209 HD
ENDBRANCH  30  31
ENDBRANCH  29  30
ENDBRANCH  26  29
ENDBRANCH   1  22
TORSDOF 9
ENDMDL
MODEL 4
REMARK VINA RESULT: -8.811159973      1.016      1.214
REMARK  9 active torsions:
REMARK  status: ('A' for Active; 'I' for Inactive)
REMARK    1  A    between atoms: O1_1  and  C1_3 
REMARK    2  A    between atoms: C1_3  and  C2_4 
REMARK    3  A    between atoms: C2_4  and  N1_5 
REMARK    4  A    between atoms: C6_9  and  C7_10 
REMARK    5  A    between atoms: C10_13  and  C11_14 
REMARK    6  A    between atoms: C11_14  and  C12_15 
REMARK    7  A    between atoms: C12_15  and  N2_16 
REMARK    8  A    between atoms: C15_19  and  C16_20 
REMARK    9  A    between atoms: C16_20  and  N3_21 
ROOT
HETATM    1  C7  UNL     1      19.933 -13.913  22.603  1.00  0.00    -0.008 A 
HETATM    2  C8  UNL     1      18.580 -13.784  22.832  1.00  0.00     0.014 A 
HETATM    3  C9  UNL     1      17.687 -13.520  21.816  1.00  0.00     0.008 A 
HETATM    4  C10 UNL     1      18.156 -13.379  20.526  1.00  0.00    -0.057 A 
HETATM    5  C22 UNL     1      19.491 -13.506  20.290  1.00  0.00     0.008 A 
HETATM    6  C23 UNL     1      20.392 -13.774  21.326  1.00  0.00     0.014 A 
ENDROOT
BRANCH   4   7
HETATM    7  C11 UNL     1      17.240 -13.094  19.391  1.00  0.00     0.058 C 
BRANCH   7   8
HETATM    8  C12 UNL     1      16.274 -14.255  19.237  1.00  0.00     0.132 C 
BRANCH   8   9
HETATM    9  N2  UNL     1      14.994 -13.959  19.855  1.00  0.00    -0.366 N 
HETATM   10  C13 UNL     1      14.527 -14.695  20.879  1.00  0.00     0.091 A 
HETATM   11  C14 UNL     1      13.296 -14.413  21.476  1.00  0.00     0.026 A 
HETATM   12  C15 UNL     1      12.516 -13.365  21.032  1.00  0.00    -0.036 A 
HETATM   13  C20 UNL     1      13.013 -12.623  19.980  1.00  0.00     0.026 A 
HETATM   14  C21 UNL     1      14.236 -12.941  19.424  1.00  0.00     0.091 A 
BRANCH  12  15
HETATM   15  C16 UNL     1      11.201 -13.044  21.651  1.00  0.00     0.186 C 
BRANCH  15  16
HETATM   16  N3  UNL     1      11.329 -12.182  22.793  1.00  0.00    -0.299 N 
HETATM   17  C17 UNL     1      11.997 -11.024  22.811  1.00  0.00     0.112 A 
HETATM   18  C18 UNL     1      11.879 -10.494  24.102  1.00  0.00     0.037 A 
HETATM   19  C19 UNL     1      11.127 -11.382  24.816  1.00  0.00     0.108 A 
HETATM   20  N4  UNL     1      10.818 -12.383  23.989  1.00  0.00    -0.310 N 
ATOM     21  H4  UNL     1      10.259 -13.196  24.249  1.00  0.00     0.186 HD
ENDBRANCH  15  16
ENDBRANCH  12  15
ENDBRANCH   8   9
ENDBRANCH   7   8
ENDBRANCH   4   7
BRANCH   1  22
HETATM   22  C6  UNL     1      20.803 -14.192  23.727  1.00  0.00     0.058 A 
HETATM   23  C5  UNL     1      20.316 -14.106  25.095  1.00  0.00     0.033 A 
HETATM   24  C4  UNL     1      21.180 -14.378  26.087  1.00  0.00     0.021 A 
HETATM   25  C3  UNL     1      22.563 -14.749  25.819  1.00  0.00     0.110 A 
HETATM   26  N1  UNL     1      22.939 -14.808  24.586  1.00  0.00    -0.301 N 
HETATM   27  N5  UNL     1      22.049 -14.528  23.553  1.00  0.00    -0.298 N 
ATOM     28  H5  UNL     1      22.397 -14.589  22.596  1.00  0.00     0.187 HD
BRANCH  26  29
HETATM   29  C2  UNL     1      24.330 -15.179  24.288  1.00  0.00     0.174 C 
BRANCH  29  30
HETATM   30  C1  UNL     1      24.507 -16.641  24.683  1.00  0.00     0.185 C 
BRANCH  30  31
HETATM   31  O1  UNL     1      25.694 -16.784  25.392  1.00  0.00    -0.399 OA
ATOM     32  H1  UNL     1      26.421 -16.824  24.782  1.00  0.00     0.209 HD
ENDBRANCH  30  31
ENDBRANCH  29  30
ENDBRANCH  26  29
ENDBRANCH   1  22
TORSDOF 9
ENDMDL
MODEL 5
REMARK VINA RESULT: -8.546073211      1.035      1.414
REMARK  9 active torsions:
REMARK  status: ('A' for Active; 'I' for Inactive)
REMARK    1  A    between atoms: O1_1  and  C1_3 
REMARK    2  A    between atoms: C1_3  and  C2_4 
REMARK    3  A    between atoms: C2_4  and  N1_5 
REMARK    4  A    between atoms: C6_9  and  C7_10 
REMARK    5  A    between atoms: C10_13  and  C11_14 
REMARK    6  A    between atoms: C11_14  and  C12_15 
REMARK    7  A    between atoms: C12_15  and  N2_16 
REMARK    8  A    between atoms: C15_19  and  C16_20 
REMARK    9  A    between atoms: C16_20  and  N3_21 
ROOT
HETATM    1  C7  UNL     1      20.033 -15.062  22.581  1.00  0.00    -0.008 A 
HETATM    2  C8  UNL     1      18.721 -15.415  22.352  1.00  0.00     0.014 A 
HETATM    3  C9  UNL     1      17.943 -14.775  21.410  1.00  0.00     0.008 A 
HETATM    4  C10 UNL     1      18.490 -13.748  20.670  1.00  0.00    -0.057 A 
HETATM    5  C22 UNL     1      19.787 -13.392  20.888  1.00  0.00     0.008 A 
HETATM    6  C23 UNL     1      20.570 -14.046  21.846  1.00  0.00     0.014 A 
ENDROOT
BRANCH   4   7
HETATM    7  C11 UNL     1      17.700 -13.023  19.641  1.00  0.00     0.058 C 
BRANCH   7   8
HETATM    8  C12 UNL     1      16.405 -13.775  19.397  1.00  0.00     0.132 C 
BRANCH   8   9
HETATM    9  N2  UNL     1      15.264 -13.035  19.904  1.00  0.00    -0.366 N 
HETATM   10  C13 UNL     1      15.411 -12.083  20.843  1.00  0.00     0.091 A 
HETATM   11  C14 UNL     1      14.316 -11.368  21.333  1.00  0.00     0.026 A 
HETATM   12  C15 UNL     1      13.041 -11.617  20.867  1.00  0.00    -0.036 A 
HETATM   13  C20 UNL     1      12.912 -12.598  19.904  1.00  0.00     0.026 A 
HETATM   14  C21 UNL     1      14.026 -13.276  19.451  1.00  0.00     0.091 A 
BRANCH  12  15
HETATM   15  C16 UNL     1      11.857 -10.870  21.372  1.00  0.00     0.186 C 
BRANCH  15  16
HETATM   16  N3  UNL     1      11.575 -11.157  22.752  1.00  0.00    -0.299 N 
HETATM   17  C17 UNL     1      11.795 -10.320  23.771  1.00  0.00     0.112 A 
HETATM   18  C18 UNL     1      11.386 -10.973  24.942  1.00  0.00     0.037 A 
HETATM   19  C19 UNL     1      10.931 -12.201  24.559  1.00  0.00     0.108 A 
HETATM   20  N4  UNL     1      11.063 -12.270  23.233  1.00  0.00    -0.310 N 
ATOM     21  H4  UNL     1      10.802 -13.078  22.667  1.00  0.00     0.186 HD
ENDBRANCH  15  16
ENDBRANCH  12  15
ENDBRANCH   8   9
ENDBRANCH   7   8
ENDBRANCH   4   7
BRANCH   1  22
HETATM   22  C6  UNL     1      20.780 -15.785  23.589  1.00  0.00     0.058 A 
HETATM   23  C5  UNL     1      20.116 -16.692  24.513  1.00  0.00     0.033 A 
HETATM   24  C4  UNL     1      20.873 -17.329  25.421  1.00  0.00     0.021 A 
HETATM   25  C3  UNL     1      22.314 -17.129  25.493  1.00  0.00     0.110 A 
HETATM   26  N1  UNL     1      22.849 -16.313  24.649  1.00  0.00    -0.301 N 
HETATM   27  N5  UNL     1      22.071 -15.650  23.705  1.00  0.00    -0.298 N 
ATOM     28  H5  UNL     1      22.542 -15.016  23.060  1.00  0.00     0.187 HD
BRANCH  26  29
HETATM   29  C2  UNL     1      24.302 -16.094  24.700  1.00  0.00     0.174 C 
BRANCH  29  30
HETATM   30  C1  UNL     1      24.554 -14.631  24.353  1.00  0.00     0.185 C 
BRANCH  30  31
HETATM   31  O1  UNL     1      23.800 -13.822  25.195  1.00  0.00    -0.399 OA
ATOM     32  H1  UNL     1      24.200 -12.962  25.245  1.00  0.00     0.209 HD
ENDBRANCH  30  31
ENDBRANCH  29  30
ENDBRANCH  26  29
ENDBRANCH   1  22
TORSDOF 9
ENDMDL
