MODEL 1
REMARK VINA RESULT: -8.827807475      0.000      0.000
REMARK  10 active torsions:
REMARK  status: ('A' for Active; 'I' for Inactive)
REMARK    1  A    between atoms: N2_4  and  N3_6 
REMARK    2  A    between atoms: N4_11  and  C4_12 
REMARK    3  A    between atoms: C4_12  and  C5_13 
REMARK    4  A    between atoms: C6_14  and  C7_15 
REMARK    5  A    between atoms: C10_18  and  C11_19 
REMARK    6  A    between atoms: C11_19  and  C12_20 
REMARK    7  A    between atoms: C12_20  and  C13_21 
REMARK    8  A    between atoms: C13_21  and  N5_22 
REMARK    9  A    between atoms: C16_25  and  C17_26 
REMARK   10  A    between atoms: C17_26  and  O1_27 
ROOT
HETATM    1  C7  UNL     1      18.959 -13.860  22.485  1.00  0.00     0.017 A 
HETATM    2  C8  UNL     1      17.588 -14.012  22.506  1.00  0.00     0.021 A 
HETATM    3  C9  UNL     1      16.800 -13.744  21.402  1.00  0.00     0.008 A 
HETATM    4  C10 UNL     1      17.364 -13.310  20.220  1.00  0.00    -0.058 A 
HETATM    5  C20 UNL     1      18.718 -13.156  20.186  1.00  0.00     0.008 A 
HETATM    6  C21 UNL     1      19.506 -13.423  21.290  1.00  0.00     0.021 A 
ENDROOT
BRANCH   1   7
HETATM    7  C6  UNL     1      19.778 -14.139  23.634  1.00  0.00    -0.065 C 
HETATM    8  C5  UNL     1      20.467 -14.393  24.596  1.00  0.00    -0.081 C 
BRANCH   8   9
HETATM    9  C4  UNL     1      21.295 -14.725  25.765  1.00  0.00     0.223 C 
BRANCH   9  10
HETATM   10  N4  UNL     1      22.563 -15.172  25.288  1.00  0.00    -0.342 N 
HETATM   11  C3  UNL     1      22.890 -16.468  25.391  1.00  0.00     0.096 A 
HETATM   12  C2  UNL     1      24.122 -16.947  24.936  1.00  0.00     0.067 A 
HETATM   13  C1  UNL     1      25.002 -16.038  24.370  1.00  0.00     0.123 A 
HETATM   14  N3  UNL     1      26.159 -16.434  23.932  1.00  0.00    -0.271 N 
HETATM   15  N6  UNL     1      24.649 -14.736  24.278  1.00  0.00    -0.337 N 
ATOM     16  H3  UNL     1      26.809 -15.767  23.517  1.00  0.00     0.190 HD
HETATM   17  C22 UNL     1      23.432 -14.318  24.738  1.00  0.00     0.185 A 
ATOM     18  H6  UNL     1      25.294 -14.063  23.863  1.00  0.00     0.168 HD
BRANCH  14  19
HETATM   19  N2  UNL     1      26.503 -17.778  24.037  1.00  0.00    -0.248 N 
HETATM   20  N1  UNL     1      27.632 -18.199  23.678  1.00  0.00    -0.331 N 
ATOM     21  H12 UNL     1      28.300 -17.526  23.303  1.00  0.00     0.178 HD
ATOM     22  H11 UNL     1      27.885 -19.184  23.755  1.00  0.00     0.178 HD
ATOM     23  H2  UNL     1      25.823 -18.438  24.414  1.00  0.00     0.207 HD
ENDBRANCH  14  19
ENDBRANCH   9  10
ENDBRANCH   8   9
ENDBRANCH   1   7
BRANCH   4  24
HETATM   24  C11 UNL     1      16.469 -13.036  19.059  1.00  0.00     0.040 C 
BRANCH  24  25
HETATM   25  C12 UNL     1      15.136 -13.681  19.195  1.00  0.00     0.025 C 
BRANCH  25  26
HETATM   26  C13 UNL     1      14.050 -12.670  19.151  1.00  0.00     0.128 C 
BRANCH  26  27
HETATM   27  N5  UNL     1      13.401 -12.378  20.384  1.00  0.00    -0.366 N 
HETATM   28  C14 UNL     1      13.901 -11.431  21.187  1.00  0.00     0.091 A 
HETATM   29  C15 UNL     1      13.288 -11.127  22.395  1.00  0.00     0.026 A 
HETATM   30  C16 UNL     1      12.152 -11.793  22.796  1.00  0.00    -0.032 A 
HETATM   31  C18 UNL     1      11.644 -12.761  21.974  1.00  0.00     0.026 A 
HETATM   32  C19 UNL     1      12.292 -13.019  20.792  1.00  0.00     0.091 A 
BRANCH  30  33
HETATM   33  C17 UNL     1      11.462 -11.496  24.090  1.00  0.00     0.203 C 
BRANCH  33  34
HETATM   34  O1  UNL     1      10.340 -12.315  24.269  1.00  0.00    -0.396 OA
ATOM     35  H1  UNL     1       9.552 -11.896  23.946  1.00  0.00     0.209 HD
ENDBRANCH  33  34
ENDBRANCH  30  33
ENDBRANCH  26  27
ENDBRANCH  25  26
ENDBRANCH  24  25
ENDBRANCH   4  24
TORSDOF 10
ENDMDL
MODEL 2
REMARK VINA RESULT: -8.823468485      1.451      1.848
REMARK  10 active torsions:
REMARK  status: ('A' for Active; 'I' for Inactive)
REMARK    1  A    between atoms: N2_4  and  N3_6 
REMARK    2  A    between atoms: N4_11  and  C4_12 
REMARK    3  A    between atoms: C4_12  and  C5_13 
REMARK    4  A    between atoms: C6_14  and  C7_15 
REMARK    5  A    between atoms: C10_18  and  C11_19 
REMARK    6  A    between atoms: C11_19  and  C12_20 
REMARK    7  A    between atoms: C12_20  and  C13_21 
REMARK    8  A    between atoms: C13_21  and  N5_22 
REMARK    9  A    between atoms: C16_25  and  C17_26 
REMARK   10  A    between atoms: C17_26  and  O1_27 
ROOT
HETATM    1  C7  UNL     1      17.545 -14.525  22.472  1.00  0.00     0.017 A 
HETATM    2  C8  UNL     1      17.537 -13.342  21.761  1.00  0.00     0.021 A 
HETATM    3  C9  UNL     1      16.790 -13.180  20.610  1.00  0.00     0.008 A 
HETATM    4  C10 UNL     1      16.013 -14.210  20.121  1.00  0.00    -0.058 A 
HETATM    5  C20 UNL     1      16.012 -15.383  20.813  1.00  0.00     0.008 A 
HETATM    6  C21 UNL     1      16.759 -15.546  21.964  1.00  0.00     0.021 A 
ENDROOT
BRANCH   1   7
HETATM    7  C6  UNL     1      18.323 -14.693  23.670  1.00  0.00    -0.065 C 
HETATM    8  C5  UNL     1      18.985 -14.852  24.671  1.00  0.00    -0.081 C 
BRANCH   8   9
HETATM    9  C4  UNL     1      19.791 -15.069  25.882  1.00  0.00     0.223 C 
BRANCH   9  10
HETATM   10  N4  UNL     1      21.162 -15.105  25.491  1.00  0.00    -0.342 N 
HETATM   11  C3  UNL     1      21.704 -16.261  25.081  1.00  0.00     0.096 A 
HETATM   12  C2  UNL     1      23.043 -16.340  24.690  1.00  0.00     0.067 A 
HETATM   13  C1  UNL     1      23.802 -15.181  24.738  1.00  0.00     0.123 A 
HETATM   14  N3  UNL     1      25.052 -15.203  24.385  1.00  0.00    -0.271 N 
HETATM   15  N6  UNL     1      23.233 -14.027  25.156  1.00  0.00    -0.337 N 
ATOM     16  H3  UNL     1      25.612 -14.351  24.420  1.00  0.00     0.190 HD
HETATM   17  C22 UNL     1      21.919 -14.003  25.528  1.00  0.00     0.185 A 
ATOM     18  H6  UNL     1      23.788 -13.172  25.193  1.00  0.00     0.168 HD
BRANCH  14  19
HETATM   19  N2  UNL     1      25.619 -16.400  23.959  1.00  0.00    -0.248 N 
HETATM   20  N1  UNL     1      26.181 -16.501  22.839  1.00  0.00    -0.331 N 
ATOM     21  H12 UNL     1      26.213 -15.676  22.240  1.00  0.00     0.178 HD
ATOM     22  H11 UNL     1      26.596 -17.378  22.526  1.00  0.00     0.178 HD
ATOM     23  H2  UNL     1      25.577 -17.215  24.570  1.00  0.00     0.207 HD
ENDBRANCH  14  19
ENDBRANCH   9  10
ENDBRANCH   8   9
ENDBRANCH   1   7
BRANCH   4  24
HETATM   24  C11 UNL     1      15.226 -13.981  18.875  1.00  0.00     0.040 C 
BRANCH  24  25
HETATM   25  C12 UNL     1      14.264 -12.854  18.999  1.00  0.00     0.025 C 
BRANCH  25  26
HETATM   26  C13 UNL     1      13.124 -13.223  19.874  1.00  0.00     0.128 C 
BRANCH  26  27
HETATM   27  N5  UNL     1      12.862 -12.360  20.976  1.00  0.00    -0.366 N 
HETATM   28  C14 UNL     1      13.750 -11.412  21.300  1.00  0.00     0.091 A 
HETATM   29  C15 UNL     1      13.519 -10.558  22.370  1.00  0.00     0.026 A 
HETATM   30  C16 UNL     1      12.372 -10.665  23.124  1.00  0.00    -0.032 A 
HETATM   31  C18 UNL     1      11.467 -11.635  22.790  1.00  0.00     0.026 A 
HETATM   32  C19 UNL     1      11.748 -12.450  21.723  1.00  0.00     0.091 A 
BRANCH  30  33
HETATM   33  C17 UNL     1      12.088  -9.765  24.284  1.00  0.00     0.203 C 
BRANCH  33  34
HETATM   34  O1  UNL     1      13.186  -8.945  24.574  1.00  0.00    -0.396 OA
ATOM     35  H1  UNL     1      13.041  -8.055  24.274  1.00  0.00     0.209 HD
ENDBRANCH  33  34
ENDBRANCH  30  33
ENDBRANCH  26  27
ENDBRANCH  25  26
ENDBRANCH  24  25
ENDBRANCH   4  24
TORSDOF 10
ENDMDL
MODEL 3
REMARK VINA RESULT: -8.659748986      1.203      1.530
REMARK  10 active torsions:
REMARK  status: ('A' for Active; 'I' for Inactive)
REMARK    1  A    between atoms: N2_4  and  N3_6 
REMARK    2  A    between atoms: N4_11  and  C4_12 
REMARK    3  A    between atoms: C4_12  and  C5_13 
REMARK    4  A    between atoms: C6_14  and  C7_15 
REMARK    5  A    between atoms: C10_18  and  C11_19 
REMARK    6  A    between atoms: C11_19  and  C12_20 
REMARK    7  A    between atoms: C12_20  and  C13_21 
REMARK    8  A    between atoms: C13_21  and  N5_22 
REMARK    9  A    between atoms: C16_25  and  C17_26 
REMARK   10  A    between atoms: C17_26  and  O1_27 
ROOT
HETATM    1  C7  UNL     1      18.719 -14.241  22.723  1.00  0.00     0.017 A 
HETATM    2  C8  UNL     1      18.118 -15.392  22.254  1.00  0.00     0.021 A 
HETATM    3  C9  UNL     1      17.216 -15.378  21.207  1.00  0.00     0.008 A 
HETATM    4  C10 UNL     1      16.877 -14.196  20.581  1.00  0.00    -0.058 A 
HETATM    5  C20 UNL     1      17.463 -13.052  21.034  1.00  0.00     0.008 A 
HETATM    6  C21 UNL     1      18.365 -13.065  22.081  1.00  0.00     0.021 A 
ENDROOT
BRANCH   1   7
HETATM    7  C6  UNL     1      19.657 -14.255  23.812  1.00  0.00    -0.065 C 
HETATM    8  C5  UNL     1      20.449 -14.288  24.727  1.00  0.00    -0.081 C 
BRANCH   8   9
HETATM    9  C4  UNL     1      21.405 -14.351  25.843  1.00  0.00     0.223 C 
BRANCH   9  10
HETATM   10  N4  UNL     1      22.621 -14.905  25.343  1.00  0.00    -0.342 N 
HETATM   11  C3  UNL     1      22.844 -16.223  25.453  1.00  0.00     0.096 A 
HETATM   12  C2  UNL     1      24.022 -16.804  24.978  1.00  0.00     0.067 A 
HETATM   13  C1  UNL     1      24.961 -15.976  24.384  1.00  0.00     0.123 A 
HETATM   14  N3  UNL     1      26.071 -16.469  23.925  1.00  0.00    -0.271 N 
HETATM   15  N6  UNL     1      24.713 -14.650  24.284  1.00  0.00    -0.337 N 
ATOM     16  H3  UNL     1      26.764 -15.861  23.488  1.00  0.00     0.190 HD
HETATM   17  C22 UNL     1      23.545 -14.130  24.766  1.00  0.00     0.185 A 
ATOM     18  H6  UNL     1      25.401 -14.036  23.848  1.00  0.00     0.168 HD
BRANCH  14  19
HETATM   19  N2  UNL     1      26.307 -17.836  24.037  1.00  0.00    -0.248 N 
HETATM   20  N1  UNL     1      27.472 -18.307  24.015  1.00  0.00    -0.331 N 
ATOM     21  H12 UNL     1      28.253 -17.659  23.912  1.00  0.00     0.178 HD
ATOM     22  H11 UNL     1      27.646 -19.309  24.098  1.00  0.00     0.178 HD
ATOM     23  H2  UNL     1      25.516 -18.471  24.140  1.00  0.00     0.207 HD
ENDBRANCH  14  19
ENDBRANCH   9  10
ENDBRANCH   8   9
ENDBRANCH   1   7
BRANCH   4  24
HETATM   24  C11 UNL     1      15.899 -14.238  19.457  1.00  0.00     0.040 C 
BRANCH  24  25
HETATM   25  C12 UNL     1      14.816 -13.229  19.596  1.00  0.00     0.025 C 
BRANCH  25  26
HETATM   26  C13 UNL     1      13.817 -13.658  20.607  1.00  0.00     0.128 C 
BRANCH  26  27
HETATM   27  N5  UNL     1      13.395 -12.671  21.543  1.00  0.00    -0.366 N 
HETATM   28  C14 UNL     1      12.498 -12.993  22.483  1.00  0.00     0.091 A 
HETATM   29  C15 UNL     1      12.069 -12.050  23.408  1.00  0.00     0.026 A 
HETATM   30  C16 UNL     1      12.555 -10.763  23.380  1.00  0.00    -0.032 A 
HETATM   31  C18 UNL     1      13.471 -10.438  22.418  1.00  0.00     0.026 A 
HETATM   32  C19 UNL     1      13.858 -11.410  21.530  1.00  0.00     0.091 A 
BRANCH  30  33
HETATM   33  C17 UNL     1      12.118  -9.719  24.357  1.00  0.00     0.203 C 
BRANCH  33  34
HETATM   34  O1  UNL     1      13.168  -8.848  24.677  1.00  0.00    -0.396 OA
ATOM     35  H1  UNL     1      13.117  -8.046  24.171  1.00  0.00     0.209 HD
ENDBRANCH  33  34
ENDBRANCH  30  33
ENDBRANCH  26  27
ENDBRANCH  25  26
ENDBRANCH  24  25
ENDBRANCH   4  24
TORSDOF 10
ENDMDL
MODEL 4
REMARK VINA RESULT: -8.240969778      3.144      9.799
REMARK  10 active torsions:
REMARK  status: ('A' for Active; 'I' for Inactive)
REMARK    1  A    between atoms: N2_4  and  N3_6 
REMARK    2  A    between atoms: N4_11  and  C4_12 
REMARK    3  A    between atoms: C4_12  and  C5_13 
REMARK    4  A    between atoms: C6_14  and  C7_15 
REMARK    5  A    between atoms: C10_18  and  C11_19 
REMARK    6  A    between atoms: C11_19  and  C12_20 
REMARK    7  A    between atoms: C12_20  and  C13_21 
REMARK    8  A    between atoms: C13_21  and  N5_22 
REMARK    9  A    between atoms: C16_25  and  C17_26 
REMARK   10  A    between atoms: C17_26  and  O1_27 
ROOT
HETATM    1  C7  UNL     1      18.082 -13.572  21.313  1.00  0.00     0.017 A 
HETATM    2  C8  UNL     1      18.107 -13.755  22.681  1.00  0.00     0.021 A 
HETATM    3  C9  UNL     1      19.271 -14.056  23.362  1.00  0.00     0.008 A 
HETATM    4  C10 UNL     1      20.470 -14.185  22.692  1.00  0.00    -0.058 A 
HETATM    5  C20 UNL     1      20.459 -14.006  21.341  1.00  0.00     0.008 A 
HETATM    6  C21 UNL     1      19.296 -13.706  20.658  1.00  0.00     0.021 A 
ENDROOT
BRANCH   1   7
HETATM    7  C6  UNL     1      16.870 -13.259  20.604  1.00  0.00    -0.065 C 
HETATM    8  C5  UNL     1      15.842 -12.990  20.025  1.00  0.00    -0.081 C 
BRANCH   8   9
HETATM    9  C4  UNL     1      14.580 -12.668  19.343  1.00  0.00     0.223 C 
BRANCH   9  10
HETATM   10  N4  UNL     1      13.545 -12.660  20.324  1.00  0.00    -0.342 N 
HETATM   11  C3  UNL     1      13.523 -11.697  21.257  1.00  0.00     0.096 A 
HETATM   12  C2  UNL     1      12.527 -11.653  22.236  1.00  0.00     0.067 A 
HETATM   13  C1  UNL     1      11.554 -12.639  22.216  1.00  0.00     0.123 A 
HETATM   14  N3  UNL     1      10.606 -12.642  23.104  1.00  0.00    -0.271 N 
HETATM   15  N6  UNL     1      11.597 -13.600  21.265  1.00  0.00    -0.337 N 
ATOM     16  H3  UNL     1       9.889 -13.367  23.091  1.00  0.00     0.190 HD
HETATM   17  C22 UNL     1      12.593 -13.599  20.329  1.00  0.00     0.185 A 
ATOM     18  H6  UNL     1      10.883 -14.328  21.246  1.00  0.00     0.168 HD
BRANCH  14  19
HETATM   19  N2  UNL     1      10.580 -11.644  24.074  1.00  0.00    -0.248 N 
HETATM   20  N1  UNL     1      10.808 -11.896  25.284  1.00  0.00    -0.331 N 
ATOM     21  H12 UNL     1      11.017 -12.860  25.545  1.00  0.00     0.178 HD
ATOM     22  H11 UNL     1      10.789 -11.165  25.995  1.00  0.00     0.178 HD
ATOM     23  H2  UNL     1      10.369 -10.686  23.796  1.00  0.00     0.207 HD
ENDBRANCH  14  19
ENDBRANCH   9  10
ENDBRANCH   8   9
ENDBRANCH   1   7
BRANCH   4  24
HETATM   24  C11 UNL     1      21.696 -14.510  23.476  1.00  0.00     0.040 C 
BRANCH  24  25
HETATM   25  C12 UNL     1      21.399 -15.252  24.730  1.00  0.00     0.025 C 
BRANCH  25  26
HETATM   26  C13 UNL     1      21.229 -16.701  24.462  1.00  0.00     0.128 C 
BRANCH  26  27
HETATM   27  N5  UNL     1      19.892 -17.189  24.421  1.00  0.00    -0.366 N 
HETATM   28  C14 UNL     1      19.430 -17.759  23.302  1.00  0.00     0.091 A 
HETATM   29  C15 UNL     1      18.130 -18.243  23.235  1.00  0.00     0.026 A 
HETATM   30  C16 UNL     1      17.286 -18.148  24.318  1.00  0.00    -0.032 A 
HETATM   31  C18 UNL     1      17.762 -17.565  25.461  1.00  0.00     0.026 A 
HETATM   32  C19 UNL     1      19.054 -17.104  25.469  1.00  0.00     0.091 A 
BRANCH  30  33
HETATM   33  C17 UNL     1      15.880 -18.656  24.286  1.00  0.00     0.203 C 
BRANCH  33  34
HETATM   34  O1  UNL     1      15.039 -17.783  23.584  1.00  0.00    -0.396 OA
ATOM     35  H1  UNL     1      14.234 -18.215  23.323  1.00  0.00     0.209 HD
ENDBRANCH  33  34
ENDBRANCH  30  33
ENDBRANCH  26  27
ENDBRANCH  25  26
ENDBRANCH  24  25
ENDBRANCH   4  24
TORSDOF 10
ENDMDL
MODEL 5
REMARK VINA RESULT: -8.150327096      3.882     11.503
REMARK  10 active torsions:
REMARK  status: ('A' for Active; 'I' for Inactive)
REMARK    1  A    between atoms: N2_4  and  N3_6 
REMARK    2  A    between atoms: N4_11  and  C4_12 
REMARK    3  A    between atoms: C4_12  and  C5_13 
REMARK    4  A    between atoms: C6_14  and  C7_15 
REMARK    5  A    between atoms: C10_18  and  C11_19 
REMARK    6  A    between atoms: C11_19  and  C12_20 
REMARK    7  A    between atoms: C12_20  and  C13_21 
REMARK    8  A    between atoms: C13_21  and  N5_22 
REMARK    9  A    between atoms: C16_25  and  C17_26 
REMARK   10  A    between atoms: C17_26  and  O1_27 
ROOT
HETATM    1  C7  UNL     1      17.872 -13.584  21.276  1.00  0.00     0.017 A 
HETATM    2  C8  UNL     1      17.935 -13.963  22.602  1.00  0.00     0.021 A 
HETATM    3  C9  UNL     1      19.133 -14.251  23.229  1.00  0.00     0.008 A 
HETATM    4  C10 UNL     1      20.327 -14.168  22.543  1.00  0.00    -0.058 A 
HETATM    5  C20 UNL     1      20.279 -13.795  21.234  1.00  0.00     0.008 A 
HETATM    6  C21 UNL     1      19.082 -13.508  20.606  1.00  0.00     0.021 A 
ENDROOT
BRANCH   1   7
HETATM    7  C6  UNL     1      16.625 -13.285  20.624  1.00  0.00    -0.065 C 
HETATM    8  C5  UNL     1      15.570 -13.023  20.091  1.00  0.00    -0.081 C 
BRANCH   8   9
HETATM    9  C4  UNL     1      14.278 -12.702  19.467  1.00  0.00     0.223 C 
BRANCH   9  10
HETATM   10  N4  UNL     1      13.292 -12.675  20.498  1.00  0.00    -0.342 N 
HETATM   11  C3  UNL     1      13.271 -11.655  21.368  1.00  0.00     0.096 A 
HETATM   12  C2  UNL     1      12.322 -11.590  22.391  1.00  0.00     0.067 A 
HETATM   13  C1  UNL     1      11.396 -12.617  22.483  1.00  0.00     0.123 A 
HETATM   14  N3  UNL     1      10.493 -12.602  23.417  1.00  0.00    -0.271 N 
HETATM   15  N6  UNL     1      11.437 -13.635  21.594  1.00  0.00    -0.337 N 
ATOM     16  H3  UNL     1       9.811 -13.357  23.487  1.00  0.00     0.190 HD
HETATM   17  C22 UNL     1      12.386 -13.652  20.610  1.00  0.00     0.185 A 
ATOM     18  H6  UNL     1      10.758 -14.393  21.657  1.00  0.00     0.168 HD
BRANCH  14  19
HETATM   19  N2  UNL     1      10.467 -11.546  24.323  1.00  0.00    -0.248 N 
HETATM   20  N1  UNL     1      10.867 -11.683  25.506  1.00  0.00    -0.331 N 
ATOM     21  H12 UNL     1      11.216 -12.597  25.794  1.00  0.00     0.178 HD
ATOM     22  H11 UNL     1      10.848 -10.909  26.170  1.00  0.00     0.178 HD
ATOM     23  H2  UNL     1      10.115 -10.639  24.018  1.00  0.00     0.207 HD
ENDBRANCH  14  19
ENDBRANCH   9  10
ENDBRANCH   8   9
ENDBRANCH   1   7
BRANCH   4  24
HETATM   24  C11 UNL     1      21.591 -14.489  23.268  1.00  0.00     0.040 C 
BRANCH  24  25
HETATM   25  C12 UNL     1      21.405 -14.573  24.741  1.00  0.00     0.025 C 
BRANCH  25  26
HETATM   26  C13 UNL     1      21.800 -15.910  25.251  1.00  0.00     0.128 C 
BRANCH  26  27
HETATM   27  N5  UNL     1      23.039 -16.430  24.780  1.00  0.00    -0.366 N 
HETATM   28  C14 UNL     1      24.126 -15.651  24.779  1.00  0.00     0.091 A 
HETATM   29  C15 UNL     1      25.347 -16.134  24.325  1.00  0.00     0.026 A 
HETATM   30  C16 UNL     1      25.467 -17.425  23.864  1.00  0.00    -0.032 A 
HETATM   31  C18 UNL     1      24.353 -18.219  23.866  1.00  0.00     0.026 A 
HETATM   32  C19 UNL     1      23.174 -17.688  24.326  1.00  0.00     0.091 A 
BRANCH  30  33
HETATM   33  C17 UNL     1      26.763 -17.982  23.366  1.00  0.00     0.203 C 
BRANCH  33  34
HETATM   34  O1  UNL     1      27.632 -16.962  22.957  1.00  0.00    -0.396 OA
ATOM     35  H1  UNL     1      27.779 -16.335  23.655  1.00  0.00     0.209 HD
ENDBRANCH  33  34
ENDBRANCH  30  33
ENDBRANCH  26  27
ENDBRANCH  25  26
ENDBRANCH  24  25
ENDBRANCH   4  24
TORSDOF 10
ENDMDL
