MODEL 1
REMARK VINA RESULT: -8.141883327      0.000      0.000
REMARK  8 active torsions:
REMARK  status: ('A' for Active; 'I' for Inactive)
REMARK    1  A    between atoms: C4_7  and  C5_8 
REMARK    2  A    between atoms: C5_8  and  C6_9 
REMARK    3  A    between atoms: C6_9  and  C7_10 
REMARK    4  A    between atoms: C7_10  and  N3_11 
REMARK    5  A    between atoms: N5_20  and  C14_21 
REMARK    6  A    between atoms: C14_21  and  C15_22 
REMARK    7  A    between atoms: C15_22  and  C16_23 
REMARK    8  A    between atoms: C20_30  and  N8_31 
ROOT
HETATM    1  N3  UNL     1      16.592 -13.236  20.451  1.00  0.00    -0.168 N 
HETATM    2  C8  UNL     1      16.399 -13.072  19.108  1.00  0.00     0.135 A 
HETATM    3  N4  UNL     1      17.417 -12.748  18.325  1.00  0.00    -0.351 N 
ATOM      4  H4  UNL     1      18.340 -12.615  18.739  1.00  0.00     0.166 HD
HETATM    5  C9  UNL     1      17.264 -12.589  16.998  1.00  0.00     0.090 A 
HETATM    6  C10 UNL     1      16.031 -12.766  16.437  1.00  0.00     0.018 A 
HETATM    7  C11 UNL     1      14.923 -13.104  17.170  1.00  0.00     0.018 A 
HETATM    8  C12 UNL     1      15.074 -13.266  18.523  1.00  0.00     0.025 A 
HETATM    9  C13 UNL     1      13.996 -13.622  19.332  1.00  0.00     0.124 A 
HETATM   10  N5  UNL     1      14.265 -13.765  20.631  1.00  0.00    -0.192 N 
HETATM   11  C20 UNL     1      15.507 -13.579  21.162  1.00  0.00     0.681 A 
ENDROOT
BRANCH   1  12
HETATM   12  C7  UNL     1      17.867 -13.003  21.048  1.00  0.00     0.149 C 
BRANCH  12  13
HETATM   13  C6  UNL     1      18.764 -14.204  21.132  1.00  0.00     0.027 C 
BRANCH  13  14
HETATM   14  C5  UNL     1      20.214 -13.929  21.374  1.00  0.00     0.060 C 
BRANCH  14  15
HETATM   15  C4  UNL     1      20.503 -14.380  22.783  1.00  0.00     0.024 A 
HETATM   16  N2  UNL     1      21.760 -14.480  23.250  1.00  0.00    -0.367 N 
HETATM   17  C3  UNL     1      22.051 -14.879  24.502  1.00  0.00     0.105 A 
ATOM     18  H2  UNL     1      22.530 -14.243  22.625  1.00  0.00     0.165 HD
HETATM   19  C2  UNL     1      20.978 -15.198  25.335  1.00  0.00     0.107 A 
HETATM   20  N1  UNL     1      19.701 -15.113  24.913  1.00  0.00    -0.367 N 
HETATM   21  C1  UNL     1      18.638 -15.461  25.836  1.00  0.00     0.154 C 
HETATM   22  C21 UNL     1      19.480 -14.707  23.649  1.00  0.00     0.114 A 
ENDBRANCH  14  15
ENDBRANCH  13  14
ENDBRANCH  12  13
ENDBRANCH   1  12
BRANCH  11  23
HETATM   23  N8  UNL     1      15.559 -13.741  22.423  1.00  0.00    -0.234 N 
ATOM     24  H82 UNL     1      16.355 -14.297  22.737  1.00  0.00     0.174 HD
ATOM     25  H81 UNL     1      14.848 -13.351  23.043  1.00  0.00     0.174 HD
ENDBRANCH  11  23
BRANCH  10  26
HETATM   26  C14 UNL     1      13.137 -14.142  21.496  1.00  0.00     0.154 C 
BRANCH  26  27
HETATM   27  C15 UNL     1      11.961 -13.217  21.258  1.00  0.00     0.097 C 
BRANCH  27  28
HETATM   28  C16 UNL     1      11.786 -12.350  22.450  1.00  0.00     0.084 A 
HETATM   29  N6  UNL     1      10.895 -12.575  23.443  1.00  0.00    -0.354 N 
HETATM   30  C17 UNL     1      10.996 -11.605  24.365  1.00  0.00     0.106 A 
ATOM     31  H6  UNL     1      10.246 -13.361  23.485  1.00  0.00     0.166 HD
HETATM   32  C18 UNL     1      11.994 -10.764  23.900  1.00  0.00     0.108 A 
HETATM   33  N7  UNL     1      12.477 -11.221  22.728  1.00  0.00    -0.350 N 
HETATM   34  C19 UNL     1      13.531 -10.626  21.916  1.00  0.00     0.156 C 
ENDBRANCH  27  28
ENDBRANCH  26  27
ENDBRANCH  10  26
TORSDOF 8
ENDMDL
MODEL 2
REMARK VINA RESULT: -8.034556886      0.787      1.224
REMARK  8 active torsions:
REMARK  status: ('A' for Active; 'I' for Inactive)
REMARK    1  A    between atoms: C4_7  and  C5_8 
REMARK    2  A    between atoms: C5_8  and  C6_9 
REMARK    3  A    between atoms: C6_9  and  C7_10 
REMARK    4  A    between atoms: C7_10  and  N3_11 
REMARK    5  A    between atoms: N5_20  and  C14_21 
REMARK    6  A    between atoms: C14_21  and  C15_22 
REMARK    7  A    between atoms: C15_22  and  C16_23 
REMARK    8  A    between atoms: C20_30  and  N8_31 
ROOT
HETATM    1  N3  UNL     1      16.610 -13.371  20.484  1.00  0.00    -0.168 N 
HETATM    2  C8  UNL     1      16.402 -13.116  19.158  1.00  0.00     0.135 A 
HETATM    3  N4  UNL     1      17.422 -12.810  18.371  1.00  0.00    -0.351 N 
ATOM      4  H4  UNL     1      18.359 -12.759  18.770  1.00  0.00     0.166 HD
HETATM    5  C9  UNL     1      17.253 -12.563  17.060  1.00  0.00     0.090 A 
HETATM    6  C10 UNL     1      16.000 -12.630  16.519  1.00  0.00     0.018 A 
HETATM    7  C11 UNL     1      14.888 -12.942  17.257  1.00  0.00     0.018 A 
HETATM    8  C12 UNL     1      15.056 -13.193  18.594  1.00  0.00     0.025 A 
HETATM    9  C13 UNL     1      13.973 -13.529  19.406  1.00  0.00     0.124 A 
HETATM   10  N5  UNL     1      14.258 -13.765  20.688  1.00  0.00    -0.192 N 
HETATM   11  C20 UNL     1      15.520 -13.687  21.200  1.00  0.00     0.681 A 
ENDROOT
BRANCH   1  12
HETATM   12  C7  UNL     1      17.909 -13.253  21.063  1.00  0.00     0.149 C 
BRANCH  12  13
HETATM   13  C6  UNL     1      18.727 -14.513  21.064  1.00  0.00     0.027 C 
BRANCH  13  14
HETATM   14  C5  UNL     1      20.018 -14.461  21.817  1.00  0.00     0.060 C 
BRANCH  14  15
HETATM   15  C4  UNL     1      19.674 -14.684  23.268  1.00  0.00     0.024 A 
HETATM   16  N2  UNL     1      18.643 -15.464  23.638  1.00  0.00    -0.367 N 
HETATM   17  C3  UNL     1      18.311 -15.683  24.924  1.00  0.00     0.105 A 
ATOM     18  H2  UNL     1      18.087 -15.912  22.910  1.00  0.00     0.165 HD
HETATM   19  C2  UNL     1      19.088 -15.058  25.898  1.00  0.00     0.107 A 
HETATM   20  N1  UNL     1      20.130 -14.266  25.577  1.00  0.00    -0.367 N 
HETATM   21  C1  UNL     1      20.892 -13.650  26.645  1.00  0.00     0.154 C 
HETATM   22  C21 UNL     1      20.409 -14.089  24.273  1.00  0.00     0.114 A 
ENDBRANCH  14  15
ENDBRANCH  13  14
ENDBRANCH  12  13
ENDBRANCH   1  12
BRANCH  11  23
HETATM   23  N8  UNL     1      15.587 -13.927  22.447  1.00  0.00    -0.234 N 
ATOM     24  H82 UNL     1      16.432 -14.425  22.729  1.00  0.00     0.174 HD
ATOM     25  H81 UNL     1      14.842 -13.648  23.087  1.00  0.00     0.174 HD
ENDBRANCH  11  23
BRANCH  10  26
HETATM   26  C14 UNL     1      13.126 -14.122  21.556  1.00  0.00     0.154 C 
BRANCH  26  27
HETATM   27  C15 UNL     1      11.960 -13.188  21.308  1.00  0.00     0.097 C 
BRANCH  27  28
HETATM   28  C16 UNL     1      11.785 -12.316  22.496  1.00  0.00     0.084 A 
HETATM   29  N6  UNL     1      10.876 -12.522  23.477  1.00  0.00    -0.354 N 
HETATM   30  C17 UNL     1      10.982 -11.553  24.399  1.00  0.00     0.106 A 
ATOM     31  H6  UNL     1      10.213 -13.296  23.511  1.00  0.00     0.166 HD
HETATM   32  C18 UNL     1      12.002 -10.731  23.947  1.00  0.00     0.108 A 
HETATM   33  N7  UNL     1      12.493 -11.199  22.783  1.00  0.00    -0.350 N 
HETATM   34  C19 UNL     1      13.569 -10.625  21.984  1.00  0.00     0.156 C 
ENDBRANCH  27  28
ENDBRANCH  26  27
ENDBRANCH  10  26
TORSDOF 8
ENDMDL
MODEL 3
REMARK VINA RESULT: -7.915945613      1.911      7.764
REMARK  8 active torsions:
REMARK  status: ('A' for Active; 'I' for Inactive)
REMARK    1  A    between atoms: C4_7  and  C5_8 
REMARK    2  A    between atoms: C5_8  and  C6_9 
REMARK    3  A    between atoms: C6_9  and  C7_10 
REMARK    4  A    between atoms: C7_10  and  N3_11 
REMARK    5  A    between atoms: N5_20  and  C14_21 
REMARK    6  A    between atoms: C14_21  and  C15_22 
REMARK    7  A    between atoms: C15_22  and  C16_23 
REMARK    8  A    between atoms: C20_30  and  N8_31 
ROOT
HETATM    1  N3  UNL     1      16.473 -13.376  20.895  1.00  0.00    -0.168 N 
HETATM    2  C8  UNL     1      16.010 -14.662  20.851  1.00  0.00     0.135 A 
HETATM    3  N4  UNL     1      14.775 -14.910  20.442  1.00  0.00    -0.351 N 
ATOM      4  H4  UNL     1      14.176 -14.131  20.170  1.00  0.00     0.166 HD
HETATM    5  C9  UNL     1      14.292 -16.163  20.377  1.00  0.00     0.090 A 
HETATM    6  C10 UNL     1      15.090 -17.212  20.739  1.00  0.00     0.018 A 
HETATM    7  C11 UNL     1      16.380 -17.048  21.173  1.00  0.00     0.018 A 
HETATM    8  C12 UNL     1      16.876 -15.772  21.241  1.00  0.00     0.025 A 
HETATM    9  C13 UNL     1      18.184 -15.528  21.660  1.00  0.00     0.124 A 
HETATM   10  N5  UNL     1      18.561 -14.248  21.674  1.00  0.00    -0.192 N 
HETATM   11  C20 UNL     1      17.740 -13.223  21.308  1.00  0.00     0.681 A 
ENDROOT
BRANCH   1  12
HETATM   12  C7  UNL     1      15.627 -12.276  20.566  1.00  0.00     0.149 C 
BRANCH  12  13
HETATM   13  C6  UNL     1      14.714 -11.818  21.667  1.00  0.00     0.027 C 
BRANCH  13  14
HETATM   14  C5  UNL     1      13.261 -11.730  21.327  1.00  0.00     0.060 C 
BRANCH  14  15
HETATM   15  C4  UNL     1      12.534 -11.474  22.623  1.00  0.00     0.024 A 
HETATM   16  N2  UNL     1      11.838 -12.441  23.246  1.00  0.00    -0.367 N 
HETATM   17  C3  UNL     1      11.180 -12.245  24.403  1.00  0.00     0.105 A 
ATOM     18  H2  UNL     1      11.808 -13.368  22.821  1.00  0.00     0.165 HD
HETATM   19  C2  UNL     1      11.239 -10.968  24.961  1.00  0.00     0.107 A 
HETATM   20  N1  UNL     1      11.923  -9.966  24.374  1.00  0.00    -0.367 N 
HETATM   21  C1  UNL     1      11.939  -8.665  25.013  1.00  0.00     0.154 C 
HETATM   22  C21 UNL     1      12.559 -10.230  23.218  1.00  0.00     0.114 A 
ENDBRANCH  14  15
ENDBRANCH  13  14
ENDBRANCH  12  13
ENDBRANCH   1  12
BRANCH  11  23
HETATM   23  N8  UNL     1      18.275 -12.073  21.408  1.00  0.00    -0.234 N 
ATOM     24  H82 UNL     1      17.733 -11.325  20.975  1.00  0.00     0.174 HD
ATOM     25  H81 UNL     1      19.173 -11.938  21.873  1.00  0.00     0.174 HD
ENDBRANCH  11  23
BRANCH  10  26
HETATM   26  C14 UNL     1      19.938 -13.977  22.112  1.00  0.00     0.154 C 
BRANCH  26  27
HETATM   27  C15 UNL     1      20.540 -15.213  22.748  1.00  0.00     0.097 C 
BRANCH  27  28
HETATM   28  C16 UNL     1      21.382 -14.797  23.897  1.00  0.00     0.084 A 
HETATM   29  N6  UNL     1      22.716 -14.576  23.836  1.00  0.00    -0.354 N 
HETATM   30  C17 UNL     1      23.168 -14.215  25.047  1.00  0.00     0.106 A 
ATOM     31  H6  UNL     1      23.290 -14.669  22.998  1.00  0.00     0.166 HD
HETATM   32  C18 UNL     1      22.051 -14.220  25.868  1.00  0.00     0.108 A 
HETATM   33  N7  UNL     1      20.959 -14.576  25.163  1.00  0.00    -0.350 N 
HETATM   34  C19 UNL     1      19.593 -14.702  25.655  1.00  0.00     0.156 C 
ENDBRANCH  27  28
ENDBRANCH  26  27
ENDBRANCH  10  26
TORSDOF 8
ENDMDL
MODEL 4
REMARK VINA RESULT: -7.859672540      0.888      1.096
REMARK  8 active torsions:
REMARK  status: ('A' for Active; 'I' for Inactive)
REMARK    1  A    between atoms: C4_7  and  C5_8 
REMARK    2  A    between atoms: C5_8  and  C6_9 
REMARK    3  A    between atoms: C6_9  and  C7_10 
REMARK    4  A    between atoms: C7_10  and  N3_11 
REMARK    5  A    between atoms: N5_20  and  C14_21 
REMARK    6  A    between atoms: C14_21  and  C15_22 
REMARK    7  A    between atoms: C15_22  and  C16_23 
REMARK    8  A    between atoms: C20_30  and  N8_31 
ROOT
HETATM    1  N3  UNL     1      17.029 -13.297  20.704  1.00  0.00    -0.168 N 
HETATM    2  C8  UNL     1      16.631 -13.133  19.406  1.00  0.00     0.135 A 
HETATM    3  N4  UNL     1      17.515 -12.810  18.475  1.00  0.00    -0.351 N 
ATOM      4  H4  UNL     1      18.491 -12.677  18.741  1.00  0.00     0.166 HD
HETATM    5  C9  UNL     1      17.158 -12.651  17.188  1.00  0.00     0.090 A 
HETATM    6  C10 UNL     1      15.853 -12.828  16.825  1.00  0.00     0.018 A 
HETATM    7  C11 UNL     1      14.871 -13.165  17.721  1.00  0.00     0.018 A 
HETATM    8  C12 UNL     1      15.231 -13.327  19.034  1.00  0.00     0.025 A 
HETATM    9  C13 UNL     1      14.291 -13.682  20.001  1.00  0.00     0.124 A 
HETATM   10  N5  UNL     1      14.758 -13.824  21.242  1.00  0.00    -0.192 N 
HETATM   11  C20 UNL     1      16.068 -13.638  21.575  1.00  0.00     0.681 A 
ENDROOT
BRANCH   1  12
HETATM   12  C7  UNL     1      18.381 -13.063  21.095  1.00  0.00     0.149 C 
BRANCH  12  13
HETATM   13  C6  UNL     1      19.278 -14.268  21.051  1.00  0.00     0.027 C 
BRANCH  13  14
HETATM   14  C5  UNL     1      20.434 -14.266  22.000  1.00  0.00     0.060 C 
BRANCH  14  15
HETATM   15  C4  UNL     1      19.893 -14.726  23.330  1.00  0.00     0.024 A 
HETATM   16  N2  UNL     1      20.161 -14.065  24.470  1.00  0.00    -0.367 N 
HETATM   17  C3  UNL     1      19.694 -14.450  25.671  1.00  0.00     0.105 A 
ATOM     18  H2  UNL     1      20.747 -13.232  24.421  1.00  0.00     0.165 HD
HETATM   19  C2  UNL     1      18.895 -15.593  25.708  1.00  0.00     0.107 A 
HETATM   20  N1  UNL     1      18.599 -16.290  24.593  1.00  0.00    -0.367 N 
HETATM   21  C1  UNL     1      17.763 -17.468  24.709  1.00  0.00     0.154 C 
HETATM   22  C21 UNL     1      19.098 -15.850  23.424  1.00  0.00     0.114 A 
ENDBRANCH  14  15
ENDBRANCH  13  14
ENDBRANCH  12  13
ENDBRANCH   1  12
BRANCH  11  23
HETATM   23  N8  UNL     1      16.314 -13.800  22.812  1.00  0.00    -0.234 N 
ATOM     24  H82 UNL     1      15.953 -13.054  23.407  1.00  0.00     0.174 HD
ATOM     25  H81 UNL     1      16.840 -14.605  23.153  1.00  0.00     0.174 HD
ENDBRANCH  11  23
BRANCH  10  26
HETATM   26  C14 UNL     1      13.777 -14.201  22.272  1.00  0.00     0.154 C 
BRANCH  26  27
HETATM   27  C15 UNL     1      12.421 -13.612  21.944  1.00  0.00     0.097 C 
BRANCH  27  28
HETATM   28  C16 UNL     1      12.095 -12.574  22.953  1.00  0.00     0.084 A 
HETATM   29  N6  UNL     1      11.287 -12.764  24.022  1.00  0.00    -0.354 N 
HETATM   30  C17 UNL     1      11.204 -11.626  24.730  1.00  0.00     0.106 A 
ATOM     31  H6  UNL     1      10.815 -13.637  24.255  1.00  0.00     0.166 HD
HETATM   32  C18 UNL     1      12.000 -10.717  24.052  1.00  0.00     0.108 A 
HETATM   33  N7  UNL     1      12.544 -11.298  22.964  1.00  0.00    -0.350 N 
HETATM   34  C19 UNL     1      13.437 -10.684  21.989  1.00  0.00     0.156 C 
ENDBRANCH  27  28
ENDBRANCH  26  27
ENDBRANCH  10  26
TORSDOF 8
ENDMDL
MODEL 5
REMARK VINA RESULT: -7.760089421      1.601      2.554
REMARK  8 active torsions:
REMARK  status: ('A' for Active; 'I' for Inactive)
REMARK    1  A    between atoms: C4_7  and  C5_8 
REMARK    2  A    between atoms: C5_8  and  C6_9 
REMARK    3  A    between atoms: C6_9  and  C7_10 
REMARK    4  A    between atoms: C7_10  and  N3_11 
REMARK    5  A    between atoms: N5_20  and  C14_21 
REMARK    6  A    between atoms: C14_21  and  C15_22 
REMARK    7  A    between atoms: C15_22  and  C16_23 
REMARK    8  A    between atoms: C20_30  and  N8_31 
ROOT
HETATM    1  N3  UNL     1      15.263 -13.292  19.928  1.00  0.00    -0.168 N 
HETATM    2  C8  UNL     1      14.349 -14.268  19.647  1.00  0.00     0.135 A 
HETATM    3  N4  UNL     1      14.721 -15.362  19.000  1.00  0.00    -0.351 N 
ATOM      4  H4  UNL     1      15.694 -15.459  18.709  1.00  0.00     0.166 HD
HETATM    5  C9  UNL     1      13.850 -16.346  18.717  1.00  0.00     0.090 A 
HETATM    6  C10 UNL     1      12.546 -16.222  19.106  1.00  0.00     0.018 A 
HETATM    7  C11 UNL     1      12.072 -15.127  19.781  1.00  0.00     0.018 A 
HETATM    8  C12 UNL     1      12.958 -14.121  20.070  1.00  0.00     0.025 A 
HETATM    9  C13 UNL     1      12.553 -12.982  20.765  1.00  0.00     0.124 A 
HETATM   10  N5  UNL     1      13.503 -12.076  21.002  1.00  0.00    -0.192 N 
HETATM   11  C20 UNL     1      14.797 -12.227  20.599  1.00  0.00     0.681 A 
ENDROOT
BRANCH   1  12
HETATM   12  C7  UNL     1      16.614 -13.394  19.480  1.00  0.00     0.149 C 
BRANCH  12  13
HETATM   13  C6  UNL     1      17.569 -14.012  20.462  1.00  0.00     0.027 C 
BRANCH  13  14
HETATM   14  C5  UNL     1      18.823 -13.244  20.734  1.00  0.00     0.060 C 
BRANCH  14  15
HETATM   15  C4  UNL     1      19.413 -13.827  21.993  1.00  0.00     0.024 A 
HETATM   16  N2  UNL     1      20.738 -14.001  22.139  1.00  0.00    -0.367 N 
HETATM   17  C3  UNL     1      21.295 -14.518  23.249  1.00  0.00     0.105 A 
ATOM     18  H2  UNL     1      21.350 -13.729  21.370  1.00  0.00     0.165 HD
HETATM   19  C2  UNL     1      20.434 -14.882  24.284  1.00  0.00     0.107 A 
HETATM   20  N1  UNL     1      19.099 -14.727  24.186  1.00  0.00    -0.367 N 
HETATM   21  C1  UNL     1      18.266 -15.128  25.303  1.00  0.00     0.154 C 
HETATM   22  C21 UNL     1      18.607 -14.204  23.048  1.00  0.00     0.114 A 
ENDBRANCH  14  15
ENDBRANCH  13  14
ENDBRANCH  12  13
ENDBRANCH   1  12
BRANCH  11  23
HETATM   23  N8  UNL     1      15.550 -11.247  20.901  1.00  0.00    -0.234 N 
ATOM     24  H82 UNL     1      16.283 -11.478  21.571  1.00  0.00     0.174 HD
ATOM     25  H81 UNL     1      15.403 -10.318  20.505  1.00  0.00     0.174 HD
ENDBRANCH  11  23
BRANCH  10  26
HETATM   26  C14 UNL     1      13.090 -10.870  21.736  1.00  0.00     0.154 C 
BRANCH  26  27
HETATM   27  C15 UNL     1      11.601 -10.906  22.009  1.00  0.00     0.097 C 
BRANCH  27  28
HETATM   28  C16 UNL     1      11.383 -11.308  23.421  1.00  0.00     0.084 A 
HETATM   29  N6  UNL     1      10.994 -12.540  23.820  1.00  0.00    -0.354 N 
HETATM   30  C17 UNL     1      10.891 -12.567  25.158  1.00  0.00     0.106 A 
ATOM     31  H6  UNL     1      10.807 -13.328  23.200  1.00  0.00     0.166 HD
HETATM   32  C18 UNL     1      11.236 -11.292  25.575  1.00  0.00     0.108 A 
HETATM   33  N7  UNL     1      11.537 -10.522  24.511  1.00  0.00    -0.350 N 
HETATM   34  C19 UNL     1      11.947  -9.123  24.521  1.00  0.00     0.156 C 
ENDBRANCH  27  28
ENDBRANCH  26  27
ENDBRANCH  10  26
TORSDOF 8
ENDMDL
