MODEL 1
REMARK VINA RESULT: -7.955061296      0.000      0.000
REMARK  10 active torsions:
REMARK  status: ('A' for Active; 'I' for Inactive)
REMARK    1  A    between atoms: C6_10  and  C7_11 
REMARK    2  A    between atoms: N3_14  and  C10_15 
REMARK    3  A    between atoms: C10_15  and  C11_16 
REMARK    4  A    between atoms: C11_16  and  C12_17 
REMARK    5  A    between atoms: C12_17  and  C13_18 
REMARK    6  A    between atoms: C13_18  and  C14_19 
REMARK    7  A    between atoms: N5_22  and  C15_23 
REMARK    8  A    between atoms: C15_23  and  C16_24 
REMARK    9  A    between atoms: C16_24  and  C17_25 
REMARK   10  A    between atoms: C17_25  and  C18_26 
ROOT
HETATM    1  C7  UNL     1      12.386 -14.572  21.554  1.00  0.00    -0.007 A 
HETATM    2  C8  UNL     1      11.882 -14.768  20.275  1.00  0.00     0.031 A 
HETATM    3  C9  UNL     1      12.173 -15.936  19.592  1.00  0.00     0.091 A 
HETATM    4  N3  UNL     1      12.927 -16.908  20.104  1.00  0.00    -0.366 N 
HETATM    5  C21 UNL     1      13.423 -16.735  21.341  1.00  0.00     0.091 A 
HETATM    6  C22 UNL     1      13.165 -15.581  22.077  1.00  0.00     0.031 A 
ENDROOT
BRANCH   4   7
HETATM    7  C10 UNL     1      13.218 -18.124  19.368  1.00  0.00     0.128 C 
BRANCH   7   8
HETATM    8  C11 UNL     1      13.660 -17.676  17.964  1.00  0.00     0.021 C 
BRANCH   8   9
HETATM    9  C12 UNL     1      15.099 -17.279  17.963  1.00  0.00     0.009 C 
BRANCH   9  10
HETATM   10  C13 UNL     1      15.273 -15.938  17.312  1.00  0.00     0.078 C 
BRANCH  10  11
HETATM   11  C14 UNL     1      15.351 -14.901  18.373  1.00  0.00     0.096 A 
HETATM   12  N4  UNL     1      15.985 -14.968  19.563  1.00  0.00    -0.285 N 
HETATM   13  N5  UNL     1      15.837 -13.861  20.263  1.00  0.00    -0.275 N 
ATOM     14  H4  UNL     1      16.514 -15.779  19.882  1.00  0.00     0.188 HD
HETATM   15  C20 UNL     1      15.079 -13.052  19.492  1.00  0.00     0.202 A 
HETATM   16  N6  UNL     1      14.778 -13.678  18.340  1.00  0.00    -0.340 N 
ATOM     17  H6  UNL     1      14.218 -13.297  17.577  1.00  0.00     0.168 HD
BRANCH  13  18
HETATM   18  C15 UNL     1      16.350 -13.525  21.576  1.00  0.00     0.243 C 
BRANCH  18  19
HETATM   19  C16 UNL     1      17.815 -13.575  21.500  1.00  0.00    -0.085 C 
BRANCH  19  20
HETATM   20  C17 UNL     1      19.026 -13.620  21.432  1.00  0.00    -0.105 C 
BRANCH  20  21
HETATM   21  C18 UNL     1      20.486 -13.659  21.342  1.00  0.00     0.089 C 
HETATM   22  C19 UNL     1      20.918 -12.781  20.206  1.00  0.00     0.018 C 
ENDBRANCH  20  21
ENDBRANCH  19  20
ENDBRANCH  18  19
ENDBRANCH  13  18
ENDBRANCH  10  11
ENDBRANCH   9  10
ENDBRANCH   8   9
ENDBRANCH   7   8
ENDBRANCH   4   7
BRANCH   1  23
HETATM   23  C6  UNL     1      12.100 -13.351  22.306  1.00  0.00     0.046 A 
HETATM   24  C5  UNL     1      13.069 -12.280  22.507  1.00  0.00     0.064 A 
HETATM   25  C4  UNL     1      12.520 -11.309  23.227  1.00  0.00     0.080 A 
HETATM   26  C3  UNL     1      11.224 -11.700  23.509  1.00  0.00     0.134 A 
HETATM   27  N2  UNL     1      12.784 -10.105  23.764  1.00  0.00    -0.340 N 
HETATM   28  N1  UNL     1      10.702 -10.705  24.231  1.00  0.00    -0.327 N 
HETATM   29  N7  UNL     1      11.030 -12.991  22.901  1.00  0.00    -0.340 N 
HETATM   30  C2  UNL     1      11.631  -9.740  24.391  1.00  0.00     0.097 A 
ATOM     31  H1  UNL     1       9.751 -10.678  24.602  1.00  0.00     0.169 HD
HETATM   32  C1  UNL     1      11.470  -8.607  25.050  1.00  0.00     0.063 C 
ATOM     33  H7  UNL     1      10.168 -13.534  22.939  1.00  0.00     0.167 HD
ATOM     34  H2  UNL     1      13.656  -9.579  23.713  1.00  0.00     0.167 HD
ENDBRANCH   1  23
TORSDOF 10
ENDMDL
MODEL 2
REMARK VINA RESULT: -7.549935898      1.361      1.912
REMARK  10 active torsions:
REMARK  status: ('A' for Active; 'I' for Inactive)
REMARK    1  A    between atoms: C6_10  and  C7_11 
REMARK    2  A    between atoms: N3_14  and  C10_15 
REMARK    3  A    between atoms: C10_15  and  C11_16 
REMARK    4  A    between atoms: C11_16  and  C12_17 
REMARK    5  A    between atoms: C12_17  and  C13_18 
REMARK    6  A    between atoms: C13_18  and  C14_19 
REMARK    7  A    between atoms: N5_22  and  C15_23 
REMARK    8  A    between atoms: C15_23  and  C16_24 
REMARK    9  A    between atoms: C16_24  and  C17_25 
REMARK   10  A    between atoms: C17_25  and  C18_26 
ROOT
HETATM    1  C7  UNL     1      12.460 -14.431  21.036  1.00  0.00    -0.007 A 
HETATM    2  C8  UNL     1      12.122 -15.728  21.398  1.00  0.00     0.031 A 
HETATM    3  C9  UNL     1      12.430 -16.782  20.554  1.00  0.00     0.091 A 
HETATM    4  N3  UNL     1      13.048 -16.618  19.384  1.00  0.00    -0.366 N 
HETATM    5  C21 UNL     1      13.382 -15.369  19.018  1.00  0.00     0.091 A 
HETATM    6  C22 UNL     1      13.098 -14.270  19.825  1.00  0.00     0.031 A 
ENDROOT
BRANCH   4   7
HETATM    7  C10 UNL     1      13.359 -17.739  18.516  1.00  0.00     0.128 C 
BRANCH   7   8
HETATM    8  C11 UNL     1      14.259 -18.677  19.339  1.00  0.00     0.021 C 
BRANCH   8   9
HETATM    9  C12 UNL     1      15.655 -18.151  19.403  1.00  0.00     0.009 C 
BRANCH   9  10
HETATM   10  C13 UNL     1      16.122 -18.069  20.826  1.00  0.00     0.078 C 
BRANCH  10  11
HETATM   11  C14 UNL     1      16.087 -16.648  21.258  1.00  0.00     0.096 A 
HETATM   12  N4  UNL     1      16.526 -15.561  20.589  1.00  0.00    -0.285 N 
HETATM   13  N5  UNL     1      16.344 -14.452  21.278  1.00  0.00    -0.275 N 
ATOM     14  H4  UNL     1      16.947 -15.593  19.661  1.00  0.00     0.188 HD
HETATM   15  C20 UNL     1      15.767 -14.844  22.435  1.00  0.00     0.202 A 
HETATM   16  N6  UNL     1      15.608 -16.179  22.430  1.00  0.00    -0.340 N 
ATOM     17  H6  UNL     1      15.197 -16.738  23.179  1.00  0.00     0.168 HD
BRANCH  13  18
HETATM   18  C15 UNL     1      16.671 -13.084  20.928  1.00  0.00     0.243 C 
BRANCH  18  19
HETATM   19  C16 UNL     1      18.083 -13.059  20.530  1.00  0.00    -0.085 C 
BRANCH  19  20
HETATM   20  C17 UNL     1      19.253 -13.043  20.206  1.00  0.00    -0.105 C 
BRANCH  20  21
HETATM   21  C18 UNL     1      20.659 -13.026  19.798  1.00  0.00     0.089 C 
HETATM   22  C19 UNL     1      20.731 -12.641  18.351  1.00  0.00     0.018 C 
ENDBRANCH  20  21
ENDBRANCH  19  20
ENDBRANCH  18  19
ENDBRANCH  13  18
ENDBRANCH  10  11
ENDBRANCH   9  10
ENDBRANCH   8   9
ENDBRANCH   7   8
ENDBRANCH   4   7
BRANCH   1  23
HETATM   23  C6  UNL     1      12.151 -13.293  21.901  1.00  0.00     0.046 A 
HETATM   24  C5  UNL     1      13.097 -12.226  22.201  1.00  0.00     0.064 A 
HETATM   25  C4  UNL     1      12.530 -11.340  23.011  1.00  0.00     0.080 A 
HETATM   26  C3  UNL     1      11.243 -11.784  23.256  1.00  0.00     0.134 A 
HETATM   27  N2  UNL     1      12.769 -10.187  23.660  1.00  0.00    -0.340 N 
HETATM   28  N1  UNL     1      10.702 -10.873  24.071  1.00  0.00    -0.327 N 
HETATM   29  N7  UNL     1      11.075 -13.015  22.528  1.00  0.00    -0.340 N 
HETATM   30  C2  UNL     1      11.611  -9.908  24.320  1.00  0.00     0.097 A 
ATOM     31  H1  UNL     1       9.753 -10.903  24.444  1.00  0.00     0.169 HD
HETATM   32  C1  UNL     1      11.427  -8.847  25.084  1.00  0.00     0.063 C 
ATOM     33  H7  UNL     1      10.225 -13.579  22.516  1.00  0.00     0.167 HD
ATOM     34  H2  UNL     1      13.630  -9.640  23.657  1.00  0.00     0.167 HD
ENDBRANCH   1  23
TORSDOF 10
ENDMDL
MODEL 3
REMARK VINA RESULT: -7.530857003      1.679      2.550
REMARK  10 active torsions:
REMARK  status: ('A' for Active; 'I' for Inactive)
REMARK    1  A    between atoms: C6_10  and  C7_11 
REMARK    2  A    between atoms: N3_14  and  C10_15 
REMARK    3  A    between atoms: C10_15  and  C11_16 
REMARK    4  A    between atoms: C11_16  and  C12_17 
REMARK    5  A    between atoms: C12_17  and  C13_18 
REMARK    6  A    between atoms: C13_18  and  C14_19 
REMARK    7  A    between atoms: N5_22  and  C15_23 
REMARK    8  A    between atoms: C15_23  and  C16_24 
REMARK    9  A    between atoms: C16_24  and  C17_25 
REMARK   10  A    between atoms: C17_25  and  C18_26 
ROOT
HETATM    1  C7  UNL     1      12.543 -14.419  21.129  1.00  0.00    -0.007 A 
HETATM    2  C8  UNL     1      13.087 -14.250  19.862  1.00  0.00     0.031 A 
HETATM    3  C9  UNL     1      13.395 -15.357  19.091  1.00  0.00     0.091 A 
HETATM    4  N3  UNL     1      13.195 -16.608  19.504  1.00  0.00    -0.366 N 
HETATM    5  C21 UNL     1      12.669 -16.790  20.727  1.00  0.00     0.091 A 
HETATM    6  C22 UNL     1      12.339 -15.716  21.549  1.00  0.00     0.031 A 
ENDROOT
BRANCH   4   7
HETATM    7  C10 UNL     1      13.527 -17.753  18.677  1.00  0.00     0.128 C 
BRANCH   7   8
HETATM    8  C11 UNL     1      14.488 -18.617  19.511  1.00  0.00     0.021 C 
BRANCH   8   9
HETATM    9  C12 UNL     1      15.857 -18.023  19.525  1.00  0.00     0.009 C 
BRANCH   9  10
HETATM   10  C13 UNL     1      16.332 -17.829  20.935  1.00  0.00     0.078 C 
BRANCH  10  11
HETATM   11  C14 UNL     1      16.297 -16.378  21.254  1.00  0.00     0.096 A 
HETATM   12  N4  UNL     1      16.633 -15.340  20.460  1.00  0.00    -0.285 N 
HETATM   13  N5  UNL     1      16.487 -14.182  21.075  1.00  0.00    -0.275 N 
ATOM     14  H4  UNL     1      16.961 -15.439  19.500  1.00  0.00     0.188 HD
HETATM   15  C20 UNL     1      16.040 -14.492  22.311  1.00  0.00     0.202 A 
HETATM   16  N6  UNL     1      15.922 -15.826  22.429  1.00  0.00    -0.340 N 
ATOM     17  H6  UNL     1      15.606 -16.331  23.257  1.00  0.00     0.168 HD
BRANCH  13  18
HETATM   18  C15 UNL     1      16.735 -12.841  20.586  1.00  0.00     0.243 C 
BRANCH  18  19
HETATM   19  C16 UNL     1      16.564 -12.867  19.129  1.00  0.00    -0.085 C 
BRANCH  19  20
HETATM   20  C17 UNL     1      16.420 -12.881  17.923  1.00  0.00    -0.105 C 
BRANCH  20  21
HETATM   21  C18 UNL     1      16.262 -12.909  16.469  1.00  0.00     0.089 C 
HETATM   22  C19 UNL     1      16.797 -11.627  15.905  1.00  0.00     0.018 C 
ENDBRANCH  20  21
ENDBRANCH  19  20
ENDBRANCH  18  19
ENDBRANCH  13  18
ENDBRANCH  10  11
ENDBRANCH   9  10
ENDBRANCH   8   9
ENDBRANCH   7   8
ENDBRANCH   4   7
BRANCH   1  23
HETATM   23  C6  UNL     1      12.205 -13.274  21.973  1.00  0.00     0.046 A 
HETATM   24  C5  UNL     1      13.143 -12.207  22.300  1.00  0.00     0.064 A 
HETATM   25  C4  UNL     1      12.548 -11.313  23.081  1.00  0.00     0.080 A 
HETATM   26  C3  UNL     1      11.252 -11.750  23.280  1.00  0.00     0.134 A 
HETATM   27  N2  UNL     1      12.767 -10.155  23.730  1.00  0.00    -0.340 N 
HETATM   28  N1  UNL     1      10.683 -10.832  24.066  1.00  0.00    -0.327 N 
HETATM   29  N7  UNL     1      11.107 -12.987  22.556  1.00  0.00    -0.340 N 
HETATM   30  C2  UNL     1      11.585  -9.868  24.343  1.00  0.00     0.097 A 
ATOM     31  H1  UNL     1       9.720 -10.855  24.402  1.00  0.00     0.169 HD
HETATM   32  C1  UNL     1      11.376  -8.800  25.091  1.00  0.00     0.063 C 
ATOM     33  H7  UNL     1      10.256 -13.548  22.516  1.00  0.00     0.167 HD
ATOM     34  H2  UNL     1      13.629  -9.611  23.756  1.00  0.00     0.167 HD
ENDBRANCH   1  23
TORSDOF 10
ENDMDL
MODEL 4
REMARK VINA RESULT: -7.480458322      2.048      2.524
REMARK  10 active torsions:
REMARK  status: ('A' for Active; 'I' for Inactive)
REMARK    1  A    between atoms: C6_10  and  C7_11 
REMARK    2  A    between atoms: N3_14  and  C10_15 
REMARK    3  A    between atoms: C10_15  and  C11_16 
REMARK    4  A    between atoms: C11_16  and  C12_17 
REMARK    5  A    between atoms: C12_17  and  C13_18 
REMARK    6  A    between atoms: C13_18  and  C14_19 
REMARK    7  A    between atoms: N5_22  and  C15_23 
REMARK    8  A    between atoms: C15_23  and  C16_24 
REMARK    9  A    between atoms: C16_24  and  C17_25 
REMARK   10  A    between atoms: C17_25  and  C18_26 
ROOT
HETATM    1  C7  UNL     1      12.554 -14.386  21.086  1.00  0.00    -0.007 A 
HETATM    2  C8  UNL     1      13.225 -14.200  19.884  1.00  0.00     0.031 A 
HETATM    3  C9  UNL     1      13.541 -15.293  19.095  1.00  0.00     0.091 A 
HETATM    4  N3  UNL     1      13.233 -16.546  19.433  1.00  0.00    -0.366 N 
HETATM    5  C21 UNL     1      12.584 -16.743  20.593  1.00  0.00     0.091 A 
HETATM    6  C22 UNL     1      12.239 -15.683  21.428  1.00  0.00     0.031 A 
ENDROOT
BRANCH   4   7
HETATM    7  C10 UNL     1      13.577 -17.676  18.590  1.00  0.00     0.128 C 
BRANCH   7   8
HETATM    8  C11 UNL     1      14.523 -18.556  19.423  1.00  0.00     0.021 C 
BRANCH   8   9
HETATM    9  C12 UNL     1      15.814 -17.850  19.680  1.00  0.00     0.009 C 
BRANCH   9  10
HETATM   10  C13 UNL     1      16.171 -17.920  21.136  1.00  0.00     0.078 C 
BRANCH  10  11
HETATM   11  C14 UNL     1      16.534 -16.558  21.603  1.00  0.00     0.096 A 
HETATM   12  N4  UNL     1      17.743 -15.958  21.572  1.00  0.00    -0.285 N 
HETATM   13  N5  UNL     1      17.703 -14.742  22.081  1.00  0.00    -0.275 N 
ATOM     14  H4  UNL     1      18.587 -16.393  21.200  1.00  0.00     0.188 HD
HETATM   15  C20 UNL     1      16.418 -14.556  22.453  1.00  0.00     0.202 A 
HETATM   16  N6  UNL     1      15.700 -15.656  22.166  1.00  0.00    -0.340 N 
ATOM     17  H6  UNL     1      14.703 -15.787  22.341  1.00  0.00     0.168 HD
BRANCH  13  18
HETATM   18  C15 UNL     1      18.768 -13.771  22.236  1.00  0.00     0.243 C 
BRANCH  18  19
HETATM   19  C16 UNL     1      19.472 -14.088  23.484  1.00  0.00    -0.085 C 
BRANCH  19  20
HETATM   20  C17 UNL     1      20.056 -14.343  24.517  1.00  0.00    -0.105 C 
BRANCH  20  21
HETATM   21  C18 UNL     1      20.761 -14.668  25.757  1.00  0.00     0.089 C 
HETATM   22  C19 UNL     1      20.944 -13.407  26.547  1.00  0.00     0.018 C 
ENDBRANCH  20  21
ENDBRANCH  19  20
ENDBRANCH  18  19
ENDBRANCH  13  18
ENDBRANCH  10  11
ENDBRANCH   9  10
ENDBRANCH   8   9
ENDBRANCH   7   8
ENDBRANCH   4   7
BRANCH   1  23
HETATM   23  C6  UNL     1      12.203 -13.256  21.945  1.00  0.00     0.046 A 
HETATM   24  C5  UNL     1      13.135 -12.197  22.308  1.00  0.00     0.064 A 
HETATM   25  C4  UNL     1      12.528 -11.316  23.095  1.00  0.00     0.080 A 
HETATM   26  C3  UNL     1      11.229 -11.756  23.264  1.00  0.00     0.134 A 
HETATM   27  N2  UNL     1      12.737 -10.171  23.768  1.00  0.00    -0.340 N 
HETATM   28  N1  UNL     1      10.647 -10.851  24.057  1.00  0.00    -0.327 N 
HETATM   29  N7  UNL     1      11.095 -12.978  22.515  1.00  0.00    -0.340 N 
HETATM   30  C2  UNL     1      11.545  -9.893  24.366  1.00  0.00     0.097 A 
ATOM     31  H1  UNL     1       9.679 -10.880  24.376  1.00  0.00     0.169 HD
HETATM   32  C1  UNL     1      11.324  -8.839  25.130  1.00  0.00     0.063 C 
ATOM     33  H7  UNL     1      10.245 -13.538  22.450  1.00  0.00     0.167 HD
ATOM     34  H2  UNL     1      13.599  -9.628  23.819  1.00  0.00     0.167 HD
ENDBRANCH   1  23
TORSDOF 10
ENDMDL
MODEL 5
REMARK VINA RESULT: -7.374401996      0.896      1.199
REMARK  10 active torsions:
REMARK  status: ('A' for Active; 'I' for Inactive)
REMARK    1  A    between atoms: C6_10  and  C7_11 
REMARK    2  A    between atoms: N3_14  and  C10_15 
REMARK    3  A    between atoms: C10_15  and  C11_16 
REMARK    4  A    between atoms: C11_16  and  C12_17 
REMARK    5  A    between atoms: C12_17  and  C13_18 
REMARK    6  A    between atoms: C13_18  and  C14_19 
REMARK    7  A    between atoms: N5_22  and  C15_23 
REMARK    8  A    between atoms: C15_23  and  C16_24 
REMARK    9  A    between atoms: C16_24  and  C17_25 
REMARK   10  A    between atoms: C17_25  and  C18_26 
ROOT
HETATM    1  C7  UNL     1      12.354 -14.586  21.511  1.00  0.00    -0.007 A 
HETATM    2  C8  UNL     1      11.822 -14.787  20.244  1.00  0.00     0.031 A 
HETATM    3  C9  UNL     1      12.106 -15.953  19.553  1.00  0.00     0.091 A 
HETATM    4  N3  UNL     1      12.882 -16.918  20.046  1.00  0.00    -0.366 N 
HETATM    5  C21 UNL     1      13.406 -16.740  21.271  1.00  0.00     0.091 A 
HETATM    6  C22 UNL     1      13.155 -15.589  22.013  1.00  0.00     0.031 A 
ENDROOT
BRANCH   4   7
HETATM    7  C10 UNL     1      13.167 -18.131  19.303  1.00  0.00     0.128 C 
BRANCH   7   8
HETATM    8  C11 UNL     1      14.614 -18.516  19.654  1.00  0.00     0.021 C 
BRANCH   8   9
HETATM    9  C12 UNL     1      15.550 -18.109  18.564  1.00  0.00     0.009 C 
BRANCH   9  10
HETATM   10  C13 UNL     1      14.840 -17.261  17.550  1.00  0.00     0.078 C 
BRANCH  10  11
HETATM   11  C14 UNL     1      15.345 -15.868  17.657  1.00  0.00     0.096 A 
HETATM   12  N4  UNL     1      15.594 -15.153  18.775  1.00  0.00    -0.285 N 
HETATM   13  N5  UNL     1      16.028 -13.940  18.497  1.00  0.00    -0.275 N 
ATOM     14  H4  UNL     1      15.462 -15.509  19.722  1.00  0.00     0.188 HD
HETATM   15  C20 UNL     1      16.057 -13.874  17.149  1.00  0.00     0.202 A 
HETATM   16  N6  UNL     1      15.643 -15.043  16.630  1.00  0.00    -0.340 N 
ATOM     17  H6  UNL     1      15.567 -15.268  15.638  1.00  0.00     0.168 HD
BRANCH  13  18
HETATM   18  C15 UNL     1      16.405 -12.867  19.396  1.00  0.00     0.243 C 
BRANCH  18  19
HETATM   19  C16 UNL     1      17.824 -13.049  19.724  1.00  0.00    -0.085 C 
BRANCH  19  20
HETATM   20  C17 UNL     1      18.999 -13.194  19.990  1.00  0.00    -0.105 C 
BRANCH  20  21
HETATM   21  C18 UNL     1      20.418 -13.383  20.298  1.00  0.00     0.089 C 
HETATM   22  C19 UNL     1      20.533 -14.003  21.658  1.00  0.00     0.018 C 
ENDBRANCH  20  21
ENDBRANCH  19  20
ENDBRANCH  18  19
ENDBRANCH  13  18
ENDBRANCH  10  11
ENDBRANCH   9  10
ENDBRANCH   8   9
ENDBRANCH   7   8
ENDBRANCH   4   7
BRANCH   1  23
HETATM   23  C6  UNL     1      12.076 -13.368  22.270  1.00  0.00     0.046 A 
HETATM   24  C5  UNL     1      13.075 -12.346  22.552  1.00  0.00     0.064 A 
HETATM   25  C4  UNL     1      12.525 -11.365  23.258  1.00  0.00     0.080 A 
HETATM   26  C3  UNL     1      11.199 -11.703  23.452  1.00  0.00     0.134 A 
HETATM   27  N2  UNL     1      12.807 -10.184  23.836  1.00  0.00    -0.340 N 
HETATM   28  N1  UNL     1      10.676 -10.699  24.162  1.00  0.00    -0.327 N 
HETATM   29  N7  UNL     1      10.987 -12.972  22.806  1.00  0.00    -0.340 N 
HETATM   30  C2  UNL     1      11.634  -9.780  24.399  1.00  0.00     0.097 A 
ATOM     31  H1  UNL     1       9.707 -10.638  24.475  1.00  0.00     0.169 HD
HETATM   32  C1  UNL     1      11.482  -8.654  25.071  1.00  0.00     0.063 C 
ATOM     33  H7  UNL     1      10.102 -13.478  22.780  1.00  0.00     0.167 HD
ATOM     34  H2  UNL     1      13.702  -9.697  23.849  1.00  0.00     0.167 HD
ENDBRANCH   1  23
TORSDOF 10
ENDMDL
