MODEL 1
REMARK VINA RESULT: -7.061818923      0.000      0.000
REMARK  5 active torsions:
REMARK  status: ('A' for Active; 'I' for Inactive)
REMARK    1  A    between atoms: N1_2  and  C2_5 
REMARK    2  A    between atoms: C2_5  and  C3_6 
REMARK    3  A    between atoms: C3_6  and  C4_7 
REMARK    4  A    between atoms: C9_12  and  N2_13 
REMARK    5  A    between atoms: N2_13  and  N3_15 
ROOT
HETATM    1  C4  UNL     1      19.606   2.639   0.977  1.00  0.00    -0.036 C 
HETATM    2  C5  UNL     1      20.778   3.314   1.592  1.00  0.00     0.014 C 
HETATM    3  C6  UNL     1      21.000   4.724   1.151  1.00  0.00    -0.013 C 
HETATM    4  C7  UNL     1      21.865   4.866  -0.059  1.00  0.00     0.007 C 
HETATM    5  C8  UNL     1      21.631   3.907  -1.147  1.00  0.00     0.033 C 
HETATM    6  C9  UNL     1      20.220   3.447  -1.334  1.00  0.00     0.048 C 
HETATM    7  C10 UNL     1      19.205   4.537  -1.214  1.00  0.00     0.037 C 
HETATM    8  C11 UNL     1      18.721   4.767   0.181  1.00  0.00    -0.011 C 
HETATM    9  C12 UNL     1      19.713   5.525   1.018  1.00  0.00     0.009 C 
HETATM   10  C13 UNL     1      18.370   3.508   0.897  1.00  0.00     0.014 C 
HETATM   11  C14 UNL     1      19.979   2.268  -0.453  1.00  0.00     0.042 C 
ENDROOT
BRANCH   6  12
HETATM   12  N2  UNL     1      20.138   2.951  -2.720  1.00  0.00    -0.313 N 
ATOM     13  H2  UNL     1      20.912   3.068  -3.374  1.00  0.00     0.182 HD
BRANCH  12  14
HETATM   14  N3  UNL     1      19.088   2.388  -3.058  1.00  0.00    -0.253 N 
HETATM   15  N4  UNL     1      18.155   2.065  -3.787  1.00  0.00    -0.331 N 
ATOM     16  H42 UNL     1      18.429   2.593  -4.615  1.00  0.00     0.178 HD
ATOM     17  H41 UNL     1      17.291   1.601  -4.065  1.00  0.00     0.178 HD
ATOM     18  H3  UNL     1      18.856   1.878  -2.205  1.00  0.00     0.207 HD
ENDBRANCH  12  14
ENDBRANCH   6  12
BRANCH   1  19
HETATM   19  C3  UNL     1      19.219   1.375   1.661  1.00  0.00     0.037 C 
BRANCH  19  20
HETATM   20  C2  UNL     1      20.332   0.632   2.316  1.00  0.00     0.232 C 
BRANCH  20  21
HETATM   21  N1  UNL     1      19.852  -0.663   2.827  1.00  0.00    -0.079 N 
HETATM   22  C1  UNL     1      18.622  -0.430   3.570  1.00  0.00     0.266 C 
ATOM     23  H12 UNL     1      20.557  -1.155   3.377  1.00  0.00     0.276 HD
ATOM     24  H11 UNL     1      19.741  -1.360   2.091  1.00  0.00     0.276 HD
ENDBRANCH  20  21
ENDBRANCH  19  20
ENDBRANCH   1  19
TORSDOF 5
ENDMDL
MODEL 2
REMARK VINA RESULT: -6.794098866      2.192      3.610
REMARK  5 active torsions:
REMARK  status: ('A' for Active; 'I' for Inactive)
REMARK    1  A    between atoms: N1_2  and  C2_5 
REMARK    2  A    between atoms: C2_5  and  C3_6 
REMARK    3  A    between atoms: C3_6  and  C4_7 
REMARK    4  A    between atoms: C9_12  and  N2_13 
REMARK    5  A    between atoms: N2_13  and  N3_15 
ROOT
HETATM    1  C4  UNL     1      21.320   4.008   1.678  1.00  0.00    -0.036 C 
HETATM    2  C5  UNL     1      20.263   4.972   2.078  1.00  0.00     0.014 C 
HETATM    3  C6  UNL     1      18.864   4.466   1.953  1.00  0.00    -0.013 C 
HETATM    4  C7  UNL     1      18.234   4.709   0.619  1.00  0.00     0.007 C 
HETATM    5  C8  UNL     1      19.083   4.479  -0.558  1.00  0.00     0.033 C 
HETATM    6  C9  UNL     1      20.097   3.385  -0.441  1.00  0.00     0.048 C 
HETATM    7  C10 UNL     1      19.585   2.151   0.229  1.00  0.00     0.037 C 
HETATM    8  C11 UNL     1      19.732   2.159   1.715  1.00  0.00    -0.011 C 
HETATM    9  C12 UNL     1      18.703   3.019   2.394  1.00  0.00     0.009 C 
HETATM   10  C13 UNL     1      21.082   2.598   2.170  1.00  0.00     0.014 C 
HETATM   11  C14 UNL     1      21.343   3.948   0.155  1.00  0.00     0.042 C 
ENDROOT
BRANCH   6  12
HETATM   12  N2  UNL     1      20.436   3.000  -1.822  1.00  0.00    -0.313 N 
ATOM     13  H2  UNL     1      21.359   3.187  -2.216  1.00  0.00     0.182 HD
BRANCH  12  14
HETATM   14  N3  UNL     1      19.554   2.439  -2.486  1.00  0.00    -0.253 N 
HETATM   15  N4  UNL     1      18.795   2.241  -3.430  1.00  0.00    -0.331 N 
ATOM     16  H42 UNL     1      19.080   3.027  -4.013  1.00  0.00     0.178 HD
ATOM     17  H41 UNL     1      18.068   1.779  -3.976  1.00  0.00     0.178 HD
ATOM     18  H3  UNL     1      19.304   1.667  -1.867  1.00  0.00     0.207 HD
ENDBRANCH  12  14
ENDBRANCH   6  12
BRANCH   1  19
HETATM   19  C3  UNL     1      22.687   4.407   2.111  1.00  0.00     0.037 C 
BRANCH  19  20
HETATM   20  C2  UNL     1      23.555   3.299   2.600  1.00  0.00     0.232 C 
BRANCH  20  21
HETATM   21  N1  UNL     1      24.841   3.302   1.885  1.00  0.00    -0.079 N 
HETATM   22  C1  UNL     1      25.513   4.563   2.164  1.00  0.00     0.266 C 
ATOM     23  H12 UNL     1      24.737   3.124   0.886  1.00  0.00     0.276 HD
ATOM     24  H11 UNL     1      25.418   2.491   2.110  1.00  0.00     0.276 HD
ENDBRANCH  20  21
ENDBRANCH  19  20
ENDBRANCH   1  19
TORSDOF 5
ENDMDL
MODEL 3
REMARK VINA RESULT: -6.760102988      2.366      4.305
REMARK  5 active torsions:
REMARK  status: ('A' for Active; 'I' for Inactive)
REMARK    1  A    between atoms: N1_2  and  C2_5 
REMARK    2  A    between atoms: C2_5  and  C3_6 
REMARK    3  A    between atoms: C3_6  and  C4_7 
REMARK    4  A    between atoms: C9_12  and  N2_13 
REMARK    5  A    between atoms: N2_13  and  N3_15 
ROOT
HETATM    1  C4  UNL     1      21.538   4.187   0.695  1.00  0.00    -0.036 C 
HETATM    2  C5  UNL     1      21.892   4.099  -0.745  1.00  0.00     0.014 C 
HETATM    3  C6  UNL     1      20.734   4.153  -1.687  1.00  0.00    -0.013 C 
HETATM    4  C7  UNL     1      20.134   2.823  -2.007  1.00  0.00     0.007 C 
HETATM    5  C8  UNL     1      19.975   1.889  -0.885  1.00  0.00     0.033 C 
HETATM    6  C9  UNL     1      19.679   2.498   0.449  1.00  0.00     0.048 C 
HETATM    7  C10 UNL     1      18.684   3.612   0.400  1.00  0.00     0.037 C 
HETATM    8  C11 UNL     1      19.289   4.957   0.157  1.00  0.00    -0.011 C 
HETATM    9  C12 UNL     1      19.673   5.166  -1.282  1.00  0.00     0.009 C 
HETATM   10  C13 UNL     1      20.484   5.227   1.004  1.00  0.00     0.014 C 
HETATM   11  C14 UNL     1      20.968   2.839   1.118  1.00  0.00     0.042 C 
ENDROOT
BRANCH   6  12
HETATM   12  N2  UNL     1      19.065   1.427   1.255  1.00  0.00    -0.313 N 
ATOM     13  H2  UNL     1      18.053   1.302   1.291  1.00  0.00     0.182 HD
BRANCH  12  14
HETATM   14  N3  UNL     1      19.830   0.686   1.887  1.00  0.00    -0.253 N 
HETATM   15  N4  UNL     1      20.205  -0.324   2.474  1.00  0.00    -0.331 N 
ATOM     16  H42 UNL     1      19.357  -0.880   2.364  1.00  0.00     0.178 HD
ATOM     17  H41 UNL     1      20.835  -0.935   2.994  1.00  0.00     0.178 HD
ATOM     18  H3  UNL     1      20.655   1.280   1.970  1.00  0.00     0.207 HD
ENDBRANCH  12  14
ENDBRANCH   6  12
BRANCH   1  19
HETATM   19  C3  UNL     1      22.704   4.456   1.581  1.00  0.00     0.037 C 
BRANCH  19  20
HETATM   20  C2  UNL     1      24.038   4.405   0.921  1.00  0.00     0.232 C 
BRANCH  20  21
HETATM   21  N1  UNL     1      25.006   3.699   1.776  1.00  0.00    -0.079 N 
HETATM   22  C1  UNL     1      25.530   4.649   2.748  1.00  0.00     0.266 C 
ATOM     23  H12 UNL     1      25.742   3.238   1.241  1.00  0.00     0.276 HD
ATOM     24  H11 UNL     1      24.612   2.866   2.213  1.00  0.00     0.276 HD
ENDBRANCH  20  21
ENDBRANCH  19  20
ENDBRANCH   1  19
TORSDOF 5
ENDMDL
MODEL 4
REMARK VINA RESULT: -6.726683625      2.506      4.450
REMARK  5 active torsions:
REMARK  status: ('A' for Active; 'I' for Inactive)
REMARK    1  A    between atoms: N1_2  and  C2_5 
REMARK    2  A    between atoms: C2_5  and  C3_6 
REMARK    3  A    between atoms: C3_6  and  C4_7 
REMARK    4  A    between atoms: C9_12  and  N2_13 
REMARK    5  A    between atoms: N2_13  and  N3_15 
ROOT
HETATM    1  C4  UNL     1      20.364   3.336   0.176  1.00  0.00    -0.036 C 
HETATM    2  C5  UNL     1      21.429   3.776   1.113  1.00  0.00     0.014 C 
HETATM    3  C6  UNL     1      21.193   3.433   2.547  1.00  0.00    -0.013 C 
HETATM    4  C7  UNL     1      20.435   4.467   3.314  1.00  0.00     0.007 C 
HETATM    5  C8  UNL     1      19.290   5.083   2.629  1.00  0.00     0.033 C 
HETATM    6  C9  UNL     1      18.534   4.206   1.682  1.00  0.00     0.048 C 
HETATM    7  C10 UNL     1      18.304   2.819   2.189  1.00  0.00     0.037 C 
HETATM    8  C11 UNL     1      19.404   1.862   1.864  1.00  0.00    -0.011 C 
HETATM    9  C12 UNL     1      20.608   2.043   2.747  1.00  0.00     0.009 C 
HETATM   10  C13 UNL     1      19.851   1.939   0.445  1.00  0.00     0.014 C 
HETATM   11  C14 UNL     1      19.180   4.282   0.339  1.00  0.00     0.042 C 
ENDROOT
BRANCH   6  12
HETATM   12  N2  UNL     1      17.203   4.822   1.536  1.00  0.00    -0.313 N 
ATOM     13  H2  UNL     1      17.009   5.760   1.890  1.00  0.00     0.182 HD
BRANCH  12  14
HETATM   14  N3  UNL     1      16.330   4.154   0.967  1.00  0.00    -0.253 N 
HETATM   15  N4  UNL     1      15.208   3.851   0.573  1.00  0.00    -0.331 N 
ATOM     16  H42 UNL     1      14.697   4.644   0.961  1.00  0.00     0.178 HD
ATOM     17  H41 UNL     1      14.488   3.300   0.105  1.00  0.00     0.178 HD
ATOM     18  H3  UNL     1      16.883   3.380   0.599  1.00  0.00     0.207 HD
ENDBRANCH  12  14
ENDBRANCH   6  12
BRANCH   1  19
HETATM   19  C3  UNL     1      20.765   3.396  -1.256  1.00  0.00     0.037 C 
BRANCH  19  20
HETATM   20  C2  UNL     1      20.070   2.436  -2.159  1.00  0.00     0.232 C 
BRANCH  20  21
HETATM   21  N1  UNL     1      19.265   3.161  -3.155  1.00  0.00    -0.079 N 
HETATM   22  C1  UNL     1      19.800   4.510  -3.277  1.00  0.00     0.266 C 
ATOM     23  H12 UNL     1      18.268   3.151  -2.939  1.00  0.00     0.276 HD
ATOM     24  H11 UNL     1      19.216   2.675  -4.051  1.00  0.00     0.276 HD
ENDBRANCH  20  21
ENDBRANCH  19  20
ENDBRANCH   1  19
TORSDOF 5
ENDMDL
MODEL 5
REMARK VINA RESULT: -6.683475952      1.149      1.399
REMARK  5 active torsions:
REMARK  status: ('A' for Active; 'I' for Inactive)
REMARK    1  A    between atoms: N1_2  and  C2_5 
REMARK    2  A    between atoms: C2_5  and  C3_6 
REMARK    3  A    between atoms: C3_6  and  C4_7 
REMARK    4  A    between atoms: C9_12  and  N2_13 
REMARK    5  A    between atoms: N2_13  and  N3_15 
ROOT
HETATM    1  C4  UNL     1      19.667   2.369   1.997  1.00  0.00    -0.036 C 
HETATM    2  C5  UNL     1      21.135   2.529   2.161  1.00  0.00     0.014 C 
HETATM    3  C6  UNL     1      21.637   3.930   2.034  1.00  0.00    -0.013 C 
HETATM    4  C7  UNL     1      21.999   4.334   0.641  1.00  0.00     0.007 C 
HETATM    5  C8  UNL     1      21.081   3.906  -0.424  1.00  0.00     0.033 C 
HETATM    6  C9  UNL     1      19.632   3.831  -0.061  1.00  0.00     0.048 C 
HETATM    7  C10 UNL     1      19.154   4.976   0.772  1.00  0.00     0.037 C 
HETATM    8  C11 UNL     1      19.316   4.768   2.243  1.00  0.00    -0.011 C 
HETATM    9  C12 UNL     1      20.735   4.958   2.701  1.00  0.00     0.009 C 
HETATM   10  C13 UNL     1      18.852   3.429   2.702  1.00  0.00     0.014 C 
HETATM   11  C14 UNL     1      19.350   2.482   0.510  1.00  0.00     0.042 C 
ENDROOT
BRANCH   6  12
HETATM   12  N2  UNL     1      18.893   3.904  -1.334  1.00  0.00    -0.313 N 
ATOM     13  H2  UNL     1      18.086   4.519  -1.446  1.00  0.00     0.182 HD
BRANCH  12  14
HETATM   14  N3  UNL     1      19.292   3.188  -2.262  1.00  0.00    -0.253 N 
HETATM   15  N4  UNL     1      19.232   2.355  -3.161  1.00  0.00    -0.331 N 
ATOM     16  H42 UNL     1      18.242   2.123  -3.078  1.00  0.00     0.178 HD
ATOM     17  H41 UNL     1      19.560   1.765  -3.925  1.00  0.00     0.178 HD
ATOM     18  H3  UNL     1      20.276   3.454  -2.306  1.00  0.00     0.207 HD
ENDBRANCH  12  14
ENDBRANCH   6  12
BRANCH   1  19
HETATM   19  C3  UNL     1      19.158   1.044   2.443  1.00  0.00     0.037 C 
BRANCH  19  20
HETATM   20  C2  UNL     1      20.200   0.051   2.828  1.00  0.00     0.232 C 
BRANCH  20  21
HETATM   21  N1  UNL     1      19.578  -1.241   3.161  1.00  0.00    -0.079 N 
HETATM   22  C1  UNL     1      18.209  -0.989   3.589  1.00  0.00     0.266 C 
ATOM     23  H12 UNL     1      20.114  -1.771   3.849  1.00  0.00     0.276 HD
ATOM     24  H11 UNL     1      19.634  -1.914   2.397  1.00  0.00     0.276 HD
ENDBRANCH  20  21
ENDBRANCH  19  20
ENDBRANCH   1  19
TORSDOF 5
ENDMDL
