MODEL 1
REMARK VINA RESULT: -6.471819318      0.000      0.000
REMARK  7 active torsions:
REMARK  status: ('A' for Active; 'I' for Inactive)
REMARK    1  A    between atoms: C2_2  and  C3_3 
REMARK    2  A    between atoms: C3_3  and  N1_4 
REMARK    3  A    between atoms: N1_4  and  C4_6 
REMARK    4  A    between atoms: C4_6  and  O1_10 
REMARK    5  A    between atoms: O1_10  and  C6_11 
REMARK    6  A    between atoms: C6_11  and  C9_14 
REMARK    7  A    between atoms: C9_14  and  C10_15 
ROOT
HETATM    1  O1  UNL     1      18.990   5.276  -0.535  1.00  0.00    -0.308 OA
ENDROOT
BRANCH   1   2
HETATM    2  C4  UNL     1      18.304   4.843   0.540  1.00  0.00     0.215 C 
HETATM    3  N2  UNL     1      17.159   4.341   0.371  1.00  0.00    -0.361 N 
HETATM    4  C5  UNL     1      16.341   3.844   1.475  1.00  0.00     0.150 C 
ATOM      5  H2  UNL     1      16.788   4.279  -0.578  1.00  0.00     0.162 HD
BRANCH   2   6
HETATM    6  N1  UNL     1      18.847   4.943   1.838  1.00  0.00    -0.353 N 
ATOM      7  H1  UNL     1      19.113   4.076   2.304  1.00  0.00     0.163 HD
BRANCH   6   8
HETATM    8  C3  UNL     1      19.054   6.174   2.558  1.00  0.00     0.149 C 
BRANCH   8   9
HETATM    9  C2  UNL     1      18.237   6.307   3.783  1.00  0.00    -0.018 C 
HETATM   10  C1  UNL     1      18.091   5.296   4.622  1.00  0.00     0.008 C 
ENDBRANCH   8   9
ENDBRANCH   6   8
ENDBRANCH   2   6
ENDBRANCH   1   2
BRANCH   1  11
HETATM   11  C6  UNL     1      20.111   4.584  -1.122  1.00  0.00     0.081 C 
HETATM   12  C7  UNL     1      19.938   4.985  -2.606  1.00  0.00     0.051 C 
HETATM   13  C8  UNL     1      19.931   3.112  -1.117  1.00  0.00     0.051 C 
BRANCH  11  14
HETATM   14  C9  UNL     1      21.311   5.155  -0.520  1.00  0.00     0.013 C 
BRANCH  14  15
HETATM   15  C10 UNL     1      22.302   4.391   0.218  1.00  0.00    -0.081 C 
HETATM   16  C11 UNL     1      22.201   4.429   1.729  1.00  0.00     0.034 C 
HETATM   17  C12 UNL     1      23.182   3.339   2.207  1.00  0.00     0.004 C 
HETATM   18  C13 UNL     1      24.605   3.796   2.048  1.00  0.00     0.001 C 
HETATM   19  C14 UNL     1      24.619   4.915   1.038  1.00  0.00     0.004 C 
HETATM   20  C15 UNL     1      23.739   4.493  -0.150  1.00  0.00     0.034 C 
ENDBRANCH  14  15
ENDBRANCH  11  14
ENDBRANCH   1  11
TORSDOF 7
ENDMDL
MODEL 2
REMARK VINA RESULT: -6.362394777      1.504      2.241
REMARK  7 active torsions:
REMARK  status: ('A' for Active; 'I' for Inactive)
REMARK    1  A    between atoms: C2_2  and  C3_3 
REMARK    2  A    between atoms: C3_3  and  N1_4 
REMARK    3  A    between atoms: N1_4  and  C4_6 
REMARK    4  A    between atoms: C4_6  and  O1_10 
REMARK    5  A    between atoms: O1_10  and  C6_11 
REMARK    6  A    between atoms: C6_11  and  C9_14 
REMARK    7  A    between atoms: C9_14  and  C10_15 
ROOT
HETATM    1  O1  UNL     1      18.619   4.417  -0.825  1.00  0.00    -0.308 OA
ENDROOT
BRANCH   1   2
HETATM    2  C4  UNL     1      18.201   4.427   0.456  1.00  0.00     0.215 C 
HETATM    3  N2  UNL     1      18.000   5.536   1.024  1.00  0.00    -0.361 N 
HETATM    4  C5  UNL     1      17.547   5.647   2.408  1.00  0.00     0.150 C 
ATOM      5  H2  UNL     1      18.162   6.392   0.493  1.00  0.00     0.162 HD
BRANCH   2   6
HETATM    6  N1  UNL     1      17.987   3.224   1.161  1.00  0.00    -0.353 N 
ATOM      7  H1  UNL     1      17.102   2.740   1.008  1.00  0.00     0.163 HD
BRANCH   6   8
HETATM    8  C3  UNL     1      18.921   2.625   2.081  1.00  0.00     0.149 C 
BRANCH   8   9
HETATM    9  C2  UNL     1      19.615   1.432   1.551  1.00  0.00    -0.018 C 
HETATM   10  C1  UNL     1      20.554   0.819   2.251  1.00  0.00     0.008 C 
ENDBRANCH   8   9
ENDBRANCH   6   8
ENDBRANCH   2   6
ENDBRANCH   1   2
BRANCH   1  11
HETATM   11  C6  UNL     1      19.989   4.229  -1.234  1.00  0.00     0.081 C 
HETATM   12  C7  UNL     1      19.993   5.030  -2.558  1.00  0.00     0.051 C 
HETATM   13  C8  UNL     1      20.268   2.834  -1.649  1.00  0.00     0.051 C 
BRANCH  11  14
HETATM   14  C9  UNL     1      20.817   4.844  -0.202  1.00  0.00     0.013 C 
BRANCH  14  15
HETATM   15  C10 UNL     1      21.975   4.210   0.405  1.00  0.00    -0.081 C 
HETATM   16  C11 UNL     1      22.132   4.376   1.903  1.00  0.00     0.034 C 
HETATM   17  C12 UNL     1      23.260   3.394   2.281  1.00  0.00     0.004 C 
HETATM   18  C13 UNL     1      24.595   3.922   1.838  1.00  0.00     0.001 C 
HETATM   19  C14 UNL     1      24.352   4.945   0.758  1.00  0.00     0.004 C 
HETATM   20  C15 UNL     1      23.315   4.366  -0.219  1.00  0.00     0.034 C 
ENDBRANCH  14  15
ENDBRANCH  11  14
ENDBRANCH   1  11
TORSDOF 7
ENDMDL
MODEL 3
REMARK VINA RESULT: -6.116152167      2.912      4.728
REMARK  7 active torsions:
REMARK  status: ('A' for Active; 'I' for Inactive)
REMARK    1  A    between atoms: C2_2  and  C3_3 
REMARK    2  A    between atoms: C3_3  and  N1_4 
REMARK    3  A    between atoms: N1_4  and  C4_6 
REMARK    4  A    between atoms: C4_6  and  O1_10 
REMARK    5  A    between atoms: O1_10  and  C6_11 
REMARK    6  A    between atoms: C6_11  and  C9_14 
REMARK    7  A    between atoms: C9_14  and  C10_15 
ROOT
HETATM    1  O1  UNL     1      18.379   2.172   1.568  1.00  0.00    -0.308 OA
ENDROOT
BRANCH   1   2
HETATM    2  C4  UNL     1      17.293   2.600   2.240  1.00  0.00     0.215 C 
HETATM    3  N2  UNL     1      16.985   3.822   2.189  1.00  0.00    -0.361 N 
HETATM    4  C5  UNL     1      15.826   4.377   2.884  1.00  0.00     0.150 C 
ATOM      5  H2  UNL     1      17.570   4.450   1.637  1.00  0.00     0.162 HD
BRANCH   2   6
HETATM    6  N1  UNL     1      16.505   1.704   2.994  1.00  0.00    -0.353 N 
ATOM      7  H1  UNL     1      16.019   2.077   3.810  1.00  0.00     0.163 HD
BRANCH   6   8
HETATM    8  C3  UNL     1      16.332   0.304   2.702  1.00  0.00     0.149 C 
BRANCH   8   9
HETATM    9  C2  UNL     1      16.730  -0.600   3.803  1.00  0.00    -0.018 C 
HETATM   10  C1  UNL     1      17.741  -0.303   4.601  1.00  0.00     0.008 C 
ENDBRANCH   8   9
ENDBRANCH   6   8
ENDBRANCH   2   6
ENDBRANCH   1   2
BRANCH   1  11
HETATM   11  C6  UNL     1      19.739   2.361   2.010  1.00  0.00     0.081 C 
HETATM   12  C7  UNL     1      20.284   0.922   1.847  1.00  0.00     0.051 C 
HETATM   13  C8  UNL     1      19.828   2.624   3.466  1.00  0.00     0.051 C 
BRANCH  11  14
HETATM   14  C9  UNL     1      20.349   3.303   1.078  1.00  0.00     0.013 C 
BRANCH  14  15
HETATM   15  C10 UNL     1      19.885   3.533  -0.279  1.00  0.00    -0.081 C 
HETATM   16  C11 UNL     1      20.734   2.957  -1.393  1.00  0.00     0.034 C 
HETATM   17  C12 UNL     1      19.869   3.120  -2.659  1.00  0.00     0.004 C 
HETATM   18  C13 UNL     1      19.834   4.556  -3.099  1.00  0.00     0.001 C 
HETATM   19  C14 UNL     1      20.215   5.410  -1.917  1.00  0.00     0.004 C 
HETATM   20  C15 UNL     1      19.446   4.892  -0.690  1.00  0.00     0.034 C 
ENDBRANCH  14  15
ENDBRANCH  11  14
ENDBRANCH   1  11
TORSDOF 7
ENDMDL
MODEL 4
REMARK VINA RESULT: -6.086651737      2.662      5.410
REMARK  7 active torsions:
REMARK  status: ('A' for Active; 'I' for Inactive)
REMARK    1  A    between atoms: C2_2  and  C3_3 
REMARK    2  A    between atoms: C3_3  and  N1_4 
REMARK    3  A    between atoms: N1_4  and  C4_6 
REMARK    4  A    between atoms: C4_6  and  O1_10 
REMARK    5  A    between atoms: O1_10  and  C6_11 
REMARK    6  A    between atoms: C6_11  and  C9_14 
REMARK    7  A    between atoms: C9_14  and  C10_15 
ROOT
HETATM    1  O1  UNL     1      21.011   3.470   2.042  1.00  0.00    -0.308 OA
ENDROOT
BRANCH   1   2
HETATM    2  C4  UNL     1      22.066   3.614   2.867  1.00  0.00     0.215 C 
HETATM    3  N2  UNL     1      21.858   3.901   4.078  1.00  0.00    -0.361 N 
HETATM    4  C5  UNL     1      22.937   4.077   5.047  1.00  0.00     0.150 C 
ATOM      5  H2  UNL     1      20.894   4.016   4.394  1.00  0.00     0.162 HD
BRANCH   2   6
HETATM    6  N1  UNL     1      23.386   3.448   2.398  1.00  0.00    -0.353 N 
ATOM      7  H1  UNL     1      23.804   2.522   2.487  1.00  0.00     0.163 HD
BRANCH   6   8
HETATM    8  C3  UNL     1      24.190   4.485   1.802  1.00  0.00     0.149 C 
BRANCH   8   9
HETATM    9  C2  UNL     1      24.286   4.409   0.328  1.00  0.00    -0.018 C 
HETATM   10  C1  UNL     1      23.315   4.862  -0.445  1.00  0.00     0.008 C 
ENDBRANCH   8   9
ENDBRANCH   6   8
ENDBRANCH   2   6
ENDBRANCH   1   2
BRANCH   1  11
HETATM   11  C6  UNL     1      20.198   2.281   1.956  1.00  0.00     0.081 C 
HETATM   12  C7  UNL     1      19.006   2.698   2.850  1.00  0.00     0.051 C 
HETATM   13  C8  UNL     1      20.804   1.130   2.666  1.00  0.00     0.051 C 
BRANCH  11  14
HETATM   14  C9  UNL     1      19.826   2.135   0.553  1.00  0.00     0.013 C 
BRANCH  14  15
HETATM   15  C10 UNL     1      20.143   3.101  -0.485  1.00  0.00    -0.081 C 
HETATM   16  C11 UNL     1      19.154   4.231  -0.686  1.00  0.00     0.034 C 
HETATM   17  C12 UNL     1      19.878   5.210  -1.632  1.00  0.00     0.004 C 
HETATM   18  C13 UNL     1      19.915   4.668  -3.033  1.00  0.00     0.001 C 
HETATM   19  C14 UNL     1      19.699   3.179  -2.957  1.00  0.00     0.004 C 
HETATM   20  C15 UNL     1      20.581   2.629  -1.825  1.00  0.00     0.034 C 
ENDBRANCH  14  15
ENDBRANCH  11  14
ENDBRANCH   1  11
TORSDOF 7
ENDMDL
MODEL 5
REMARK VINA RESULT: -6.082112350      3.086      5.007
REMARK  7 active torsions:
REMARK  status: ('A' for Active; 'I' for Inactive)
REMARK    1  A    between atoms: C2_2  and  C3_3 
REMARK    2  A    between atoms: C3_3  and  N1_4 
REMARK    3  A    between atoms: N1_4  and  C4_6 
REMARK    4  A    between atoms: C4_6  and  O1_10 
REMARK    5  A    between atoms: O1_10  and  C6_11 
REMARK    6  A    between atoms: C6_11  and  C9_14 
REMARK    7  A    between atoms: C9_14  and  C10_15 
ROOT
HETATM    1  O1  UNL     1      18.998   2.141   2.864  1.00  0.00    -0.308 OA
ENDROOT
BRANCH   1   2
HETATM    2  C4  UNL     1      17.702   2.213   2.503  1.00  0.00     0.215 C 
HETATM    3  N2  UNL     1      17.217   3.334   2.190  1.00  0.00    -0.361 N 
HETATM    4  C5  UNL     1      15.823   3.510   1.785  1.00  0.00     0.150 C 
ATOM      5  H2  UNL     1      17.824   4.154   2.220  1.00  0.00     0.162 HD
BRANCH   2   6
HETATM    6  N1  UNL     1      16.890   1.059   2.471  1.00  0.00    -0.353 N 
ATOM      7  H1  UNL     1      16.569   0.735   1.559  1.00  0.00     0.163 HD
BRANCH   6   8
HETATM    8  C3  UNL     1      16.479   0.303   3.627  1.00  0.00     0.149 C 
BRANCH   8   9
HETATM    9  C2  UNL     1      17.305  -0.893   3.896  1.00  0.00    -0.018 C 
HETATM   10  C1  UNL     1      17.259  -1.951   3.104  1.00  0.00     0.008 C 
ENDBRANCH   8   9
ENDBRANCH   6   8
ENDBRANCH   2   6
ENDBRANCH   1   2
BRANCH   1  11
HETATM   11  C6  UNL     1      20.091   1.945   1.944  1.00  0.00     0.081 C 
HETATM   12  C7  UNL     1      20.494   0.495   2.300  1.00  0.00     0.051 C 
HETATM   13  C8  UNL     1      21.281   2.754   2.300  1.00  0.00     0.051 C 
BRANCH  11  14
HETATM   14  C9  UNL     1      19.529   2.060   0.602  1.00  0.00     0.013 C 
BRANCH  14  15
HETATM   15  C10 UNL     1      20.020   2.972  -0.417  1.00  0.00    -0.081 C 
HETATM   16  C11 UNL     1      19.224   4.243  -0.632  1.00  0.00     0.034 C 
HETATM   17  C12 UNL     1      20.116   5.104  -1.549  1.00  0.00     0.004 C 
HETATM   18  C13 UNL     1      20.106   4.572  -2.954  1.00  0.00     0.001 C 
HETATM   19  C14 UNL     1      19.659   3.133  -2.899  1.00  0.00     0.004 C 
HETATM   20  C15 UNL     1      20.415   2.446  -1.750  1.00  0.00     0.034 C 
ENDBRANCH  14  15
ENDBRANCH  11  14
ENDBRANCH   1  11
TORSDOF 7
ENDMDL
