MODEL 1
REMARK VINA RESULT: -9.515709394      0.000      0.000
REMARK  13 active torsions:
REMARK  status: ('A' for Active; 'I' for Inactive)
REMARK    1  A    between atoms: C3_3  and  S1_4 
REMARK    2  A    between atoms: S1_4  and  C4_5 
REMARK    3  A    between atoms: C5_10  and  N3_11 
REMARK    4  A    between atoms: N3_11  and  C6_13 
REMARK    5  A    between atoms: C7_16  and  N5_17 
REMARK    6  A    between atoms: C8_22  and  N7_23 
REMARK    7  A    between atoms: C10_25  and  C11_26 
REMARK    8  A    between atoms: C11_26  and  N8_27 
REMARK       I    between atoms: N8_27  and  C12_29 
REMARK    9  A    between atoms: C12_29  and  C13_31 
REMARK   10  A    between atoms: C13_31  and  C14_32 
REMARK   11  A    between atoms: C13_31  and  N11_43 
REMARK   12  A    between atoms: C14_32  and  N9_33 
REMARK   13  A    between atoms: N12_47  and  C21_49 
ROOT
HETATM    1  C1  UNL     1      25.655 -46.965 -26.101  1.00  0.00     0.013 C 
HETATM    2  C2  UNL     1      24.943 -46.989 -27.073  1.00  0.00    -0.107 C 
HETATM    3  C3  UNL     1      24.092 -47.026 -28.266  1.00  0.00     0.175 C 
ENDROOT
BRANCH   3   4
HETATM    4  S1  UNL     1      23.356 -45.417 -28.569  1.00  0.00    -0.080 SA
BRANCH   4   5
HETATM    5  C4  UNL     1      24.663 -44.181 -28.474  1.00  0.00     0.175 A 
HETATM    6  N1  UNL     1      25.710 -44.050 -29.308  1.00  0.00    -0.265 N 
HETATM    7  N2  UNL     1      26.461 -43.036 -28.933  1.00  0.00    -0.129 N 
ATOM      8  H1  UNL     1      25.894 -44.648 -30.113  1.00  0.00     0.189 HD
HETATM    9  C5  UNL     1      25.901 -42.483 -27.827  1.00  0.00     0.713 A 
ATOM     10  H2  UNL     1      27.315 -42.721 -29.393  1.00  0.00     0.205 HD
HETATM   11  N17 UNL     1      24.810 -43.195 -27.566  1.00  0.00    -0.167 N 
ATOM     12  H17 UNL     1      24.173 -43.021 -26.789  1.00  0.00     0.186 HD
BRANCH   9  13
HETATM   13  N3  UNL     1      26.420 -41.377 -27.139  1.00  0.00    -0.020 N 
ATOM     14  H3  UNL     1      25.809 -40.580 -26.959  1.00  0.00     0.203 HD
BRANCH  13  15
HETATM   15  C6  UNL     1      27.641 -41.328 -26.724  1.00  0.00     0.714 C 
HETATM   16  N4  UNL     1      28.484 -40.471 -27.354  1.00  0.00    -0.022 N 
HETATM   17  C7  UNL     1      29.775 -40.199 -27.095  1.00  0.00     0.692 C 
ATOM     18  H4  UNL     1      28.079 -39.958 -28.138  1.00  0.00     0.203 HD
HETATM   19  N6  UNL     1      30.675 -40.948 -26.392  1.00  0.00    -0.169 N 
HETATM   20  C8  UNL     1      30.451 -42.160 -25.804  1.00  0.00     0.211 C 
ATOM     21  H6  UNL     1      31.613 -40.561 -26.296  1.00  0.00     0.186 HD
HETATM   22  C23 UNL     1      29.225 -42.577 -25.334  1.00  0.00     0.306 C 
HETATM   23  O7  UNL     1      29.294 -43.470 -24.473  1.00  0.00    -0.263 OA
HETATM   24  N16 UNL     1      27.988 -42.128 -25.703  1.00  0.00    -0.152 N 
ATOM     25  H16 UNL     1      27.216 -42.447 -25.117  1.00  0.00     0.187 HD
BRANCH  17  26
HETATM   26  N5  UNL     1      30.279 -39.109 -27.543  1.00  0.00    -0.234 N 
ATOM     27  H52 UNL     1      31.129 -39.261 -28.085  1.00  0.00     0.174 HD
ATOM     28  H51 UNL     1      29.811 -38.228 -27.332  1.00  0.00     0.174 HD
ENDBRANCH  17  26
BRANCH  20  29
HETATM   29  N7  UNL     1      31.570 -43.027 -25.681  1.00  0.00    -0.244 N 
HETATM   30  C9  UNL     1      32.672 -42.856 -24.933  1.00  0.00     0.131 A 
HETATM   31  C10 UNL     1      33.450 -43.972 -25.164  1.00  0.00     0.023 A 
HETATM   32  C20 UNL     1      32.808 -44.796 -26.044  1.00  0.00     0.145 A 
HETATM   33  N12 UNL     1      33.128 -45.907 -26.541  1.00  0.00    -0.173 N 
HETATM   34  N15 UNL     1      31.637 -44.168 -26.342  1.00  0.00    -0.277 N 
ATOM     35  H12 UNL     1      32.427 -46.285 -27.179  1.00  0.00     0.186 HD
ATOM     36  H15 UNL     1      30.923 -44.524 -26.977  1.00  0.00     0.189 HD
BRANCH  31  37
HETATM   37  C11 UNL     1      34.767 -44.225 -24.550  1.00  0.00     0.166 C 
BRANCH  37  38
HETATM   38  N8  UNL     1      34.673 -44.665 -23.157  1.00  0.00    -0.355 N 
HETATM   39  C12 UNL     1      34.931 -43.746 -22.118  1.00  0.00     0.248 C 
HETATM   40  O1  UNL     1      35.230 -42.555 -22.457  1.00  0.00    -0.271 OA
ATOM     41  H8  UNL     1      34.423 -45.629 -22.939  1.00  0.00     0.162 HD
BRANCH  39  42
HETATM   42  C13 UNL     1      34.855 -44.138 -20.706  1.00  0.00     0.265 C 
BRANCH  42  43
HETATM   43  C14 UNL     1      34.273 -43.135 -19.774  1.00  0.00     0.174 C 
BRANCH  43  44
HETATM   44  N9  UNL     1      32.865 -43.060 -19.657  1.00  0.00    -0.306 N 
HETATM   45  C15 UNL     1      32.092 -42.537 -20.643  1.00  0.00     0.108 A 
HETATM   46  C16 UNL     1      30.730 -42.419 -20.559  1.00  0.00     0.022 A 
HETATM   47  C17 UNL     1      29.891 -41.848 -21.644  1.00  0.00     0.056 C 
HETATM   48  C18 UNL     1      30.135 -42.863 -19.399  1.00  0.00     0.256 A 
HETATM   49  O2  UNL     1      28.882 -42.781 -19.262  1.00  0.00    -0.267 OA
HETATM   50  N10 UNL     1      30.926 -43.375 -18.442  1.00  0.00    -0.275 N 
HETATM   51  C19 UNL     1      32.258 -43.490 -18.525  1.00  0.00     0.329 A 
ATOM     52  H10 UNL     1      30.477 -43.701 -17.586  1.00  0.00     0.173 HD
HETATM   53  O3  UNL     1      32.923 -43.988 -17.569  1.00  0.00    -0.246 OA
ENDBRANCH  43  44
ENDBRANCH  42  43
BRANCH  42  54
HETATM   54  N11 UNL     1      36.223 -44.424 -20.240  1.00  0.00    -0.140 N 
HETATM   55  O4  UNL     1      37.060 -44.980 -20.976  1.00  0.00    -0.536 OA
HETATM   56  O5  UNL     1      36.640 -44.084 -18.960  1.00  0.00    -0.536 OA
ENDBRANCH  42  54
ENDBRANCH  39  42
ENDBRANCH  37  38
ENDBRANCH  31  37
BRANCH  33  57
HETATM   57  C21 UNL     1      34.240 -46.717 -26.396  1.00  0.00     0.705 A 
HETATM   58  N13 UNL     1      35.381 -46.726 -27.149  1.00  0.00    -0.178 N 
HETATM   59  C22 UNL     1      36.212 -47.675 -26.691  1.00  0.00     0.276 A 
ATOM     60  H13 UNL     1      35.571 -46.106 -27.936  1.00  0.00     0.185 HD
HETATM   61  O6  UNL     1      35.610 -48.253 -25.669  1.00  0.00    -0.218 OA
HETATM   62  N14 UNL     1      34.457 -47.702 -25.489  1.00  0.00    -0.090 N 
ATOM     63  H14 UNL     1      33.795 -47.971 -24.760  1.00  0.00     0.213 HD
ENDBRANCH  33  57
ENDBRANCH  20  29
ENDBRANCH  13  15
ENDBRANCH   9  13
ENDBRANCH   4   5
ENDBRANCH   3   4
TORSDOF 13
ENDMDL
MODEL 2
REMARK VINA RESULT: -9.505172332      1.604      2.161
REMARK  13 active torsions:
REMARK  status: ('A' for Active; 'I' for Inactive)
REMARK    1  A    between atoms: C3_3  and  S1_4 
REMARK    2  A    between atoms: S1_4  and  C4_5 
REMARK    3  A    between atoms: C5_10  and  N3_11 
REMARK    4  A    between atoms: N3_11  and  C6_13 
REMARK    5  A    between atoms: C7_16  and  N5_17 
REMARK    6  A    between atoms: C8_22  and  N7_23 
REMARK    7  A    between atoms: C10_25  and  C11_26 
REMARK    8  A    between atoms: C11_26  and  N8_27 
REMARK       I    between atoms: N8_27  and  C12_29 
REMARK    9  A    between atoms: C12_29  and  C13_31 
REMARK   10  A    between atoms: C13_31  and  C14_32 
REMARK   11  A    between atoms: C13_31  and  N11_43 
REMARK   12  A    between atoms: C14_32  and  N9_33 
REMARK   13  A    between atoms: N12_47  and  C21_49 
ROOT
HETATM    1  C1  UNL     1      25.039 -47.168 -26.839  1.00  0.00     0.013 C 
HETATM    2  C2  UNL     1      24.468 -47.126 -27.899  1.00  0.00    -0.107 C 
HETATM    3  C3  UNL     1      23.782 -47.092 -29.194  1.00  0.00     0.175 C 
ENDROOT
BRANCH   3   4
HETATM    4  S1  UNL     1      24.080 -45.531 -30.028  1.00  0.00    -0.080 SA
BRANCH   4   5
HETATM    5  C4  UNL     1      24.418 -44.285 -28.771  1.00  0.00     0.175 A 
HETATM    6  N1  UNL     1      23.578 -43.861 -27.811  1.00  0.00    -0.265 N 
HETATM    7  N2  UNL     1      24.164 -42.943 -27.072  1.00  0.00    -0.129 N 
ATOM      8  H1  UNL     1      22.625 -44.201 -27.676  1.00  0.00     0.189 HD
HETATM    9  C5  UNL     1      25.420 -42.755 -27.551  1.00  0.00     0.713 A 
ATOM     10  H2  UNL     1      23.747 -42.458 -26.277  1.00  0.00     0.205 HD
HETATM   11  N17 UNL     1      25.552 -43.581 -28.584  1.00  0.00    -0.167 N 
ATOM     12  H17 UNL     1      26.393 -43.669 -29.154  1.00  0.00     0.186 HD
BRANCH   9  13
HETATM   13  N3  UNL     1      26.349 -41.850 -27.018  1.00  0.00    -0.020 N 
ATOM     14  H3  UNL     1      26.331 -40.883 -27.340  1.00  0.00     0.203 HD
BRANCH  13  15
HETATM   15  C6  UNL     1      27.225 -42.194 -26.136  1.00  0.00     0.714 C 
HETATM   16  N4  UNL     1      27.735 -41.217 -25.344  1.00  0.00    -0.022 N 
HETATM   17  C7  UNL     1      28.617 -41.311 -24.333  1.00  0.00     0.692 C 
ATOM     18  H4  UNL     1      27.401 -40.274 -25.543  1.00  0.00     0.203 HD
HETATM   19  N6  UNL     1      29.498 -42.320 -24.068  1.00  0.00    -0.169 N 
HETATM   20  C8  UNL     1      29.681 -43.461 -24.795  1.00  0.00     0.211 C 
ATOM     21  H6  UNL     1      30.082 -42.209 -23.239  1.00  0.00     0.186 HD
HETATM   22  C23 UNL     1      28.699 -44.062 -25.552  1.00  0.00     0.306 C 
HETATM   23  O7  UNL     1      28.901 -45.267 -25.771  1.00  0.00    -0.263 OA
HETATM   24  N16 UNL     1      27.570 -43.490 -26.067  1.00  0.00    -0.152 N 
ATOM     25  H16 UNL     1      26.890 -44.143 -26.455  1.00  0.00     0.187 HD
BRANCH  17  26
HETATM   26  N5  UNL     1      28.682 -40.358 -23.479  1.00  0.00    -0.234 N 
ATOM     27  H52 UNL     1      28.421 -39.455 -23.874  1.00  0.00     0.174 HD
ATOM     28  H51 UNL     1      28.973 -40.572 -22.525  1.00  0.00     0.174 HD
ENDBRANCH  17  26
BRANCH  20  29
HETATM   29  N7  UNL     1      30.975 -44.047 -24.751  1.00  0.00    -0.244 N 
HETATM   30  C9  UNL     1      31.977 -43.778 -23.898  1.00  0.00     0.131 A 
HETATM   31  C10 UNL     1      33.014 -44.608 -24.276  1.00  0.00     0.023 A 
HETATM   32  C20 UNL     1      32.622 -45.362 -25.346  1.00  0.00     0.145 A 
HETATM   33  N12 UNL     1      33.221 -46.239 -26.019  1.00  0.00    -0.173 N 
HETATM   34  N15 UNL     1      31.342 -44.979 -25.610  1.00  0.00    -0.277 N 
ATOM     35  H12 UNL     1      32.656 -46.633 -26.772  1.00  0.00     0.186 HD
ATOM     36  H15 UNL     1      30.758 -45.355 -26.357  1.00  0.00     0.189 HD
BRANCH  31  37
HETATM   37  C11 UNL     1      34.332 -44.664 -23.619  1.00  0.00     0.166 C 
BRANCH  37  38
HETATM   38  N8  UNL     1      34.295 -44.220 -22.224  1.00  0.00    -0.355 N 
HETATM   39  C12 UNL     1      35.406 -44.456 -21.388  1.00  0.00     0.248 C 
HETATM   40  O1  UNL     1      36.407 -45.051 -21.907  1.00  0.00    -0.271 OA
ATOM     41  H8  UNL     1      33.471 -43.742 -21.859  1.00  0.00     0.162 HD
BRANCH  39  42
HETATM   42  C13 UNL     1      35.417 -44.035 -19.982  1.00  0.00     0.265 C 
BRANCH  42  43
HETATM   43  C14 UNL     1      34.525 -42.898 -19.627  1.00  0.00     0.174 C 
BRANCH  43  44
HETATM   44  N9  UNL     1      33.336 -43.172 -18.912  1.00  0.00    -0.306 N 
HETATM   45  C15 UNL     1      33.359 -43.662 -17.646  1.00  0.00     0.108 A 
HETATM   46  C16 UNL     1      32.234 -43.968 -16.928  1.00  0.00     0.022 A 
HETATM   47  C17 UNL     1      32.268 -44.502 -15.542  1.00  0.00     0.056 C 
HETATM   48  C18 UNL     1      31.022 -43.759 -17.548  1.00  0.00     0.256 A 
HETATM   49  O2  UNL     1      29.948 -44.023 -16.937  1.00  0.00    -0.267 OA
HETATM   50  N10 UNL     1      31.031 -43.275 -18.800  1.00  0.00    -0.275 N 
HETATM   51  C19 UNL     1      32.132 -42.975 -19.501  1.00  0.00     0.329 A 
ATOM     52  H10 UNL     1      30.129 -43.123 -19.252  1.00  0.00     0.173 HD
HETATM   53  O3  UNL     1      32.042 -42.521 -20.680  1.00  0.00    -0.246 OA
ENDBRANCH  43  44
ENDBRANCH  42  43
BRANCH  42  54
HETATM   54  N11 UNL     1      36.792 -43.633 -19.640  1.00  0.00    -0.140 N 
HETATM   55  O4  UNL     1      37.506 -44.323 -18.886  1.00  0.00    -0.536 OA
HETATM   56  O5  UNL     1      37.355 -42.467 -20.143  1.00  0.00    -0.536 OA
ENDBRANCH  42  54
ENDBRANCH  39  42
ENDBRANCH  37  38
ENDBRANCH  31  37
BRANCH  33  57
HETATM   57  C21 UNL     1      34.494 -46.778 -25.943  1.00  0.00     0.705 A 
HETATM   58  N13 UNL     1      35.594 -46.448 -26.685  1.00  0.00    -0.178 N 
HETATM   59  C22 UNL     1      36.631 -47.215 -26.313  1.00  0.00     0.276 A 
ATOM     60  H13 UNL     1      35.622 -45.730 -27.409  1.00  0.00     0.185 HD
HETATM   61  O6  UNL     1      36.195 -48.011 -25.355  1.00  0.00    -0.218 OA
HETATM   62  N14 UNL     1      34.948 -47.765 -25.132  1.00  0.00    -0.090 N 
ATOM     63  H14 UNL     1      34.379 -48.248 -24.437  1.00  0.00     0.213 HD
ENDBRANCH  33  57
ENDBRANCH  20  29
ENDBRANCH  13  15
ENDBRANCH   9  13
ENDBRANCH   4   5
ENDBRANCH   3   4
TORSDOF 13
ENDMDL
MODEL 3
REMARK VINA RESULT: -9.359462688      2.112      3.017
REMARK  13 active torsions:
REMARK  status: ('A' for Active; 'I' for Inactive)
REMARK    1  A    between atoms: C3_3  and  S1_4 
REMARK    2  A    between atoms: S1_4  and  C4_5 
REMARK    3  A    between atoms: C5_10  and  N3_11 
REMARK    4  A    between atoms: N3_11  and  C6_13 
REMARK    5  A    between atoms: C7_16  and  N5_17 
REMARK    6  A    between atoms: C8_22  and  N7_23 
REMARK    7  A    between atoms: C10_25  and  C11_26 
REMARK    8  A    between atoms: C11_26  and  N8_27 
REMARK       I    between atoms: N8_27  and  C12_29 
REMARK    9  A    between atoms: C12_29  and  C13_31 
REMARK   10  A    between atoms: C13_31  and  C14_32 
REMARK   11  A    between atoms: C13_31  and  N11_43 
REMARK   12  A    between atoms: C14_32  and  N9_33 
REMARK   13  A    between atoms: N12_47  and  C21_49 
ROOT
HETATM    1  C1  UNL     1      22.774 -44.595 -33.023  1.00  0.00     0.013 C 
HETATM    2  C2  UNL     1      22.788 -45.795 -32.918  1.00  0.00    -0.107 C 
HETATM    3  C3  UNL     1      22.792 -47.257 -32.806  1.00  0.00     0.175 C 
ENDROOT
BRANCH   3   4
HETATM    4  S1  UNL     1      22.455 -47.763 -31.117  1.00  0.00    -0.080 SA
BRANCH   4   5
HETATM    5  C4  UNL     1      23.486 -46.771 -30.023  1.00  0.00     0.175 A 
HETATM    6  N1  UNL     1      24.793 -46.953 -29.764  1.00  0.00    -0.265 N 
HETATM    7  N2  UNL     1      25.218 -46.038 -28.918  1.00  0.00    -0.129 N 
ATOM      8  H1  UNL     1      25.371 -47.692 -30.165  1.00  0.00     0.189 HD
HETATM    9  C5  UNL     1      24.169 -45.232 -28.610  1.00  0.00     0.713 A 
ATOM     10  H2  UNL     1      26.168 -45.950 -28.558  1.00  0.00     0.205 HD
HETATM   11  N17 UNL     1      23.128 -45.696 -29.292  1.00  0.00    -0.167 N 
ATOM     12  H17 UNL     1      22.191 -45.296 -29.267  1.00  0.00     0.186 HD
BRANCH   9  13
HETATM   13  N3  UNL     1      24.237 -44.139 -27.734  1.00  0.00    -0.020 N 
ATOM     14  H3  UNL     1      23.368 -43.694 -27.438  1.00  0.00     0.203 HD
BRANCH  13  15
HETATM   15  C6  UNL     1      25.354 -43.674 -27.287  1.00  0.00     0.714 C 
HETATM   16  N4  UNL     1      25.807 -42.511 -27.819  1.00  0.00    -0.022 N 
HETATM   17  C7  UNL     1      26.905 -41.800 -27.506  1.00  0.00     0.692 C 
ATOM     18  H4  UNL     1      25.232 -42.118 -28.563  1.00  0.00     0.203 HD
HETATM   19  N6  UNL     1      28.027 -42.218 -26.850  1.00  0.00    -0.169 N 
HETATM   20  C8  UNL     1      28.281 -43.474 -26.376  1.00  0.00     0.211 C 
ATOM     21  H6  UNL     1      28.753 -41.518 -26.698  1.00  0.00     0.186 HD
HETATM   22  C23 UNL     1      27.305 -44.361 -25.975  1.00  0.00     0.306 C 
HETATM   23  O7  UNL     1      27.714 -45.236 -25.195  1.00  0.00    -0.263 OA
HETATM   24  N16 UNL     1      25.987 -44.375 -26.332  1.00  0.00    -0.152 N 
ATOM     25  H16 UNL     1      25.397 -45.012 -25.795  1.00  0.00     0.187 HD
BRANCH  17  26
HETATM   26  N5  UNL     1      26.959 -40.565 -27.843  1.00  0.00    -0.234 N 
ATOM     27  H52 UNL     1      26.957 -40.432 -28.854  1.00  0.00     0.174 HD
ATOM     28  H51 UNL     1      26.996 -39.856 -27.110  1.00  0.00     0.174 HD
ENDBRANCH  17  26
BRANCH  20  29
HETATM   29  N7  UNL     1      29.645 -43.867 -26.303  1.00  0.00    -0.244 N 
HETATM   30  C9  UNL     1      30.675 -43.186 -25.775  1.00  0.00     0.131 A 
HETATM   31  C10 UNL     1      31.780 -43.994 -25.956  1.00  0.00     0.023 A 
HETATM   32  C20 UNL     1      31.400 -45.144 -26.588  1.00  0.00     0.145 A 
HETATM   33  N12 UNL     1      32.052 -46.155 -26.957  1.00  0.00    -0.173 N 
HETATM   34  N15 UNL     1      30.058 -45.023 -26.787  1.00  0.00    -0.277 N 
ATOM     35  H12 UNL     1      31.480 -46.867 -27.410  1.00  0.00     0.186 HD
ATOM     36  H15 UNL     1      29.465 -45.719 -27.239  1.00  0.00     0.189 HD
BRANCH  31  37
HETATM   37  C11 UNL     1      33.150 -43.658 -25.528  1.00  0.00     0.166 C 
BRANCH  37  38
HETATM   38  N8  UNL     1      33.241 -43.333 -24.104  1.00  0.00    -0.355 N 
HETATM   39  C12 UNL     1      33.923 -44.207 -23.232  1.00  0.00     0.248 C 
HETATM   40  O1  UNL     1      34.440 -45.252 -23.746  1.00  0.00    -0.271 OA
ATOM     41  H8  UNL     1      32.814 -42.479 -23.744  1.00  0.00     0.162 HD
BRANCH  39  42
HETATM   42  C13 UNL     1      34.038 -43.929 -21.795  1.00  0.00     0.265 C 
BRANCH  42  43
HETATM   43  C14 UNL     1      33.454 -42.644 -21.324  1.00  0.00     0.174 C 
BRANCH  43  44
HETATM   44  N9  UNL     1      32.198 -42.672 -20.676  1.00  0.00    -0.306 N 
HETATM   45  C15 UNL     1      32.055 -43.147 -19.411  1.00  0.00     0.108 A 
HETATM   46  C16 UNL     1      30.854 -43.220 -18.757  1.00  0.00     0.022 A 
HETATM   47  C17 UNL     1      30.708 -43.739 -17.373  1.00  0.00     0.056 C 
HETATM   48  C18 UNL     1      29.743 -42.780 -19.441  1.00  0.00     0.256 A 
HETATM   49  O2  UNL     1      28.606 -42.822 -18.891  1.00  0.00    -0.267 OA
HETATM   50  N10 UNL     1      29.916 -42.316 -20.689  1.00  0.00    -0.275 N 
HETATM   51  C19 UNL     1      31.090 -42.245 -21.329  1.00  0.00     0.329 A 
ATOM     52  H10 UNL     1      29.087 -41.993 -21.189  1.00  0.00     0.173 HD
HETATM   53  O3  UNL     1      31.156 -41.791 -22.509  1.00  0.00    -0.246 OA
ENDBRANCH  43  44
ENDBRANCH  42  43
BRANCH  42  54
HETATM   54  N11 UNL     1      35.470 -43.910 -21.451  1.00  0.00    -0.140 N 
HETATM   55  O4  UNL     1      35.929 -44.609 -20.527  1.00  0.00    -0.536 OA
HETATM   56  O5  UNL     1      36.373 -43.111 -22.142  1.00  0.00    -0.536 OA
ENDBRANCH  42  54
ENDBRANCH  39  42
ENDBRANCH  37  38
ENDBRANCH  31  37
BRANCH  33  57
HETATM   57  C21 UNL     1      33.392 -46.493 -26.869  1.00  0.00     0.705 A 
HETATM   58  N13 UNL     1      34.405 -46.148 -27.719  1.00  0.00    -0.178 N 
HETATM   59  C22 UNL     1      35.554 -46.692 -27.289  1.00  0.00     0.276 A 
ATOM     60  H13 UNL     1      34.303 -45.567 -28.552  1.00  0.00     0.185 HD
HETATM   61  O6  UNL     1      35.273 -47.365 -26.190  1.00  0.00    -0.218 OA
HETATM   62  N14 UNL     1      34.012 -47.256 -25.936  1.00  0.00    -0.090 N 
ATOM     63  H14 UNL     1      33.544 -47.687 -25.139  1.00  0.00     0.213 HD
ENDBRANCH  33  57
ENDBRANCH  20  29
ENDBRANCH  13  15
ENDBRANCH   9  13
ENDBRANCH   4   5
ENDBRANCH   3   4
TORSDOF 13
ENDMDL
MODEL 4
REMARK VINA RESULT: -9.317021059      2.024      2.633
REMARK  13 active torsions:
REMARK  status: ('A' for Active; 'I' for Inactive)
REMARK    1  A    between atoms: C3_3  and  S1_4 
REMARK    2  A    between atoms: S1_4  and  C4_5 
REMARK    3  A    between atoms: C5_10  and  N3_11 
REMARK    4  A    between atoms: N3_11  and  C6_13 
REMARK    5  A    between atoms: C7_16  and  N5_17 
REMARK    6  A    between atoms: C8_22  and  N7_23 
REMARK    7  A    between atoms: C10_25  and  C11_26 
REMARK    8  A    between atoms: C11_26  and  N8_27 
REMARK       I    between atoms: N8_27  and  C12_29 
REMARK    9  A    between atoms: C12_29  and  C13_31 
REMARK   10  A    between atoms: C13_31  and  C14_32 
REMARK   11  A    between atoms: C13_31  and  N11_43 
REMARK   12  A    between atoms: C14_32  and  N9_33 
REMARK   13  A    between atoms: N12_47  and  C21_49 
ROOT
HETATM    1  C1  UNL     1      20.714 -48.965 -31.141  1.00  0.00     0.013 C 
HETATM    2  C2  UNL     1      21.663 -48.254 -30.932  1.00  0.00    -0.107 C 
HETATM    3  C3  UNL     1      22.824 -47.399 -30.662  1.00  0.00     0.175 C 
ENDROOT
BRANCH   3   4
HETATM    4  S1  UNL     1      22.331 -45.676 -30.560  1.00  0.00    -0.080 SA
BRANCH   4   5
HETATM    5  C4  UNL     1      23.594 -44.791 -29.627  1.00  0.00     0.175 A 
HETATM    6  N1  UNL     1      24.877 -44.609 -29.983  1.00  0.00    -0.265 N 
HETATM    7  N2  UNL     1      25.507 -43.914 -29.060  1.00  0.00    -0.129 N 
ATOM      8  H1  UNL     1      25.301 -44.957 -30.844  1.00  0.00     0.189 HD
HETATM    9  C5  UNL     1      24.622 -43.630 -28.070  1.00  0.00     0.713 A 
ATOM     10  H2  UNL     1      26.489 -43.637 -29.083  1.00  0.00     0.205 HD
HETATM   11  N17 UNL     1      23.466 -44.173 -28.437  1.00  0.00    -0.167 N 
ATOM     12  H17 UNL     1      22.604 -44.129 -27.894  1.00  0.00     0.186 HD
BRANCH   9  13
HETATM   13  N3  UNL     1      24.929 -42.901 -26.912  1.00  0.00    -0.020 N 
ATOM     14  H3  UNL     1      24.243 -42.237 -26.555  1.00  0.00     0.203 HD
BRANCH  13  15
HETATM   15  C6  UNL     1      26.046 -43.038 -26.281  1.00  0.00     0.714 C 
HETATM   16  N4  UNL     1      26.699 -41.909 -25.907  1.00  0.00    -0.022 N 
HETATM   17  C7  UNL     1      27.842 -41.774 -25.212  1.00  0.00     0.692 C 
ATOM     18  H4  UNL     1      26.259 -41.035 -26.195  1.00  0.00     0.203 HD
HETATM   19  N6  UNL     1      28.827 -42.699 -25.013  1.00  0.00    -0.169 N 
HETATM   20  C8  UNL     1      28.864 -43.975 -25.498  1.00  0.00     0.211 C 
ATOM     21  H6  UNL     1      29.618 -42.405 -24.440  1.00  0.00     0.186 HD
HETATM   22  C23 UNL     1      27.746 -44.729 -25.779  1.00  0.00     0.306 C 
HETATM   23  O7  UNL     1      27.955 -45.953 -25.784  1.00  0.00    -0.263 OA
HETATM   24  N16 UNL     1      26.481 -44.287 -26.041  1.00  0.00    -0.152 N 
ATOM     25  H16 UNL     1      25.761 -45.010 -26.059  1.00  0.00     0.187 HD
BRANCH  17  26
HETATM   26  N5  UNL     1      28.090 -40.654 -24.642  1.00  0.00    -0.234 N 
ATOM     27  H52 UNL     1      27.908 -40.672 -23.639  1.00  0.00     0.174 HD
ATOM     28  H51 UNL     1      28.432 -39.878 -25.209  1.00  0.00     0.174 HD
ENDBRANCH  17  26
BRANCH  20  29
HETATM   29  N7  UNL     1      30.151 -44.537 -25.719  1.00  0.00    -0.244 N 
HETATM   30  C9  UNL     1      31.165 -44.653 -24.846  1.00  0.00     0.131 A 
HETATM   31  C10 UNL     1      32.186 -45.261 -25.548  1.00  0.00     0.023 A 
HETATM   32  C20 UNL     1      31.773 -45.501 -26.828  1.00  0.00     0.145 A 
HETATM   33  N12 UNL     1      32.354 -46.027 -27.812  1.00  0.00    -0.173 N 
HETATM   34  N15 UNL     1      30.497 -45.033 -26.892  1.00  0.00    -0.277 N 
ATOM     35  H12 UNL     1      31.776 -46.070 -28.652  1.00  0.00     0.186 HD
ATOM     36  H15 UNL     1      29.900 -45.062 -27.719  1.00  0.00     0.189 HD
BRANCH  31  37
HETATM   37  C11 UNL     1      33.510 -45.595 -24.992  1.00  0.00     0.166 C 
BRANCH  37  38
HETATM   38  N8  UNL     1      33.597 -45.370 -23.548  1.00  0.00    -0.355 N 
HETATM   39  C12 UNL     1      34.218 -44.201 -23.061  1.00  0.00     0.248 C 
HETATM   40  O1  UNL     1      34.674 -43.383 -23.926  1.00  0.00    -0.271 OA
ATOM     41  H8  UNL     1      33.210 -46.054 -22.898  1.00  0.00     0.162 HD
BRANCH  39  42
HETATM   42  C13 UNL     1      34.335 -43.931 -21.623  1.00  0.00     0.265 C 
BRANCH  42  43
HETATM   43  C14 UNL     1      33.733 -42.658 -21.141  1.00  0.00     0.174 C 
BRANCH  43  44
HETATM   44  N9  UNL     1      32.437 -42.697 -20.577  1.00  0.00    -0.306 N 
HETATM   45  C15 UNL     1      32.220 -43.138 -19.310  1.00  0.00     0.108 A 
HETATM   46  C16 UNL     1      30.980 -43.219 -18.735  1.00  0.00     0.022 A 
HETATM   47  C17 UNL     1      30.753 -43.701 -17.349  1.00  0.00     0.056 C 
HETATM   48  C18 UNL     1      29.908 -42.826 -19.505  1.00  0.00     0.256 A 
HETATM   49  O2  UNL     1      28.738 -42.879 -19.030  1.00  0.00    -0.267 OA
HETATM   50  N10 UNL     1      30.154 -42.395 -20.753  1.00  0.00    -0.275 N 
HETATM   51  C19 UNL     1      31.367 -42.316 -21.315  1.00  0.00     0.329 A 
ATOM     52  H10 UNL     1      29.354 -42.106 -21.316  1.00  0.00     0.173 HD
HETATM   53  O3  UNL     1      31.501 -41.895 -22.502  1.00  0.00    -0.246 OA
ENDBRANCH  43  44
ENDBRANCH  42  43
BRANCH  42  54
HETATM   54  N11 UNL     1      35.768 -43.892 -21.284  1.00  0.00    -0.140 N 
HETATM   55  O4  UNL     1      36.334 -42.830 -20.960  1.00  0.00    -0.536 OA
HETATM   56  O5  UNL     1      36.552 -45.038 -21.309  1.00  0.00    -0.536 OA
ENDBRANCH  42  54
ENDBRANCH  39  42
ENDBRANCH  37  38
ENDBRANCH  31  37
BRANCH  33  57
HETATM   57  C21 UNL     1      33.621 -46.559 -27.984  1.00  0.00     0.705 A 
HETATM   58  N13 UNL     1      34.744 -45.930 -28.444  1.00  0.00    -0.178 N 
HETATM   59  C22 UNL     1      35.764 -46.802 -28.476  1.00  0.00     0.276 A 
ATOM     60  H13 UNL     1      34.798 -44.949 -28.719  1.00  0.00     0.185 HD
HETATM   61  O6  UNL     1      35.295 -47.957 -28.044  1.00  0.00    -0.218 OA
HETATM   62  N14 UNL     1      34.044 -47.827 -27.755  1.00  0.00    -0.090 N 
ATOM     63  H14 UNL     1      33.451 -48.578 -27.401  1.00  0.00     0.213 HD
ENDBRANCH  33  57
ENDBRANCH  20  29
ENDBRANCH  13  15
ENDBRANCH   9  13
ENDBRANCH   4   5
ENDBRANCH   3   4
TORSDOF 13
ENDMDL
MODEL 5
REMARK VINA RESULT: -9.302037462      1.859      5.017
REMARK  13 active torsions:
REMARK  status: ('A' for Active; 'I' for Inactive)
REMARK    1  A    between atoms: C3_3  and  S1_4 
REMARK    2  A    between atoms: S1_4  and  C4_5 
REMARK    3  A    between atoms: C5_10  and  N3_11 
REMARK    4  A    between atoms: N3_11  and  C6_13 
REMARK    5  A    between atoms: C7_16  and  N5_17 
REMARK    6  A    between atoms: C8_22  and  N7_23 
REMARK    7  A    between atoms: C10_25  and  C11_26 
REMARK    8  A    between atoms: C11_26  and  N8_27 
REMARK       I    between atoms: N8_27  and  C12_29 
REMARK    9  A    between atoms: C12_29  and  C13_31 
REMARK   10  A    between atoms: C13_31  and  C14_32 
REMARK   11  A    between atoms: C13_31  and  N11_43 
REMARK   12  A    between atoms: C14_32  and  N9_33 
REMARK   13  A    between atoms: N12_47  and  C21_49 
ROOT
HETATM    1  C1  UNL     1      25.915 -47.211 -26.293  1.00  0.00     0.013 C 
HETATM    2  C2  UNL     1      25.119 -47.126 -27.194  1.00  0.00    -0.107 C 
HETATM    3  C3  UNL     1      24.152 -47.043 -28.293  1.00  0.00     0.175 C 
ENDROOT
BRANCH   3   4
HETATM    4  S1  UNL     1      24.702 -45.867 -29.532  1.00  0.00    -0.080 SA
BRANCH   4   5
HETATM    5  C4  UNL     1      25.139 -44.335 -28.691  1.00  0.00     0.175 A 
HETATM    6  N1  UNL     1      24.689 -43.917 -27.495  1.00  0.00    -0.265 N 
HETATM    7  N2  UNL     1      25.223 -42.752 -27.195  1.00  0.00    -0.129 N 
ATOM      8  H1  UNL     1      24.031 -44.428 -26.906  1.00  0.00     0.189 HD
HETATM    9  C5  UNL     1      26.044 -42.390 -28.213  1.00  0.00     0.713 A 
ATOM     10  H2  UNL     1      25.050 -42.215 -26.345  1.00  0.00     0.205 HD
HETATM   11  N17 UNL     1      25.977 -43.367 -29.111  1.00  0.00    -0.167 N 
ATOM     12  H17 UNL     1      26.488 -43.382 -29.994  1.00  0.00     0.186 HD
BRANCH   9  13
HETATM   13  N3  UNL     1      26.790 -41.203 -28.251  1.00  0.00    -0.020 N 
ATOM     14  H3  UNL     1      26.667 -40.572 -29.043  1.00  0.00     0.203 HD
BRANCH  13  15
HETATM   15  C6  UNL     1      27.626 -40.878 -27.324  1.00  0.00     0.714 C 
HETATM   16  N4  UNL     1      28.836 -40.400 -27.710  1.00  0.00    -0.022 N 
HETATM   17  C7  UNL     1      29.858 -39.955 -26.956  1.00  0.00     0.692 C 
ATOM     18  H4  UNL     1      28.994 -40.372 -28.717  1.00  0.00     0.203 HD
HETATM   19  N6  UNL     1      30.104 -40.197 -25.635  1.00  0.00    -0.169 N 
HETATM   20  C8  UNL     1      29.357 -40.964 -24.788  1.00  0.00     0.211 C 
ATOM     21  H6  UNL     1      30.934 -39.756 -25.239  1.00  0.00     0.186 HD
HETATM   22  C23 UNL     1      28.001 -41.167 -24.920  1.00  0.00     0.306 C 
HETATM   23  O7  UNL     1      27.439 -41.505 -23.866  1.00  0.00    -0.263 OA
HETATM   24  N16 UNL     1      27.240 -41.039 -26.048  1.00  0.00    -0.152 N 
ATOM     25  H16 UNL     1      26.231 -41.070 -25.898  1.00  0.00     0.187 HD
BRANCH  17  26
HETATM   26  N5  UNL     1      30.744 -39.206 -27.497  1.00  0.00    -0.234 N 
ATOM     27  H52 UNL     1      30.348 -38.543 -28.163  1.00  0.00     0.174 HD
ATOM     28  H51 UNL     1      31.721 -39.327 -27.231  1.00  0.00     0.174 HD
ENDBRANCH  17  26
BRANCH  20  29
HETATM   29  N7  UNL     1      30.047 -41.584 -23.710  1.00  0.00    -0.244 N 
HETATM   30  C9  UNL     1      31.184 -42.297 -23.756  1.00  0.00     0.131 A 
HETATM   31  C10 UNL     1      31.431 -42.676 -22.451  1.00  0.00     0.023 A 
HETATM   32  C20 UNL     1      30.443 -42.188 -21.644  1.00  0.00     0.145 A 
HETATM   33  N12 UNL     1      30.250 -42.281 -20.404  1.00  0.00    -0.173 N 
HETATM   34  N15 UNL     1      29.599 -41.512 -22.471  1.00  0.00    -0.277 N 
ATOM     35  H12 UNL     1      29.409 -41.799 -20.085  1.00  0.00     0.186 HD
ATOM     36  H15 UNL     1      28.752 -41.026 -22.177  1.00  0.00     0.189 HD
BRANCH  31  37
HETATM   37  C11 UNL     1      32.584 -43.483 -22.012  1.00  0.00     0.166 C 
BRANCH  37  38
HETATM   38  N8  UNL     1      32.918 -44.560 -22.945  1.00  0.00    -0.355 N 
HETATM   39  C12 UNL     1      33.829 -44.316 -23.994  1.00  0.00     0.248 C 
HETATM   40  O1  UNL     1      34.328 -43.146 -24.068  1.00  0.00    -0.271 OA
ATOM     41  H8  UNL     1      32.494 -45.482 -22.837  1.00  0.00     0.162 HD
BRANCH  39  42
HETATM   42  C13 UNL     1      34.192 -45.361 -24.958  1.00  0.00     0.265 C 
BRANCH  42  43
HETATM   43  C14 UNL     1      33.106 -46.296 -25.358  1.00  0.00     0.174 C 
BRANCH  43  44
HETATM   44  N9  UNL     1      31.826 -45.763 -25.636  1.00  0.00    -0.306 N 
HETATM   45  C15 UNL     1      31.604 -44.957 -26.707  1.00  0.00     0.108 A 
HETATM   46  C16 UNL     1      30.388 -44.396 -26.997  1.00  0.00     0.022 A 
HETATM   47  C17 UNL     1      30.153 -43.517 -28.171  1.00  0.00     0.056 C 
HETATM   48  C18 UNL     1      29.349 -44.681 -26.140  1.00  0.00     0.256 A 
HETATM   49  O2  UNL     1      28.203 -44.192 -26.354  1.00  0.00    -0.267 OA
HETATM   50  N10 UNL     1      29.600 -45.480 -25.090  1.00  0.00    -0.275 N 
HETATM   51  C19 UNL     1      30.788 -46.028 -24.807  1.00  0.00     0.329 A 
ATOM     52  H10 UNL     1      28.824 -45.686 -24.460  1.00  0.00     0.173 HD
HETATM   53  O3  UNL     1      30.930 -46.773 -23.792  1.00  0.00    -0.246 OA
ENDBRANCH  43  44
ENDBRANCH  42  43
BRANCH  42  54
HETATM   54  N11 UNL     1      35.269 -46.172 -24.364  1.00  0.00    -0.140 N 
HETATM   55  O4  UNL     1      35.516 -47.325 -24.766  1.00  0.00    -0.536 OA
HETATM   56  O5  UNL     1      36.058 -45.685 -23.329  1.00  0.00    -0.536 OA
ENDBRANCH  42  54
ENDBRANCH  39  42
ENDBRANCH  37  38
ENDBRANCH  31  37
BRANCH  33  57
HETATM   57  C21 UNL     1      30.951 -42.904 -19.386  1.00  0.00     0.705 A 
HETATM   58  N13 UNL     1      32.301 -42.915 -19.177  1.00  0.00    -0.178 N 
HETATM   59  C22 UNL     1      32.580 -43.649 -18.088  1.00  0.00     0.276 A 
ATOM     60  H13 UNL     1      32.991 -42.439 -19.759  1.00  0.00     0.185 HD
HETATM   61  O6  UNL     1      31.429 -44.091 -17.619  1.00  0.00    -0.218 OA
HETATM   62  N14 UNL     1      30.471 -43.662 -18.370  1.00  0.00    -0.090 N 
ATOM     63  H14 UNL     1      29.483 -43.867 -18.220  1.00  0.00     0.213 HD
ENDBRANCH  33  57
ENDBRANCH  20  29
ENDBRANCH  13  15
ENDBRANCH   9  13
ENDBRANCH   4   5
ENDBRANCH   3   4
TORSDOF 13
ENDMDL
