MODEL 1
REMARK VINA RESULT: -6.660967254      0.000      0.000
REMARK  18 active torsions:
REMARK  status: ('A' for Active; 'I' for Inactive)
REMARK    1  A    between atoms: O1_2  and  C2_3 
REMARK    2  A    between atoms: C2_3  and  C3_5 
REMARK    3  A    between atoms: C8_10  and  C9_11 
REMARK    4  A    between atoms: C9_11  and  O3_12 
REMARK    5  A    between atoms: C10_15  and  C11_16 
REMARK    6  A    between atoms: C13_22  and  O9_23 
REMARK    7  A    between atoms: C15_26  and  O10_27 
REMARK    8  A    between atoms: O10_27  and  C16_28 
REMARK    9  A    between atoms: C17_30  and  C18_31 
REMARK   10  A    between atoms: C17_30  and  C19_34 
REMARK   11  A    between atoms: C18_31  and  O12_32 
REMARK   12  A    between atoms: C19_34  and  O13_35 
REMARK   13  A    between atoms: C20_38  and  O15_39 
REMARK   14  A    between atoms: C20_38  and  O16_41 
REMARK   15  A    between atoms: C22_43  and  O17_44 
REMARK   16  A    between atoms: C23_46  and  C25_48 
REMARK   17  A    between atoms: C25_48  and  O18_49 
REMARK   18  A    between atoms: O18_49  and  C26_50 
ROOT
HETATM    1  C3  UNL     1      29.330 -43.076 -27.734  1.00  0.00     0.109 C 
HETATM    2  C4  UNL     1      30.666 -42.391 -27.647  1.00  0.00     0.063 C 
HETATM    3  C5  UNL     1      31.762 -42.887 -28.486  1.00  0.00     0.139 C 
HETATM    4  C6  UNL     1      31.569 -44.155 -29.240  1.00  0.00     0.035 C 
HETATM    5  C7  UNL     1      32.829 -45.009 -29.313  1.00  0.00     0.036 C 
HETATM    6  C8  UNL     1      32.776 -46.174 -28.337  1.00  0.00     0.148 C 
HETATM    7  O4  UNL     1      32.140 -46.023 -27.192  1.00  0.00    -0.347 OA
HETATM    8  C10 UNL     1      32.451 -45.199 -26.185  1.00  0.00     0.286 C 
HETATM    9  C12 UNL     1      33.271 -44.084 -26.735  1.00  0.00     0.312 C 
HETATM   10  O7  UNL     1      34.445 -43.978 -26.369  1.00  0.00    -0.261 OA
HETATM   11  O8  UNL     1      32.912 -43.093 -27.640  1.00  0.00    -0.312 OA
HETATM   12  C13 UNL     1      31.313 -44.711 -25.342  1.00  0.00     0.104 C 
HETATM   13  C14 UNL     1      30.389 -43.668 -25.629  1.00  0.00    -0.006 C 
HETATM   14  C15 UNL     1      30.907 -42.341 -26.163  1.00  0.00     0.164 C 
HETATM   15  C23 UNL     1      29.131 -43.812 -26.415  1.00  0.00     0.020 C 
HETATM   16  C24 UNL     1      27.921 -43.165 -25.716  1.00  0.00     0.023 C 
ENDROOT
BRANCH  14  17
HETATM   17  O10 UNL     1      30.105 -41.277 -25.677  1.00  0.00    -0.348 OA
BRANCH  17  18
HETATM   18  C16 UNL     1      30.538 -40.751 -24.465  1.00  0.00     0.301 C 
HETATM   19  O11 UNL     1      31.827 -40.941 -24.181  1.00  0.00    -0.318 OA
HETATM   20  C17 UNL     1      32.316 -40.543 -22.997  1.00  0.00     0.214 C 
HETATM   21  O14 UNL     1      31.551 -40.908 -21.892  1.00  0.00    -0.289 OA
HETATM   22  C20 UNL     1      30.459 -41.681 -22.178  1.00  0.00     0.314 C 
HETATM   23  C22 UNL     1      29.644 -41.229 -23.350  1.00  0.00     0.266 C 
BRANCH  20  24
HETATM   24  C18 UNL     1      33.717 -41.215 -22.879  1.00  0.00     0.235 C 
BRANCH  24  25
HETATM   25  O12 UNL     1      33.595 -42.413 -23.585  1.00  0.00    -0.395 OA
ATOM     26  H12 UNL     1      34.345 -42.929 -23.314  1.00  0.00     0.209 HD
ENDBRANCH  24  25
ENDBRANCH  20  24
BRANCH  20  27
HETATM   27  C19 UNL     1      32.573 -39.059 -22.872  1.00  0.00     0.235 C 
BRANCH  27  28
HETATM   28  O13 UNL     1      31.674 -38.366 -22.112  1.00  0.00    -0.395 OA
ATOM     29  H13 UNL     1      32.027 -37.631 -21.626  1.00  0.00     0.209 HD
ENDBRANCH  27  28
ENDBRANCH  20  27
BRANCH  22  30
HETATM   30  O15 UNL     1      29.592 -41.550 -21.053  1.00  0.00    -0.341 OA
ATOM     31  H15 UNL     1      28.767 -41.232 -21.403  1.00  0.00     0.215 HD
ENDBRANCH  22  30
BRANCH  22  32
HETATM   32  O16 UNL     1      30.752 -43.045 -22.282  1.00  0.00    -0.336 OA
HETATM   33  C21 UNL     1      31.251 -43.572 -21.105  1.00  0.00     0.208 C 
ENDBRANCH  22  32
BRANCH  23  34
HETATM   34  O17 UNL     1      28.725 -40.244 -22.978  1.00  0.00    -0.383 OA
ATOM     35  H17 UNL     1      28.131 -40.562 -22.309  1.00  0.00     0.210 HD
ENDBRANCH  23  34
ENDBRANCH  17  18
ENDBRANCH  14  17
BRANCH   1  36
HETATM   36  C2  UNL     1      28.243 -42.069 -27.993  1.00  0.00     0.264 C 
HETATM   37  O2  UNL     1      27.107 -42.465 -28.355  1.00  0.00    -0.265 OA
BRANCH  36  38
HETATM   38  O1  UNL     1      28.392 -40.703 -27.863  1.00  0.00    -0.326 OA
HETATM   39  C1  UNL     1      28.150 -39.771 -28.869  1.00  0.00     0.213 C 
ENDBRANCH  36  38
ENDBRANCH   1  36
BRANCH  12  40
HETATM   40  O9  UNL     1      30.629 -45.850 -24.906  1.00  0.00    -0.360 OA
ATOM     41  H9  UNL     1      30.765 -46.515 -25.570  1.00  0.00     0.217 HD
ENDBRANCH  12  40
BRANCH  15  42
HETATM   42  C25 UNL     1      28.657 -45.210 -26.663  1.00  0.00     0.193 C 
BRANCH  42  43
HETATM   43  O18 UNL     1      27.275 -45.225 -26.256  1.00  0.00    -0.321 OA
BRANCH  43  44
HETATM   44  C26 UNL     1      26.335 -46.021 -26.874  1.00  0.00     0.254 C 
HETATM   45  C27 UNL     1      25.949 -47.355 -26.297  1.00  0.00     0.126 C 
HETATM   46  O19 UNL     1      25.810 -45.595 -27.935  1.00  0.00    -0.266 OA
ENDBRANCH  43  44
ENDBRANCH  42  43
ENDBRANCH  15  42
BRANCH   8  47
HETATM   47  C11 UNL     1      33.367 -45.950 -25.268  1.00  0.00     0.227 C 
HETATM   48  O5  UNL     1      33.996 -46.986 -25.579  1.00  0.00    -0.645 OA
HETATM   49  O6  UNL     1      33.592 -45.531 -23.959  1.00  0.00    -0.645 OA
ENDBRANCH   8  47
BRANCH   6  50
HETATM   50  C9  UNL     1      34.097 -46.863 -28.435  1.00  0.00     0.196 C 
BRANCH  50  51
HETATM   51  O3  UNL     1      33.846 -48.239 -28.179  1.00  0.00    -0.398 OA
ATOM     52  H3  UNL     1      34.291 -48.722 -28.865  1.00  0.00     0.209 HD
ENDBRANCH  50  51
ENDBRANCH   6  50
TORSDOF 18
ENDMDL
MODEL 2
REMARK VINA RESULT: -6.500287381      1.773      5.883
REMARK  18 active torsions:
REMARK  status: ('A' for Active; 'I' for Inactive)
REMARK    1  A    between atoms: O1_2  and  C2_3 
REMARK    2  A    between atoms: C2_3  and  C3_5 
REMARK    3  A    between atoms: C8_10  and  C9_11 
REMARK    4  A    between atoms: C9_11  and  O3_12 
REMARK    5  A    between atoms: C10_15  and  C11_16 
REMARK    6  A    between atoms: C13_22  and  O9_23 
REMARK    7  A    between atoms: C15_26  and  O10_27 
REMARK    8  A    between atoms: O10_27  and  C16_28 
REMARK    9  A    between atoms: C17_30  and  C18_31 
REMARK   10  A    between atoms: C17_30  and  C19_34 
REMARK   11  A    between atoms: C18_31  and  O12_32 
REMARK   12  A    between atoms: C19_34  and  O13_35 
REMARK   13  A    between atoms: C20_38  and  O15_39 
REMARK   14  A    between atoms: C20_38  and  O16_41 
REMARK   15  A    between atoms: C22_43  and  O17_44 
REMARK   16  A    between atoms: C23_46  and  C25_48 
REMARK   17  A    between atoms: C25_48  and  O18_49 
REMARK   18  A    between atoms: O18_49  and  C26_50 
ROOT
HETATM    1  C3  UNL     1      30.940 -45.129 -27.025  1.00  0.00     0.109 C 
HETATM    2  C4  UNL     1      30.253 -44.949 -25.699  1.00  0.00     0.063 C 
HETATM    3  C5  UNL     1      28.821 -45.257 -25.606  1.00  0.00     0.139 C 
HETATM    4  C6  UNL     1      28.069 -45.547 -26.857  1.00  0.00     0.035 C 
HETATM    5  C7  UNL     1      26.648 -44.997 -26.844  1.00  0.00     0.036 C 
HETATM    6  C8  UNL     1      26.530 -43.725 -27.669  1.00  0.00     0.148 C 
HETATM    7  O4  UNL     1      27.560 -42.905 -27.735  1.00  0.00    -0.347 OA
HETATM    8  C10 UNL     1      28.112 -42.202 -26.738  1.00  0.00     0.286 C 
HETATM    9  C12 UNL     1      27.776 -42.877 -25.454  1.00  0.00     0.312 C 
HETATM   10  O7  UNL     1      27.054 -42.286 -24.647  1.00  0.00    -0.261 OA
HETATM   11  O8  UNL     1      28.163 -44.129 -24.993  1.00  0.00    -0.312 OA
HETATM   12  C13 UNL     1      29.574 -41.899 -26.861  1.00  0.00     0.104 C 
HETATM   13  C14 UNL     1      30.676 -42.754 -26.585  1.00  0.00    -0.006 C 
HETATM   14  C15 UNL     1      30.684 -43.566 -25.297  1.00  0.00     0.164 C 
HETATM   15  C23 UNL     1      31.278 -43.733 -27.534  1.00  0.00     0.020 C 
HETATM   16  C24 UNL     1      32.813 -43.633 -27.590  1.00  0.00     0.023 C 
ENDROOT
BRANCH  14  17
HETATM   17  O10 UNL     1      32.012 -43.698 -24.817  1.00  0.00    -0.348 OA
BRANCH  17  18
HETATM   18  C16 UNL     1      32.237 -43.077 -23.595  1.00  0.00     0.301 C 
HETATM   19  O11 UNL     1      31.146 -42.804 -22.877  1.00  0.00    -0.318 OA
HETATM   20  C17 UNL     1      31.257 -42.129 -21.722  1.00  0.00     0.214 C 
HETATM   21  O14 UNL     1      32.056 -40.991 -21.781  1.00  0.00    -0.289 OA
HETATM   22  C20 UNL     1      32.543 -40.693 -23.024  1.00  0.00     0.314 C 
HETATM   23  C22 UNL     1      33.096 -41.855 -23.790  1.00  0.00     0.266 C 
BRANCH  20  24
HETATM   24  C18 UNL     1      29.804 -41.703 -21.350  1.00  0.00     0.235 C 
BRANCH  24  25
HETATM   25  O12 UNL     1      29.153 -41.560 -22.576  1.00  0.00    -0.395 OA
ATOM     26  H12 UNL     1      28.366 -42.086 -22.492  1.00  0.00     0.209 HD
ENDBRANCH  24  25
ENDBRANCH  20  24
BRANCH  20  27
HETATM   27  C19 UNL     1      31.749 -42.941 -20.547  1.00  0.00     0.235 C 
BRANCH  27  28
HETATM   28  O13 UNL     1      30.777 -43.519 -19.780  1.00  0.00    -0.395 OA
ATOM     29  H13 UNL     1      31.060 -44.244 -19.236  1.00  0.00     0.209 HD
ENDBRANCH  27  28
ENDBRANCH  20  27
BRANCH  22  30
HETATM   30  O15 UNL     1      33.660 -39.834 -22.802  1.00  0.00    -0.341 OA
ATOM     31  H15 UNL     1      34.327 -40.381 -22.403  1.00  0.00     0.215 HD
ENDBRANCH  22  30
BRANCH  22  32
HETATM   32  O16 UNL     1      31.649 -39.966 -23.816  1.00  0.00    -0.336 OA
HETATM   33  C21 UNL     1      32.162 -39.680 -25.069  1.00  0.00     0.208 C 
ENDBRANCH  22  32
BRANCH  23  34
HETATM   34  O17 UNL     1      34.425 -42.108 -23.438  1.00  0.00    -0.383 OA
ATOM     35  H17 UNL     1      35.005 -41.435 -23.776  1.00  0.00     0.210 HD
ENDBRANCH  23  34
ENDBRANCH  17  18
ENDBRANCH  14  17
BRANCH   1  36
HETATM   36  C2  UNL     1      32.165 -45.988 -26.865  1.00  0.00     0.264 C 
HETATM   37  O2  UNL     1      32.720 -46.469 -27.884  1.00  0.00    -0.265 OA
BRANCH  36  38
HETATM   38  O1  UNL     1      32.749 -46.303 -25.655  1.00  0.00    -0.326 OA
HETATM   39  C1  UNL     1      34.118 -46.446 -25.439  1.00  0.00     0.213 C 
ENDBRANCH  36  38
ENDBRANCH   1  36
BRANCH  12  40
HETATM   40  O9  UNL     1      29.746 -41.284 -28.105  1.00  0.00    -0.360 OA
ATOM     41  H9  UNL     1      30.667 -41.062 -28.169  1.00  0.00     0.217 HD
ENDBRANCH  12  40
BRANCH  15  42
HETATM   42  C25 UNL     1      30.887 -43.593 -28.971  1.00  0.00     0.193 C 
BRANCH  42  43
HETATM   43  O18 UNL     1      31.885 -42.735 -29.559  1.00  0.00    -0.321 OA
BRANCH  43  44
HETATM   44  C26 UNL     1      31.695 -42.107 -30.771  1.00  0.00     0.254 C 
HETATM   45  C27 UNL     1      31.998 -42.813 -32.064  1.00  0.00     0.126 C 
HETATM   46  O19 UNL     1      31.262 -40.927 -30.760  1.00  0.00    -0.266 OA
ENDBRANCH  43  44
ENDBRANCH  42  43
ENDBRANCH  15  42
BRANCH   8  47
HETATM   47  C11 UNL     1      27.407 -40.881 -26.687  1.00  0.00     0.227 C 
HETATM   48  O5  UNL     1      27.194 -40.227 -25.642  1.00  0.00    -0.645 OA
HETATM   49  O6  UNL     1      26.924 -40.268 -27.840  1.00  0.00    -0.645 OA
ENDBRANCH   8  47
BRANCH   6  50
HETATM   50  C9  UNL     1      25.129 -43.239 -27.493  1.00  0.00     0.196 C 
BRANCH  50  51
HETATM   51  O3  UNL     1      24.295 -44.385 -27.606  1.00  0.00    -0.398 OA
ATOM     52  H3  UNL     1      23.920 -44.354 -28.478  1.00  0.00     0.209 HD
ENDBRANCH  50  51
ENDBRANCH   6  50
TORSDOF 18
ENDMDL
MODEL 3
REMARK VINA RESULT: -6.424577084      2.281      7.013
REMARK  18 active torsions:
REMARK  status: ('A' for Active; 'I' for Inactive)
REMARK    1  A    between atoms: O1_2  and  C2_3 
REMARK    2  A    between atoms: C2_3  and  C3_5 
REMARK    3  A    between atoms: C8_10  and  C9_11 
REMARK    4  A    between atoms: C9_11  and  O3_12 
REMARK    5  A    between atoms: C10_15  and  C11_16 
REMARK    6  A    between atoms: C13_22  and  O9_23 
REMARK    7  A    between atoms: C15_26  and  O10_27 
REMARK    8  A    between atoms: O10_27  and  C16_28 
REMARK    9  A    between atoms: C17_30  and  C18_31 
REMARK   10  A    between atoms: C17_30  and  C19_34 
REMARK   11  A    between atoms: C18_31  and  O12_32 
REMARK   12  A    between atoms: C19_34  and  O13_35 
REMARK   13  A    between atoms: C20_38  and  O15_39 
REMARK   14  A    between atoms: C20_38  and  O16_41 
REMARK   15  A    between atoms: C22_43  and  O17_44 
REMARK   16  A    between atoms: C23_46  and  C25_48 
REMARK   17  A    between atoms: C25_48  and  O18_49 
REMARK   18  A    between atoms: O18_49  and  C26_50 
ROOT
HETATM    1  C3  UNL     1      28.689 -41.344 -27.329  1.00  0.00     0.109 C 
HETATM    2  C4  UNL     1      28.106 -42.420 -26.455  1.00  0.00     0.063 C 
HETATM    3  C5  UNL     1      28.618 -42.564 -25.087  1.00  0.00     0.139 C 
HETATM    4  C6  UNL     1      29.814 -41.776 -24.684  1.00  0.00     0.035 C 
HETATM    5  C7  UNL     1      30.745 -42.535 -23.748  1.00  0.00     0.036 C 
HETATM    6  C8  UNL     1      31.969 -43.064 -24.479  1.00  0.00     0.148 C 
HETATM    7  O4  UNL     1      31.855 -43.426 -25.742  1.00  0.00    -0.347 OA
HETATM    8  C10 UNL     1      31.126 -44.430 -26.243  1.00  0.00     0.286 C 
HETATM    9  C12 UNL     1      30.036 -44.738 -25.277  1.00  0.00     0.312 C 
HETATM   10  O7  UNL     1      30.037 -45.837 -24.714  1.00  0.00    -0.261 OA
HETATM   11  O8  UNL     1      28.962 -43.950 -24.884  1.00  0.00    -0.312 OA
HETATM   12  C13 UNL     1      30.621 -44.259 -27.642  1.00  0.00     0.104 C 
HETATM   13  C14 UNL     1      29.499 -43.505 -28.087  1.00  0.00    -0.006 C 
HETATM   14  C15 UNL     1      28.177 -43.631 -27.344  1.00  0.00     0.164 C 
HETATM   15  C23 UNL     1      29.500 -42.050 -28.409  1.00  0.00     0.020 C 
HETATM   16  C24 UNL     1      28.820 -41.744 -29.756  1.00  0.00     0.023 C 
ENDROOT
BRANCH  14  17
HETATM   17  O10 UNL     1      27.097 -43.506 -28.254  1.00  0.00    -0.348 OA
BRANCH  17  18
HETATM   18  C16 UNL     1      25.961 -44.218 -27.886  1.00  0.00     0.301 C 
HETATM   19  O11 UNL     1      25.777 -45.379 -28.517  1.00  0.00    -0.318 OA
HETATM   20  C17 UNL     1      24.666 -46.095 -28.289  1.00  0.00     0.214 C 
HETATM   21  O14 UNL     1      23.480 -45.367 -28.326  1.00  0.00    -0.289 OA
HETATM   22  C20 UNL     1      23.623 -44.050 -28.664  1.00  0.00     0.314 C 
HETATM   23  C22 UNL     1      24.747 -43.332 -27.982  1.00  0.00     0.266 C 
BRANCH  20  24
HETATM   24  C18 UNL     1      24.628 -47.172 -29.415  1.00  0.00     0.235 C 
BRANCH  24  25
HETATM   25  O12 UNL     1      23.669 -48.093 -28.990  1.00  0.00    -0.395 OA
ATOM     26  H12 UNL     1      24.164 -48.761 -28.530  1.00  0.00     0.209 HD
ENDBRANCH  24  25
ENDBRANCH  20  24
BRANCH  20  27
HETATM   27  C19 UNL     1      24.655 -46.871 -26.993  1.00  0.00     0.235 C 
BRANCH  27  28
HETATM   28  O13 UNL     1      25.666 -47.776 -26.837  1.00  0.00    -0.395 OA
ATOM     29  H13 UNL     1      26.419 -47.471 -26.346  1.00  0.00     0.209 HD
ENDBRANCH  27  28
ENDBRANCH  20  27
BRANCH  22  30
HETATM   30  O15 UNL     1      22.439 -43.404 -28.201  1.00  0.00    -0.341 OA
ATOM     31  H15 UNL     1      22.599 -42.473 -28.302  1.00  0.00     0.215 HD
ENDBRANCH  22  30
BRANCH  22  32
HETATM   32  O16 UNL     1      23.668 -43.828 -30.045  1.00  0.00    -0.336 OA
HETATM   33  C21 UNL     1      22.601 -44.405 -30.709  1.00  0.00     0.208 C 
ENDBRANCH  22  32
BRANCH  23  34
HETATM   34  O17 UNL     1      24.358 -42.864 -26.723  1.00  0.00    -0.383 OA
ATOM     35  H17 UNL     1      23.418 -42.732 -26.679  1.00  0.00     0.210 HD
ENDBRANCH  23  34
ENDBRANCH  17  18
ENDBRANCH  14  17
BRANCH   1  36
HETATM   36  C2  UNL     1      27.593 -40.491 -27.907  1.00  0.00     0.264 C 
HETATM   37  O2  UNL     1      26.435 -40.564 -27.428  1.00  0.00    -0.265 OA
BRANCH  36  38
HETATM   38  O1  UNL     1      27.759 -39.605 -28.953  1.00  0.00    -0.326 OA
HETATM   39  C1  UNL     1      28.508 -38.432 -28.899  1.00  0.00     0.213 C 
ENDBRANCH  36  38
ENDBRANCH   1  36
BRANCH  12  40
HETATM   40  O9  UNL     1      31.737 -43.966 -28.432  1.00  0.00    -0.360 OA
ATOM     41  H9  UNL     1      31.438 -43.978 -29.333  1.00  0.00     0.217 HD
ENDBRANCH  12  40
BRANCH  15  42
HETATM   42  C25 UNL     1      30.841 -41.404 -28.562  1.00  0.00     0.193 C 
BRANCH  42  43
HETATM   43  O18 UNL     1      31.002 -40.572 -27.397  1.00  0.00    -0.321 OA
BRANCH  43  44
HETATM   44  C26 UNL     1      32.242 -40.236 -26.898  1.00  0.00     0.254 C 
HETATM   45  C27 UNL     1      32.380 -39.266 -25.757  1.00  0.00     0.126 C 
HETATM   46  O19 UNL     1      33.251 -40.767 -27.427  1.00  0.00    -0.266 OA
ENDBRANCH  43  44
ENDBRANCH  42  43
ENDBRANCH  15  42
BRANCH   8  47
HETATM   47  C11 UNL     1      32.001 -45.647 -26.254  1.00  0.00     0.227 C 
HETATM   48  O5  UNL     1      32.659 -46.061 -25.272  1.00  0.00    -0.645 OA
HETATM   49  O6  UNL     1      32.149 -46.429 -27.396  1.00  0.00    -0.645 OA
ENDBRANCH   8  47
BRANCH   6  50
HETATM   50  C9  UNL     1      32.740 -43.865 -23.483  1.00  0.00     0.196 C 
BRANCH  50  51
HETATM   51  O3  UNL     1      31.775 -44.521 -22.670  1.00  0.00    -0.398 OA
ATOM     52  H3  UNL     1      31.476 -45.272 -23.169  1.00  0.00     0.209 HD
ENDBRANCH  50  51
ENDBRANCH   6  50
TORSDOF 18
ENDMDL
MODEL 4
REMARK VINA RESULT: -6.403166769      1.749      5.766
REMARK  18 active torsions:
REMARK  status: ('A' for Active; 'I' for Inactive)
REMARK    1  A    between atoms: O1_2  and  C2_3 
REMARK    2  A    between atoms: C2_3  and  C3_5 
REMARK    3  A    between atoms: C8_10  and  C9_11 
REMARK    4  A    between atoms: C9_11  and  O3_12 
REMARK    5  A    between atoms: C10_15  and  C11_16 
REMARK    6  A    between atoms: C13_22  and  O9_23 
REMARK    7  A    between atoms: C15_26  and  O10_27 
REMARK    8  A    between atoms: O10_27  and  C16_28 
REMARK    9  A    between atoms: C17_30  and  C18_31 
REMARK   10  A    between atoms: C17_30  and  C19_34 
REMARK   11  A    between atoms: C18_31  and  O12_32 
REMARK   12  A    between atoms: C19_34  and  O13_35 
REMARK   13  A    between atoms: C20_38  and  O15_39 
REMARK   14  A    between atoms: C20_38  and  O16_41 
REMARK   15  A    between atoms: C22_43  and  O17_44 
REMARK   16  A    between atoms: C23_46  and  C25_48 
REMARK   17  A    between atoms: C25_48  and  O18_49 
REMARK   18  A    between atoms: O18_49  and  C26_50 
ROOT
HETATM    1  C3  UNL     1      31.496 -45.408 -26.439  1.00  0.00     0.109 C 
HETATM    2  C4  UNL     1      30.793 -44.862 -25.227  1.00  0.00     0.063 C 
HETATM    3  C5  UNL     1      29.338 -45.028 -25.129  1.00  0.00     0.139 C 
HETATM    4  C6  UNL     1      28.597 -45.553 -26.308  1.00  0.00     0.035 C 
HETATM    5  C7  UNL     1      27.228 -44.910 -26.492  1.00  0.00     0.036 C 
HETATM    6  C8  UNL     1      27.240 -43.870 -27.602  1.00  0.00     0.148 C 
HETATM    7  O4  UNL     1      28.337 -43.171 -27.814  1.00  0.00    -0.347 OA
HETATM    8  C10 UNL     1      28.921 -42.293 -26.989  1.00  0.00     0.286 C 
HETATM    9  C12 UNL     1      28.495 -42.610 -25.598  1.00  0.00     0.312 C 
HETATM   10  O7  UNL     1      27.804 -41.788 -24.989  1.00  0.00    -0.261 OA
HETATM   11  O8  UNL     1      28.762 -43.739 -24.834  1.00  0.00    -0.312 OA
HETATM   12  C13 UNL     1      30.405 -42.140 -27.114  1.00  0.00     0.104 C 
HETATM   13  C14 UNL     1      31.423 -42.985 -26.591  1.00  0.00    -0.006 C 
HETATM   14  C15 UNL     1      31.329 -43.459 -25.148  1.00  0.00     0.164 C 
HETATM   15  C23 UNL     1      31.965 -44.207 -27.250  1.00  0.00     0.020 C 
HETATM   16  C24 UNL     1      33.504 -44.240 -27.258  1.00  0.00     0.023 C 
ENDROOT
BRANCH  14  17
HETATM   17  O10 UNL     1      32.628 -43.572 -24.590  1.00  0.00    -0.348 OA
BRANCH  17  18
HETATM   18  C16 UNL     1      32.773 -42.939 -23.361  1.00  0.00     0.301 C 
HETATM   19  O11 UNL     1      31.665 -42.849 -22.624  1.00  0.00    -0.318 OA
HETATM   20  C17 UNL     1      31.688 -42.181 -21.461  1.00  0.00     0.214 C 
HETATM   21  O14 UNL     1      32.298 -40.931 -21.514  1.00  0.00    -0.289 OA
HETATM   22  C20 UNL     1      32.712 -40.544 -22.759  1.00  0.00     0.314 C 
HETATM   23  C22 UNL     1      33.427 -41.596 -23.551  1.00  0.00     0.266 C 
BRANCH  20  24
HETATM   24  C18 UNL     1      30.194 -41.992 -21.060  1.00  0.00     0.235 C 
BRANCH  24  25
HETATM   25  O12 UNL     1      29.516 -41.870 -22.274  1.00  0.00    -0.395 OA
ATOM     26  H12 UNL     1      28.708 -41.421 -22.054  1.00  0.00     0.209 HD
ENDBRANCH  24  25
ENDBRANCH  20  24
BRANCH  20  27
HETATM   27  C19 UNL     1      32.321 -42.921 -20.305  1.00  0.00     0.235 C 
BRANCH  27  28
HETATM   28  O13 UNL     1      31.524 -43.099 -19.210  1.00  0.00    -0.395 OA
ATOM     29  H13 UNL     1      31.743 -43.841 -18.660  1.00  0.00     0.209 HD
ENDBRANCH  27  28
ENDBRANCH  20  27
BRANCH  22  30
HETATM   30  O15 UNL     1      33.684 -39.523 -22.540  1.00  0.00    -0.341 OA
ATOM     31  H15 UNL     1      34.502 -39.874 -22.873  1.00  0.00     0.215 HD
ENDBRANCH  22  30
BRANCH  22  32
HETATM   32  O16 UNL     1      31.701 -39.956 -23.526  1.00  0.00    -0.336 OA
HETATM   33  C21 UNL     1      32.099 -39.713 -24.829  1.00  0.00     0.208 C 
ENDBRANCH  22  32
BRANCH  23  34
HETATM   34  O17 UNL     1      34.785 -41.641 -23.222  1.00  0.00    -0.383 OA
ATOM     35  H17 UNL     1      35.326 -41.695 -24.001  1.00  0.00     0.210 HD
ENDBRANCH  23  34
ENDBRANCH  17  18
ENDBRANCH  14  17
BRANCH   1  36
HETATM   36  C2  UNL     1      32.639 -46.294 -26.023  1.00  0.00     0.264 C 
HETATM   37  O2  UNL     1      32.921 -46.408 -24.804  1.00  0.00    -0.265 OA
BRANCH  36  38
HETATM   38  O1  UNL     1      33.429 -47.016 -26.895  1.00  0.00    -0.326 OA
HETATM   39  C1  UNL     1      34.503 -47.821 -26.523  1.00  0.00     0.213 C 
ENDBRANCH  36  38
ENDBRANCH   1  36
BRANCH  12  40
HETATM   40  O9  UNL     1      30.661 -41.859 -28.460  1.00  0.00    -0.360 OA
ATOM     41  H9  UNL     1      31.421 -41.289 -28.474  1.00  0.00     0.217 HD
ENDBRANCH  12  40
BRANCH  15  42
HETATM   42  C25 UNL     1      31.625 -44.388 -28.696  1.00  0.00     0.193 C 
BRANCH  42  43
HETATM   43  O18 UNL     1      32.844 -44.830 -29.324  1.00  0.00    -0.321 OA
BRANCH  43  44
HETATM   44  C26 UNL     1      32.846 -45.627 -30.449  1.00  0.00     0.254 C 
HETATM   45  C27 UNL     1      32.968 -47.122 -30.339  1.00  0.00     0.126 C 
HETATM   46  O19 UNL     1      32.742 -45.064 -31.568  1.00  0.00    -0.266 OA
ENDBRANCH  43  44
ENDBRANCH  42  43
ENDBRANCH  15  42
BRANCH   8  47
HETATM   47  C11 UNL     1      28.329 -40.949 -27.288  1.00  0.00     0.227 C 
HETATM   48  O5  UNL     1      27.139 -40.752 -27.623  1.00  0.00    -0.645 OA
HETATM   49  O6  UNL     1      29.089 -39.784 -27.210  1.00  0.00    -0.645 OA
ENDBRANCH   8  47
BRANCH   6  50
HETATM   50  C9  UNL     1      25.881 -43.251 -27.611  1.00  0.00     0.196 C 
BRANCH  50  51
HETATM   51  O3  UNL     1      25.526 -43.053 -26.248  1.00  0.00    -0.398 OA
ATOM     52  H3  UNL     1      24.692 -42.599 -26.255  1.00  0.00     0.209 HD
ENDBRANCH  50  51
ENDBRANCH   6  50
TORSDOF 18
ENDMDL
MODEL 5
REMARK VINA RESULT: -6.389660386      2.603      7.529
REMARK  18 active torsions:
REMARK  status: ('A' for Active; 'I' for Inactive)
REMARK    1  A    between atoms: O1_2  and  C2_3 
REMARK    2  A    between atoms: C2_3  and  C3_5 
REMARK    3  A    between atoms: C8_10  and  C9_11 
REMARK    4  A    between atoms: C9_11  and  O3_12 
REMARK    5  A    between atoms: C10_15  and  C11_16 
REMARK    6  A    between atoms: C13_22  and  O9_23 
REMARK    7  A    between atoms: C15_26  and  O10_27 
REMARK    8  A    between atoms: O10_27  and  C16_28 
REMARK    9  A    between atoms: C17_30  and  C18_31 
REMARK   10  A    between atoms: C17_30  and  C19_34 
REMARK   11  A    between atoms: C18_31  and  O12_32 
REMARK   12  A    between atoms: C19_34  and  O13_35 
REMARK   13  A    between atoms: C20_38  and  O15_39 
REMARK   14  A    between atoms: C20_38  and  O16_41 
REMARK   15  A    between atoms: C22_43  and  O17_44 
REMARK   16  A    between atoms: C23_46  and  C25_48 
REMARK   17  A    between atoms: C25_48  and  O18_49 
REMARK   18  A    between atoms: O18_49  and  C26_50 
ROOT
HETATM    1  C3  UNL     1      34.383 -42.497 -23.989  1.00  0.00     0.109 C 
HETATM    2  C4  UNL     1      34.277 -43.223 -25.302  1.00  0.00     0.063 C 
HETATM    3  C5  UNL     1      33.247 -42.795 -26.256  1.00  0.00     0.139 C 
HETATM    4  C6  UNL     1      32.233 -41.799 -25.816  1.00  0.00     0.035 C 
HETATM    5  C7  UNL     1      30.846 -42.058 -26.392  1.00  0.00     0.036 C 
HETATM    6  C8  UNL     1      29.922 -42.697 -25.367  1.00  0.00     0.148 C 
HETATM    7  O4  UNL     1      30.431 -43.512 -24.464  1.00  0.00    -0.347 OA
HETATM    8  C10 UNL     1      31.016 -44.698 -24.670  1.00  0.00     0.286 C 
HETATM    9  C12 UNL     1      31.516 -44.731 -26.072  1.00  0.00     0.312 C 
HETATM   10  O7  UNL     1      31.012 -45.536 -26.861  1.00  0.00    -0.261 OA
HETATM   11  O8  UNL     1      32.509 -43.964 -26.668  1.00  0.00    -0.312 OA
HETATM   12  C13 UNL     1      32.060 -45.112 -23.679  1.00  0.00     0.104 C 
HETATM   13  C14 UNL     1      33.417 -44.693 -23.605  1.00  0.00    -0.006 C 
HETATM   14  C15 UNL     1      34.257 -44.664 -24.874  1.00  0.00     0.164 C 
HETATM   15  C23 UNL     1      33.915 -43.470 -22.914  1.00  0.00     0.020 C 
HETATM   16  C24 UNL     1      35.127 -43.757 -22.008  1.00  0.00     0.023 C 
ENDROOT
BRANCH  14  17
HETATM   17  O10 UNL     1      35.603 -44.996 -24.571  1.00  0.00    -0.348 OA
BRANCH  17  18
HETATM   18  C16 UNL     1      36.134 -45.997 -25.376  1.00  0.00     0.301 C 
HETATM   19  O11 UNL     1      36.460 -45.628 -26.616  1.00  0.00    -0.318 OA
HETATM   20  C17 UNL     1      36.901 -46.544 -27.491  1.00  0.00     0.214 C 
HETATM   21  O14 UNL     1      36.145 -47.711 -27.551  1.00  0.00    -0.289 OA
HETATM   22  C20 UNL     1      35.026 -47.714 -26.764  1.00  0.00     0.314 C 
HETATM   23  C22 UNL     1      35.222 -47.196 -25.372  1.00  0.00     0.266 C 
BRANCH  20  24
HETATM   24  C18 UNL     1      36.852 -45.844 -28.883  1.00  0.00     0.235 C 
BRANCH  24  25
HETATM   25  O12 UNL     1      36.747 -46.891 -29.801  1.00  0.00    -0.395 OA
ATOM     26  H12 UNL     1      35.971 -47.369 -29.532  1.00  0.00     0.209 HD
ENDBRANCH  24  25
ENDBRANCH  20  24
BRANCH  20  27
HETATM   27  C19 UNL     1      38.339 -46.970 -27.308  1.00  0.00     0.235 C 
BRANCH  27  28
HETATM   28  O13 UNL     1      39.183 -46.658 -28.336  1.00  0.00    -0.395 OA
ATOM     29  H13 UNL     1      39.218 -47.289 -29.045  1.00  0.00     0.209 HD
ENDBRANCH  27  28
ENDBRANCH  20  27
BRANCH  22  30
HETATM   30  O15 UNL     1      34.677 -49.087 -26.600  1.00  0.00    -0.341 OA
ATOM     31  H15 UNL     1      35.255 -49.568 -27.180  1.00  0.00     0.215 HD
ENDBRANCH  22  30
BRANCH  22  32
HETATM   32  O16 UNL     1      33.920 -47.103 -27.362  1.00  0.00    -0.336 OA
HETATM   33  C21 UNL     1      33.550 -47.717 -28.546  1.00  0.00     0.208 C 
ENDBRANCH  22  32
BRANCH  23  34
HETATM   34  O17 UNL     1      35.702 -48.196 -24.522  1.00  0.00    -0.383 OA
ATOM     35  H17 UNL     1      35.055 -48.880 -24.395  1.00  0.00     0.210 HD
ENDBRANCH  23  34
ENDBRANCH  17  18
ENDBRANCH  14  17
BRANCH   1  36
HETATM   36  C2  UNL     1      35.796 -42.034 -23.762  1.00  0.00     0.264 C 
HETATM   37  O2  UNL     1      36.036 -41.209 -22.847  1.00  0.00    -0.265 OA
BRANCH  36  38
HETATM   38  O1  UNL     1      36.886 -42.454 -24.497  1.00  0.00    -0.326 OA
HETATM   39  C1  UNL     1      38.172 -42.635 -23.992  1.00  0.00     0.213 C 
ENDBRANCH  36  38
ENDBRANCH   1  36
BRANCH  12  40
HETATM   40  O9  UNL     1      31.463 -45.024 -22.417  1.00  0.00    -0.360 OA
ATOM     41  H9  UNL     1      31.486 -44.106 -22.174  1.00  0.00     0.217 HD
ENDBRANCH  12  40
BRANCH  15  42
HETATM   42  C25 UNL     1      32.958 -42.798 -21.981  1.00  0.00     0.193 C 
BRANCH  42  43
HETATM   43  O18 UNL     1      33.200 -43.391 -20.690  1.00  0.00    -0.321 OA
BRANCH  43  44
HETATM   44  C26 UNL     1      32.372 -43.168 -19.611  1.00  0.00     0.254 C 
HETATM   45  C27 UNL     1      30.912 -42.863 -19.805  1.00  0.00     0.126 C 
HETATM   46  O19 UNL     1      32.877 -43.229 -18.461  1.00  0.00    -0.266 OA
ENDBRANCH  43  44
ENDBRANCH  42  43
ENDBRANCH  15  42
BRANCH   8  47
HETATM   47  C11 UNL     1      29.938 -45.738 -24.610  1.00  0.00     0.227 C 
HETATM   48  O5  UNL     1      28.814 -45.631 -25.150  1.00  0.00    -0.645 OA
HETATM   49  O6  UNL     1      30.119 -46.936 -23.925  1.00  0.00    -0.645 OA
ENDBRANCH   8  47
BRANCH   6  50
HETATM   50  C9  UNL     1      28.643 -42.988 -26.080  1.00  0.00     0.196 C 
BRANCH  50  51
HETATM   51  O3  UNL     1      27.611 -42.867 -25.108  1.00  0.00    -0.398 OA
ATOM     52  H3  UNL     1      27.677 -43.637 -24.555  1.00  0.00     0.209 HD
ENDBRANCH  50  51
ENDBRANCH   6  50
TORSDOF 18
ENDMDL
