MODEL 1
REMARK VINA RESULT: -8.187644482      0.000      0.000
REMARK  18 active torsions:
REMARK  status: ('A' for Active; 'I' for Inactive)
REMARK    1  A    between atoms: S1_2  and  C2_5 
REMARK    2  A    between atoms: N1_7  and  C4_8 
REMARK    3  A    between atoms: C5_9  and  C6_10 
REMARK    4  A    between atoms: C6_10  and  O3_11 
REMARK    5  A    between atoms: C6_10  and  C15_41 
REMARK    6  A    between atoms: O3_11  and  C7_12 
REMARK    7  A    between atoms: C7_12  and  C8_14 
REMARK    8  A    between atoms: C8_14  and  S2_15 
REMARK    9  A    between atoms: S2_15  and  C9_16 
REMARK   10  A    between atoms: C10_19  and  O5_20 
REMARK   11  A    between atoms: C11_22  and  C12_23 
REMARK   12  A    between atoms: C12_23  and  C13_24 
REMARK       I    between atoms: C13_24  and  N3_26 
REMARK   13  A    between atoms: N3_26  and  C14_28 
REMARK   14  A    between atoms: N8_37  and  N9_38 
REMARK   15  A    between atoms: C16_44  and  S3_45 
REMARK   16  A    between atoms: S3_45  and  N10_46 
REMARK   17  A    between atoms: C17_51  and  O11_52 
REMARK   18  A    between atoms: O11_52  and  C18_53 
ROOT
HETATM    1  C7  UNL     1      31.163 -41.251 -29.572  1.00  0.00     0.269 C 
HETATM    2  O4  UNL     1      32.003 -41.079 -30.500  1.00  0.00    -0.264 OA
ENDROOT
BRANCH   1   3
HETATM    3  O3  UNL     1      29.830 -41.067 -29.904  1.00  0.00    -0.300 OA
BRANCH   3   4
HETATM    4  C6  UNL     1      28.968 -40.203 -29.227  1.00  0.00     0.256 C 
BRANCH   4   5
HETATM    5  C5  UNL     1      27.721 -40.989 -28.909  1.00  0.00     0.034 C 
HETATM    6  C4  UNL     1      27.683 -42.264 -29.110  1.00  0.00     0.096 C 
BRANCH   6   7
HETATM    7  N1  UNL     1      26.650 -43.202 -28.899  1.00  0.00    -0.318 N 
HETATM    8  C3  UNL     1      25.748 -43.483 -29.895  1.00  0.00     0.123 A 
HETATM    9  C2  UNL     1      24.832 -44.396 -29.491  1.00  0.00     0.111 A 
HETATM   10  C17 UNL     1      25.147 -44.710 -28.208  1.00  0.00     0.144 A 
HETATM   11  C16 UNL     1      26.282 -43.954 -27.860  1.00  0.00     0.191 A 
BRANCH   9  12
HETATM   12  S1  UNL     1      23.514 -45.031 -30.474  1.00  0.00     0.176 S 
HETATM   13  C1  UNL     1      24.106 -46.419 -31.419  1.00  0.00     0.167 C 
HETATM   14  O1  UNL     1      23.094 -43.972 -31.483  1.00  0.00    -0.223 OA
HETATM   15  O2  UNL     1      22.316 -45.388 -29.662  1.00  0.00    -0.223 OA
ENDBRANCH   9  12
BRANCH  10  16
HETATM   16  O11 UNL     1      24.438 -45.621 -27.437  1.00  0.00    -0.259 OA
BRANCH  16  17
HETATM   17  C18 UNL     1      24.653 -46.998 -27.533  1.00  0.00     0.378 C 
HETATM   18  N11 UNL     1      25.572 -47.632 -26.667  1.00  0.00    -0.032 NA
HETATM   19  O12 UNL     1      24.023 -47.683 -28.401  1.00  0.00    -0.242 OA
ENDBRANCH  16  17
ENDBRANCH  10  16
BRANCH  11  20
HETATM   20  S3  UNL     1      26.980 -43.999 -26.284  1.00  0.00     0.275 S 
HETATM   21  O9  UNL     1      26.197 -42.992 -25.390  1.00  0.00    -0.199 OA
HETATM   22  O10 UNL     1      28.377 -43.465 -26.193  1.00  0.00    -0.199 OA
BRANCH  20  23
HETATM   23  N10 UNL     1      26.754 -45.497 -25.456  1.00  0.00    -0.323 N 
ATOM     24 2H10 UNL     1      25.989 -46.133 -25.684  1.00  0.00     0.169 HD
ATOM     25 1H10 UNL     1      27.448 -45.681 -24.732  1.00  0.00     0.169 HD
ENDBRANCH  20  23
ENDBRANCH  11  20
ENDBRANCH   6   7
ENDBRANCH   4   5
BRANCH   4  26
HETATM   26  C15 UNL     1      28.688 -38.954 -29.944  1.00  0.00     0.207 C 
HETATM   27  O7  UNL     1      28.497 -37.857 -29.361  1.00  0.00    -0.646 OA
HETATM   28  O8  UNL     1      28.615 -38.911 -31.343  1.00  0.00    -0.646 OA
ENDBRANCH   4  26
ENDBRANCH   3   4
ENDBRANCH   1   3
BRANCH   1  29
HETATM   29  C8  UNL     1      31.620 -41.630 -28.213  1.00  0.00     0.193 C 
BRANCH  29  30
HETATM   30  S2  UNL     1      31.895 -40.217 -27.128  1.00  0.00    -0.082 SA
BRANCH  30  31
HETATM   31  C9  UNL     1      31.023 -40.533 -25.589  1.00  0.00     0.168 A 
HETATM   32  N2  UNL     1      29.722 -40.934 -25.488  1.00  0.00    -0.314 N 
HETATM   33  C10 UNL     1      29.390 -41.079 -24.194  1.00  0.00     0.167 A 
ATOM     34  H2  UNL     1      29.096 -41.098 -26.277  1.00  0.00     0.170 HD
HETATM   35  C11 UNL     1      30.515 -40.763 -23.440  1.00  0.00     0.095 A 
HETATM   36  N8  UNL     1      31.479 -40.439 -24.329  1.00  0.00    -0.240 N 
BRANCH  33  37
HETATM   37  O5  UNL     1      28.135 -41.476 -23.753  1.00  0.00    -0.345 OA
ATOM     38  H5  UNL     1      27.785 -41.276 -22.893  1.00  0.00     0.219 HD
ENDBRANCH  33  37
BRANCH  35  39
HETATM   39  C12 UNL     1      30.595 -40.784 -21.957  1.00  0.00     0.167 C 
BRANCH  39  40
HETATM   40  C13 UNL     1      30.414 -42.135 -21.410  1.00  0.00     0.241 C 
HETATM   41  O6  UNL     1      31.101 -43.084 -21.848  1.00  0.00    -0.272 OA
HETATM   42  N3  UNL     1      29.461 -42.348 -20.391  1.00  0.00    -0.157 N 
ATOM     43  H3  UNL     1      28.494 -42.056 -20.537  1.00  0.00     0.187 HD
BRANCH  42  44
HETATM   44  C14 UNL     1      29.799 -42.913 -19.266  1.00  0.00     0.716 A 
HETATM   45  N4  UNL     1      28.935 -43.204 -18.251  1.00  0.00    -0.115 N 
HETATM   46  N5  UNL     1      29.669 -43.765 -17.306  1.00  0.00    -0.213 N 
ATOM     47  H4  UNL     1      27.932 -43.025 -18.227  1.00  0.00     0.207 HD
HETATM   48  N6  UNL     1      30.927 -43.837 -17.673  1.00  0.00    -0.213 N 
ATOM     49  H5  UNL     1      29.306 -44.097 -16.413  1.00  0.00     0.210 HD
HETATM   50  N7  UNL     1      31.009 -43.309 -18.888  1.00  0.00    -0.115 N 
ATOM     51  H6  UNL     1      31.697 -44.226 -17.128  1.00  0.00     0.210 HD
ATOM     52  H7  UNL     1      31.861 -43.223 -19.442  1.00  0.00     0.207 HD
ENDBRANCH  42  44
ENDBRANCH  39  40
ENDBRANCH  35  39
BRANCH  36  53
HETATM   53  N9  UNL     1      32.778 -40.062 -23.962  1.00  0.00    -0.336 N 
ATOM     54  H92 UNL     1      33.012 -39.641 -23.063  1.00  0.00     0.177 HD
ATOM     55  H91 UNL     1      33.610 -40.170 -24.543  1.00  0.00     0.177 HD
ENDBRANCH  36  53
ENDBRANCH  30  31
ENDBRANCH  29  30
ENDBRANCH   1  29
TORSDOF 18
ENDMDL
MODEL 2
REMARK VINA RESULT: -7.871694341      5.141     10.488
REMARK  18 active torsions:
REMARK  status: ('A' for Active; 'I' for Inactive)
REMARK    1  A    between atoms: S1_2  and  C2_5 
REMARK    2  A    between atoms: N1_7  and  C4_8 
REMARK    3  A    between atoms: C5_9  and  C6_10 
REMARK    4  A    between atoms: C6_10  and  O3_11 
REMARK    5  A    between atoms: C6_10  and  C15_41 
REMARK    6  A    between atoms: O3_11  and  C7_12 
REMARK    7  A    between atoms: C7_12  and  C8_14 
REMARK    8  A    between atoms: C8_14  and  S2_15 
REMARK    9  A    between atoms: S2_15  and  C9_16 
REMARK   10  A    between atoms: C10_19  and  O5_20 
REMARK   11  A    between atoms: C11_22  and  C12_23 
REMARK   12  A    between atoms: C12_23  and  C13_24 
REMARK       I    between atoms: C13_24  and  N3_26 
REMARK   13  A    between atoms: N3_26  and  C14_28 
REMARK   14  A    between atoms: N8_37  and  N9_38 
REMARK   15  A    between atoms: C16_44  and  S3_45 
REMARK   16  A    between atoms: S3_45  and  N10_46 
REMARK   17  A    between atoms: C17_51  and  O11_52 
REMARK   18  A    between atoms: O11_52  and  C18_53 
ROOT
HETATM    1  C7  UNL     1      30.129 -42.260 -23.869  1.00  0.00     0.269 C 
HETATM    2  O4  UNL     1      28.971 -41.810 -23.640  1.00  0.00    -0.264 OA
ENDROOT
BRANCH   1   3
HETATM    3  O3  UNL     1      30.631 -43.168 -22.949  1.00  0.00    -0.300 OA
BRANCH   3   4
HETATM    4  C6  UNL     1      31.674 -42.890 -22.065  1.00  0.00     0.256 C 
BRANCH   4   5
HETATM    5  C5  UNL     1      32.688 -43.995 -22.223  1.00  0.00     0.034 C 
HETATM    6  C4  UNL     1      33.610 -43.912 -23.123  1.00  0.00     0.096 C 
BRANCH   6   7
HETATM    7  N1  UNL     1      34.652 -44.802 -23.462  1.00  0.00    -0.318 N 
HETATM    8  C3  UNL     1      35.871 -44.723 -22.833  1.00  0.00     0.123 A 
HETATM    9  C2  UNL     1      36.734 -45.652 -23.308  1.00  0.00     0.111 A 
HETATM   10  C17 UNL     1      36.062 -46.346 -24.263  1.00  0.00     0.144 A 
HETATM   11  C16 UNL     1      34.768 -45.799 -24.342  1.00  0.00     0.191 A 
BRANCH   9  12
HETATM   12  S1  UNL     1      38.392 -45.887 -22.758  1.00  0.00     0.176 S 
HETATM   13  C1  UNL     1      38.684 -44.865 -21.329  1.00  0.00     0.167 C 
HETATM   14  O1  UNL     1      39.346 -45.398 -23.837  1.00  0.00    -0.223 OA
HETATM   15  O2  UNL     1      38.706 -47.319 -22.485  1.00  0.00    -0.223 OA
ENDBRANCH   9  12
BRANCH  10  16
HETATM   16  O11 UNL     1      36.609 -47.394 -24.990  1.00  0.00    -0.259 OA
BRANCH  16  17
HETATM   17  C18 UNL     1      37.393 -47.178 -26.126  1.00  0.00     0.378 C 
HETATM   18  N11 UNL     1      36.877 -46.427 -27.206  1.00  0.00    -0.032 NA
HETATM   19  O12 UNL     1      38.570 -47.657 -26.191  1.00  0.00    -0.242 OA
ENDBRANCH  16  17
ENDBRANCH  10  16
BRANCH  11  20
HETATM   20  S3  UNL     1      33.597 -46.345 -25.485  1.00  0.00     0.275 S 
HETATM   21  O9  UNL     1      33.559 -45.316 -26.652  1.00  0.00    -0.199 OA
HETATM   22  O10 UNL     1      32.178 -46.313 -25.003  1.00  0.00    -0.199 OA
BRANCH  20  23
HETATM   23  N10 UNL     1      34.026 -47.813 -26.285  1.00  0.00    -0.323 N 
ATOM     24 2H10 UNL     1      34.920 -48.277 -26.123  1.00  0.00     0.169 HD
ATOM     25 1H10 UNL     1      33.312 -48.164 -26.922  1.00  0.00     0.169 HD
ENDBRANCH  20  23
ENDBRANCH  11  20
ENDBRANCH   6   7
ENDBRANCH   4   5
BRANCH   4  26
HETATM   26  C15 UNL     1      31.246 -42.703 -20.675  1.00  0.00     0.207 C 
HETATM   27  O7  UNL     1      32.027 -42.817 -19.696  1.00  0.00    -0.646 OA
HETATM   28  O8  UNL     1      29.921 -42.383 -20.351  1.00  0.00    -0.646 OA
ENDBRANCH   4  26
ENDBRANCH   3   4
ENDBRANCH   1   3
BRANCH   1  29
HETATM   29  C8  UNL     1      30.879 -41.816 -25.068  1.00  0.00     0.193 C 
BRANCH  29  30
HETATM   30  S2  UNL     1      30.478 -42.754 -26.554  1.00  0.00    -0.082 SA
BRANCH  30  31
HETATM   31  C9  UNL     1      28.800 -43.371 -26.373  1.00  0.00     0.168 A 
HETATM   32  N2  UNL     1      27.665 -42.644 -26.592  1.00  0.00    -0.314 N 
HETATM   33  C10 UNL     1      26.584 -43.410 -26.367  1.00  0.00     0.167 A 
ATOM     34  H2  UNL     1      27.641 -41.667 -26.884  1.00  0.00     0.170 HD
HETATM   35  C11 UNL     1      27.040 -44.670 -25.992  1.00  0.00     0.095 A 
HETATM   36  N8  UNL     1      28.389 -44.597 -26.010  1.00  0.00    -0.240 N 
BRANCH  33  37
HETATM   37  O5  UNL     1      25.275 -42.968 -26.501  1.00  0.00    -0.345 OA
ATOM     38  H5  UNL     1      24.620 -43.399 -27.036  1.00  0.00     0.219 HD
ENDBRANCH  33  37
BRANCH  35  39
HETATM   39  C12 UNL     1      26.182 -45.830 -25.642  1.00  0.00     0.167 C 
BRANCH  39  40
HETATM   40  C13 UNL     1      25.641 -46.500 -26.832  1.00  0.00     0.241 C 
HETATM   41  O6  UNL     1      25.581 -47.748 -26.874  1.00  0.00    -0.272 OA
HETATM   42  N3  UNL     1      25.192 -45.722 -27.921  1.00  0.00    -0.157 N 
ATOM     43  H3  UNL     1      25.819 -45.035 -28.341  1.00  0.00     0.187 HD
BRANCH  42  44
HETATM   44  C14 UNL     1      23.988 -45.870 -28.398  1.00  0.00     0.716 A 
HETATM   45  N4  UNL     1      23.279 -44.894 -29.035  1.00  0.00    -0.115 N 
HETATM   46  N5  UNL     1      22.122 -45.445 -29.357  1.00  0.00    -0.213 N 
ATOM     47  H4  UNL     1      23.580 -43.938 -29.223  1.00  0.00     0.207 HD
HETATM   48  N6  UNL     1      22.073 -46.695 -28.959  1.00  0.00    -0.213 N 
ATOM     49  H5  UNL     1      21.370 -44.964 -29.850  1.00  0.00     0.210 HD
HETATM   50  N7  UNL     1      23.230 -46.959 -28.364  1.00  0.00    -0.115 N 
ATOM     51  H6  UNL     1      21.294 -47.341 -29.084  1.00  0.00     0.210 HD
ATOM     52  H7  UNL     1      23.493 -47.852 -27.949  1.00  0.00     0.207 HD
ENDBRANCH  42  44
ENDBRANCH  39  40
ENDBRANCH  35  39
BRANCH  36  53
HETATM   53  N9  UNL     1      29.228 -45.673 -25.693  1.00  0.00    -0.336 N 
ATOM     54  H92 UNL     1      30.122 -45.571 -25.212  1.00  0.00     0.177 HD
ATOM     55  H91 UNL     1      29.036 -46.653 -25.902  1.00  0.00     0.177 HD
ENDBRANCH  36  53
ENDBRANCH  30  31
ENDBRANCH  29  30
ENDBRANCH   1  29
TORSDOF 18
ENDMDL
MODEL 3
REMARK VINA RESULT: -7.803080112      6.187     11.735
REMARK  18 active torsions:
REMARK  status: ('A' for Active; 'I' for Inactive)
REMARK    1  A    between atoms: S1_2  and  C2_5 
REMARK    2  A    between atoms: N1_7  and  C4_8 
REMARK    3  A    between atoms: C5_9  and  C6_10 
REMARK    4  A    between atoms: C6_10  and  O3_11 
REMARK    5  A    between atoms: C6_10  and  C15_41 
REMARK    6  A    between atoms: O3_11  and  C7_12 
REMARK    7  A    between atoms: C7_12  and  C8_14 
REMARK    8  A    between atoms: C8_14  and  S2_15 
REMARK    9  A    between atoms: S2_15  and  C9_16 
REMARK   10  A    between atoms: C10_19  and  O5_20 
REMARK   11  A    between atoms: C11_22  and  C12_23 
REMARK   12  A    between atoms: C12_23  and  C13_24 
REMARK       I    between atoms: C13_24  and  N3_26 
REMARK   13  A    between atoms: N3_26  and  C14_28 
REMARK   14  A    between atoms: N8_37  and  N9_38 
REMARK   15  A    between atoms: C16_44  and  S3_45 
REMARK   16  A    between atoms: S3_45  and  N10_46 
REMARK   17  A    between atoms: C17_51  and  O11_52 
REMARK   18  A    between atoms: O11_52  and  C18_53 
ROOT
HETATM    1  C7  UNL     1      30.533 -45.030 -26.756  1.00  0.00     0.269 C 
HETATM    2  O4  UNL     1      31.240 -44.995 -27.803  1.00  0.00    -0.264 OA
ENDROOT
BRANCH   1   3
HETATM    3  O3  UNL     1      31.144 -45.526 -25.615  1.00  0.00    -0.300 OA
BRANCH   3   4
HETATM    4  C6  UNL     1      31.823 -44.738 -24.686  1.00  0.00     0.256 C 
BRANCH   4   5
HETATM    5  C5  UNL     1      33.296 -44.906 -24.963  1.00  0.00     0.034 C 
HETATM    6  C4  UNL     1      33.869 -46.048 -24.779  1.00  0.00     0.096 C 
BRANCH   6   7
HETATM    7  N1  UNL     1      35.211 -46.448 -24.960  1.00  0.00    -0.318 N 
HETATM    8  C3  UNL     1      36.180 -46.070 -24.063  1.00  0.00     0.123 A 
HETATM    9  C2  UNL     1      37.397 -46.544 -24.421  1.00  0.00     0.111 A 
HETATM   10  C17 UNL     1      37.213 -47.240 -25.572  1.00  0.00     0.144 A 
HETATM   11  C16 UNL     1      35.844 -47.167 -25.890  1.00  0.00     0.191 A 
BRANCH   9  12
HETATM   12  S1  UNL     1      38.898 -46.290 -23.533  1.00  0.00     0.176 S 
HETATM   13  C1  UNL     1      38.514 -45.739 -21.883  1.00  0.00     0.167 C 
HETATM   14  O1  UNL     1      39.679 -45.162 -24.190  1.00  0.00    -0.223 OA
HETATM   15  O2  UNL     1      39.768 -47.500 -23.521  1.00  0.00    -0.223 OA
ENDBRANCH   9  12
BRANCH  10  16
HETATM   16  O11 UNL     1      38.232 -47.886 -26.259  1.00  0.00    -0.259 OA
BRANCH  16  17
HETATM   17  C18 UNL     1      39.101 -47.200 -27.111  1.00  0.00     0.378 C 
HETATM   18  N11 UNL     1      40.489 -47.195 -26.850  1.00  0.00    -0.032 NA
HETATM   19  O12 UNL     1      38.644 -46.578 -28.123  1.00  0.00    -0.242 OA
ENDBRANCH  16  17
ENDBRANCH  10  16
BRANCH  11  20
HETATM   20  S3  UNL     1      35.184 -47.865 -27.321  1.00  0.00     0.275 S 
HETATM   21  O9  UNL     1      33.778 -47.237 -27.550  1.00  0.00    -0.199 OA
HETATM   22  O10 UNL     1      34.853 -49.324 -27.221  1.00  0.00    -0.199 OA
BRANCH  20  23
HETATM   23  N10 UNL     1      36.029 -47.443 -28.766  1.00  0.00    -0.323 N 
ATOM     24 2H10 UNL     1      35.848 -46.572 -29.265  1.00  0.00     0.169 HD
ATOM     25 1H10 UNL     1      36.715 -48.136 -29.065  1.00  0.00     0.169 HD
ENDBRANCH  20  23
ENDBRANCH  11  20
ENDBRANCH   6   7
ENDBRANCH   4   5
BRANCH   4  26
HETATM   26  C15 UNL     1      31.469 -45.019 -23.290  1.00  0.00     0.207 C 
HETATM   27  O7  UNL     1      31.748 -44.242 -22.342  1.00  0.00    -0.646 OA
HETATM   28  O8  UNL     1      30.790 -46.189 -22.926  1.00  0.00    -0.646 OA
ENDBRANCH   4  26
ENDBRANCH   3   4
ENDBRANCH   1   3
BRANCH   1  29
HETATM   29  C8  UNL     1      29.128 -44.556 -26.788  1.00  0.00     0.193 C 
BRANCH  29  30
HETATM   30  S2  UNL     1      28.006 -45.569 -25.806  1.00  0.00    -0.082 SA
BRANCH  30  31
HETATM   31  C9  UNL     1      26.474 -45.736 -26.730  1.00  0.00     0.168 A 
HETATM   32  N2  UNL     1      25.956 -46.911 -27.192  1.00  0.00    -0.314 N 
HETATM   33  C10 UNL     1      24.801 -46.676 -27.838  1.00  0.00     0.167 A 
ATOM     34  H2  UNL     1      26.381 -47.830 -27.065  1.00  0.00     0.170 HD
HETATM   35  C11 UNL     1      24.570 -45.305 -27.788  1.00  0.00     0.095 A 
HETATM   36  N8  UNL     1      25.610 -44.778 -27.107  1.00  0.00    -0.240 N 
BRANCH  33  37
HETATM   37  O5  UNL     1      24.024 -47.664 -28.427  1.00  0.00    -0.345 OA
ATOM     38  H5  UNL     1      23.353 -48.157 -27.970  1.00  0.00     0.219 HD
ENDBRANCH  33  37
BRANCH  35  39
HETATM   39  C12 UNL     1      23.405 -44.603 -28.383  1.00  0.00     0.167 C 
BRANCH  39  40
HETATM   40  C13 UNL     1      23.103 -45.079 -29.740  1.00  0.00     0.241 C 
HETATM   41  O6  UNL     1      23.957 -44.964 -30.646  1.00  0.00    -0.272 OA
HETATM   42  N3  UNL     1      21.846 -45.662 -30.006  1.00  0.00    -0.157 N 
ATOM     43  H3  UNL     1      20.994 -45.150 -29.776  1.00  0.00     0.187 HD
BRANCH  42  44
HETATM   44  C14 UNL     1      21.759 -46.847 -30.542  1.00  0.00     0.716 A 
HETATM   45  N4  UNL     1      22.243 -47.181 -31.773  1.00  0.00    -0.115 N 
HETATM   46  N5  UNL     1      21.955 -48.460 -31.936  1.00  0.00    -0.213 N 
ATOM     47  H4  UNL     1      22.727 -46.570 -32.431  1.00  0.00     0.207 HD
HETATM   48  N6  UNL     1      21.325 -48.934 -30.887  1.00  0.00    -0.213 N 
ATOM     49  H5  UNL     1      22.191 -49.006 -32.765  1.00  0.00     0.210 HD
HETATM   50  N7  UNL     1      21.203 -47.934 -30.022  1.00  0.00    -0.115 N 
ATOM     51  H6  UNL     1      20.991 -49.890 -30.759  1.00  0.00     0.210 HD
ATOM     52  H7  UNL     1      20.755 -47.992 -29.107  1.00  0.00     0.207 HD
ENDBRANCH  42  44
ENDBRANCH  39  40
ENDBRANCH  35  39
BRANCH  36  53
HETATM   53  N9  UNL     1      25.747 -43.410 -26.836  1.00  0.00    -0.336 N 
ATOM     54  H92 UNL     1      25.175 -42.908 -26.157  1.00  0.00     0.177 HD
ATOM     55  H91 UNL     1      26.423 -42.786 -27.277  1.00  0.00     0.177 HD
ENDBRANCH  36  53
ENDBRANCH  30  31
ENDBRANCH  29  30
ENDBRANCH   1  29
TORSDOF 18
ENDMDL
MODEL 4
REMARK VINA RESULT: -7.741575157      4.535     10.139
REMARK  18 active torsions:
REMARK  status: ('A' for Active; 'I' for Inactive)
REMARK    1  A    between atoms: S1_2  and  C2_5 
REMARK    2  A    between atoms: N1_7  and  C4_8 
REMARK    3  A    between atoms: C5_9  and  C6_10 
REMARK    4  A    between atoms: C6_10  and  O3_11 
REMARK    5  A    between atoms: C6_10  and  C15_41 
REMARK    6  A    between atoms: O3_11  and  C7_12 
REMARK    7  A    between atoms: C7_12  and  C8_14 
REMARK    8  A    between atoms: C8_14  and  S2_15 
REMARK    9  A    between atoms: S2_15  and  C9_16 
REMARK   10  A    between atoms: C10_19  and  O5_20 
REMARK   11  A    between atoms: C11_22  and  C12_23 
REMARK   12  A    between atoms: C12_23  and  C13_24 
REMARK       I    between atoms: C13_24  and  N3_26 
REMARK   13  A    between atoms: N3_26  and  C14_28 
REMARK   14  A    between atoms: N8_37  and  N9_38 
REMARK   15  A    between atoms: C16_44  and  S3_45 
REMARK   16  A    between atoms: S3_45  and  N10_46 
REMARK   17  A    between atoms: C17_51  and  O11_52 
REMARK   18  A    between atoms: O11_52  and  C18_53 
ROOT
HETATM    1  C7  UNL     1      27.314 -42.479 -25.777  1.00  0.00     0.269 C 
HETATM    2  O4  UNL     1      27.190 -41.728 -24.769  1.00  0.00    -0.264 OA
ENDROOT
BRANCH   1   3
HETATM    3  O3  UNL     1      28.377 -42.206 -26.624  1.00  0.00    -0.300 OA
BRANCH   3   4
HETATM    4  C6  UNL     1      28.767 -43.029 -27.680  1.00  0.00     0.256 C 
BRANCH   4   5
HETATM    5  C5  UNL     1      30.155 -43.523 -27.360  1.00  0.00     0.034 C 
HETATM    6  C4  UNL     1      30.329 -44.689 -26.831  1.00  0.00     0.096 C 
BRANCH   6   7
HETATM    7  N1  UNL     1      31.508 -45.360 -26.443  1.00  0.00    -0.318 N 
HETATM    8  C3  UNL     1      32.170 -46.177 -27.327  1.00  0.00     0.123 A 
HETATM    9  C2  UNL     1      33.266 -46.735 -26.760  1.00  0.00     0.111 A 
HETATM   10  C17 UNL     1      33.314 -46.272 -25.484  1.00  0.00     0.144 A 
HETATM   11  C16 UNL     1      32.209 -45.418 -25.309  1.00  0.00     0.191 A 
BRANCH   9  12
HETATM   12  S1  UNL     1      34.389 -47.833 -27.561  1.00  0.00     0.176 S 
HETATM   13  C1  UNL     1      35.750 -46.895 -28.224  1.00  0.00     0.167 C 
HETATM   14  O1  UNL     1      33.690 -48.474 -28.751  1.00  0.00    -0.223 OA
HETATM   15  O2  UNL     1      34.858 -48.926 -26.663  1.00  0.00    -0.223 OA
ENDBRANCH   9  12
BRANCH  10  16
HETATM   16  O11 UNL     1      34.302 -46.616 -24.571  1.00  0.00    -0.259 OA
BRANCH  16  17
HETATM   17  C18 UNL     1      35.586 -46.070 -24.630  1.00  0.00     0.378 C 
HETATM   18  N11 UNL     1      35.755 -44.675 -24.774  1.00  0.00    -0.032 NA
HETATM   19  O12 UNL     1      36.606 -46.828 -24.554  1.00  0.00    -0.242 OA
ENDBRANCH  16  17
ENDBRANCH  10  16
BRANCH  11  20
HETATM   20  S3  UNL     1      31.850 -44.663 -23.801  1.00  0.00     0.275 S 
HETATM   21  O9  UNL     1      31.137 -45.715 -22.902  1.00  0.00    -0.199 OA
HETATM   22  O10 UNL     1      30.824 -43.572 -23.866  1.00  0.00    -0.199 OA
BRANCH  20  23
HETATM   23  N10 UNL     1      33.244 -44.250 -22.870  1.00  0.00    -0.323 N 
ATOM     24 2H10 UNL     1      33.285 -44.396 -21.862  1.00  0.00     0.169 HD
ATOM     25 1H10 UNL     1      34.007 -43.853 -23.418  1.00  0.00     0.169 HD
ENDBRANCH  20  23
ENDBRANCH  11  20
ENDBRANCH   6   7
ENDBRANCH   4   5
BRANCH   4  26
HETATM   26  C15 UNL     1      28.678 -42.393 -28.999  1.00  0.00     0.207 C 
HETATM   27  O7  UNL     1      27.648 -41.795 -29.403  1.00  0.00    -0.646 OA
HETATM   28  O8  UNL     1      29.751 -42.417 -29.900  1.00  0.00    -0.646 OA
ENDBRANCH   4  26
ENDBRANCH   3   4
ENDBRANCH   1   3
BRANCH   1  29
HETATM   29  C8  UNL     1      26.351 -43.583 -26.008  1.00  0.00     0.193 C 
BRANCH  29  30
HETATM   30  S2  UNL     1      25.089 -43.190 -27.234  1.00  0.00    -0.082 SA
BRANCH  30  31
HETATM   31  C9  UNL     1      24.851 -44.648 -28.257  1.00  0.00     0.168 A 
HETATM   32  N2  UNL     1      24.347 -45.841 -27.824  1.00  0.00    -0.314 N 
HETATM   33  C10 UNL     1      24.303 -46.714 -28.846  1.00  0.00     0.167 A 
ATOM     34  H2  UNL     1      24.048 -46.040 -26.869  1.00  0.00     0.170 HD
HETATM   35  C11 UNL     1      24.794 -46.059 -29.970  1.00  0.00     0.095 A 
HETATM   36  N8  UNL     1      25.113 -44.811 -29.565  1.00  0.00    -0.240 N 
BRANCH  33  37
HETATM   37  O5  UNL     1      23.841 -48.018 -28.735  1.00  0.00    -0.345 OA
ATOM     38  H5  UNL     1      22.944 -48.281 -28.907  1.00  0.00     0.219 HD
ENDBRANCH  33  37
BRANCH  35  39
HETATM   39  C12 UNL     1      24.930 -46.653 -31.325  1.00  0.00     0.167 C 
BRANCH  39  40
HETATM   40  C13 UNL     1      23.627 -46.889 -31.961  1.00  0.00     0.241 C 
HETATM   41  O6  UNL     1      23.569 -47.176 -33.177  1.00  0.00    -0.272 OA
HETATM   42  N3  UNL     1      22.450 -46.789 -31.190  1.00  0.00    -0.157 N 
ATOM     43  H3  UNL     1      22.266 -45.937 -30.660  1.00  0.00     0.187 HD
BRANCH  42  44
HETATM   44  C14 UNL     1      21.595 -47.772 -31.144  1.00  0.00     0.716 A 
HETATM   45  N4  UNL     1      20.789 -48.053 -30.080  1.00  0.00    -0.115 N 
HETATM   46  N5  UNL     1      20.081 -49.110 -30.436  1.00  0.00    -0.213 N 
ATOM     47  H4  UNL     1      20.743 -47.551 -29.193  1.00  0.00     0.207 HD
HETATM   48  N6  UNL     1      20.400 -49.498 -31.649  1.00  0.00    -0.213 N 
ATOM     49  H5  UNL     1      19.382 -49.563 -29.848  1.00  0.00     0.210 HD
HETATM   50  N7  UNL     1      21.338 -48.668 -32.088  1.00  0.00    -0.115 N 
ATOM     51  H6  UNL     1      20.001 -50.287 -32.158  1.00  0.00     0.210 HD
ATOM     52  H7  UNL     1      21.788 -48.713 -33.003  1.00  0.00     0.207 HD
ENDBRANCH  42  44
ENDBRANCH  39  40
ENDBRANCH  35  39
BRANCH  36  53
HETATM   53  N9  UNL     1      25.641 -43.830 -30.414  1.00  0.00    -0.336 N 
ATOM     54  H92 UNL     1      25.151 -42.969 -30.657  1.00  0.00     0.177 HD
ATOM     55  H91 UNL     1      26.556 -43.870 -30.866  1.00  0.00     0.177 HD
ENDBRANCH  36  53
ENDBRANCH  30  31
ENDBRANCH  29  30
ENDBRANCH   1  29
TORSDOF 18
ENDMDL
MODEL 5
REMARK VINA RESULT: -7.683835269      2.870      4.478
REMARK  18 active torsions:
REMARK  status: ('A' for Active; 'I' for Inactive)
REMARK    1  A    between atoms: S1_2  and  C2_5 
REMARK    2  A    between atoms: N1_7  and  C4_8 
REMARK    3  A    between atoms: C5_9  and  C6_10 
REMARK    4  A    between atoms: C6_10  and  O3_11 
REMARK    5  A    between atoms: C6_10  and  C15_41 
REMARK    6  A    between atoms: O3_11  and  C7_12 
REMARK    7  A    between atoms: C7_12  and  C8_14 
REMARK    8  A    between atoms: C8_14  and  S2_15 
REMARK    9  A    between atoms: S2_15  and  C9_16 
REMARK   10  A    between atoms: C10_19  and  O5_20 
REMARK   11  A    between atoms: C11_22  and  C12_23 
REMARK   12  A    between atoms: C12_23  and  C13_24 
REMARK       I    between atoms: C13_24  and  N3_26 
REMARK   13  A    between atoms: N3_26  and  C14_28 
REMARK   14  A    between atoms: N8_37  and  N9_38 
REMARK   15  A    between atoms: C16_44  and  S3_45 
REMARK   16  A    between atoms: S3_45  and  N10_46 
REMARK   17  A    between atoms: C17_51  and  O11_52 
REMARK   18  A    between atoms: O11_52  and  C18_53 
ROOT
HETATM    1  C7  UNL     1      27.766 -44.459 -25.982  1.00  0.00     0.269 C 
HETATM    2  O4  UNL     1      26.744 -44.639 -25.262  1.00  0.00    -0.264 OA
ENDROOT
BRANCH   1   3
HETATM    3  O3  UNL     1      27.925 -43.192 -26.521  1.00  0.00    -0.300 OA
BRANCH   3   4
HETATM    4  C6  UNL     1      26.879 -42.424 -27.033  1.00  0.00     0.256 C 
BRANCH   4   5
HETATM    5  C5  UNL     1      26.679 -42.855 -28.464  1.00  0.00     0.034 C 
HETATM    6  C4  UNL     1      25.625 -43.518 -28.806  1.00  0.00     0.096 C 
BRANCH   6   7
HETATM    7  N1  UNL     1      25.221 -44.027 -30.059  1.00  0.00    -0.318 N 
HETATM    8  C3  UNL     1      26.012 -43.861 -31.169  1.00  0.00     0.123 A 
HETATM    9  C2  UNL     1      25.442 -44.409 -32.269  1.00  0.00     0.111 A 
HETATM   10  C17 UNL     1      24.260 -44.939 -31.864  1.00  0.00     0.144 A 
HETATM   11  C16 UNL     1      24.142 -44.689 -30.484  1.00  0.00     0.191 A 
BRANCH   9  12
HETATM   12  S1  UNL     1      26.140 -44.418 -33.888  1.00  0.00     0.176 S 
HETATM   13  C1  UNL     1      26.193 -46.093 -34.491  1.00  0.00     0.167 C 
HETATM   14  O1  UNL     1      27.583 -43.945 -33.809  1.00  0.00    -0.223 OA
HETATM   15  O2  UNL     1      25.415 -43.517 -34.828  1.00  0.00    -0.223 OA
ENDBRANCH   9  12
BRANCH  10  16
HETATM   16  O11 UNL     1      23.375 -45.597 -32.707  1.00  0.00    -0.259 OA
BRANCH  16  17
HETATM   17  C18 UNL     1      22.488 -44.905 -33.535  1.00  0.00     0.378 C 
HETATM   18  N11 UNL     1      22.437 -45.197 -34.916  1.00  0.00    -0.032 NA
HETATM   19  O12 UNL     1      21.724 -44.012 -33.046  1.00  0.00    -0.242 OA
ENDBRANCH  16  17
ENDBRANCH  10  16
BRANCH  11  20
HETATM   20  S3  UNL     1      22.748 -45.139 -29.574  1.00  0.00     0.275 S 
HETATM   21  O9  UNL     1      22.151 -43.842 -28.951  1.00  0.00    -0.199 OA
HETATM   22  O10 UNL     1      23.026 -45.964 -28.354  1.00  0.00    -0.199 OA
BRANCH  20  23
HETATM   23  N10 UNL     1      21.444 -45.736 -30.534  1.00  0.00    -0.323 N 
ATOM     24 2H10 UNL     1      21.532 -46.576 -31.106  1.00  0.00     0.169 HD
ATOM     25 1H10 UNL     1      20.592 -45.178 -30.474  1.00  0.00     0.169 HD
ENDBRANCH  20  23
ENDBRANCH  11  20
ENDBRANCH   6   7
ENDBRANCH   4   5
BRANCH   4  26
HETATM   26  C15 UNL     1      27.077 -40.976 -26.896  1.00  0.00     0.207 C 
HETATM   27  O7  UNL     1      27.070 -40.386 -25.785  1.00  0.00    -0.646 OA
HETATM   28  O8  UNL     1      27.287 -40.154 -28.010  1.00  0.00    -0.646 OA
ENDBRANCH   4  26
ENDBRANCH   3   4
ENDBRANCH   1   3
BRANCH   1  29
HETATM   29  C8  UNL     1      28.722 -45.569 -26.212  1.00  0.00     0.193 C 
BRANCH  29  30
HETATM   30  S2  UNL     1      30.372 -45.011 -26.676  1.00  0.00    -0.082 SA
BRANCH  30  31
HETATM   31  C9  UNL     1      31.051 -44.102 -25.283  1.00  0.00     0.168 A 
HETATM   32  N2  UNL     1      31.359 -42.772 -25.284  1.00  0.00    -0.314 N 
HETATM   33  C10 UNL     1      31.845 -42.417 -24.082  1.00  0.00     0.167 A 
ATOM     34  H2  UNL     1      31.239 -42.142 -26.078  1.00  0.00     0.170 HD
HETATM   35  C11 UNL     1      31.846 -43.555 -23.284  1.00  0.00     0.095 A 
HETATM   36  N8  UNL     1      31.358 -44.551 -24.054  1.00  0.00    -0.240 N 
BRANCH  33  37
HETATM   37  O5  UNL     1      32.252 -41.130 -23.757  1.00  0.00    -0.345 OA
ATOM     38  H5  UNL     1      32.787 -40.583 -24.320  1.00  0.00     0.219 HD
ENDBRANCH  33  37
BRANCH  35  39
HETATM   39  C12 UNL     1      32.309 -43.621 -21.874  1.00  0.00     0.167 C 
BRANCH  39  40
HETATM   40  C13 UNL     1      31.440 -42.858 -20.968  1.00  0.00     0.241 C 
HETATM   41  O6  UNL     1      30.479 -42.204 -21.428  1.00  0.00    -0.272 OA
HETATM   42  N3  UNL     1      31.702 -42.872 -19.581  1.00  0.00    -0.157 N 
ATOM     43  H3  UNL     1      32.629 -42.613 -19.241  1.00  0.00     0.187 HD
BRANCH  42  44
HETATM   44  C14 UNL     1      30.777 -43.212 -18.729  1.00  0.00     0.716 A 
HETATM   45  N4  UNL     1      31.011 -43.783 -17.512  1.00  0.00    -0.115 N 
HETATM   46  N5  UNL     1      29.822 -43.965 -16.967  1.00  0.00    -0.213 N 
ATOM     47  H4  UNL     1      31.917 -44.020 -17.108  1.00  0.00     0.207 HD
HETATM   48  N6  UNL     1      28.871 -43.544 -17.769  1.00  0.00    -0.213 N 
ATOM     49  H5  UNL     1      29.664 -44.376 -16.047  1.00  0.00     0.210 HD
HETATM   50  N7  UNL     1      29.463 -43.077 -18.861  1.00  0.00    -0.115 N 
ATOM     51  H6  UNL     1      27.868 -43.571 -17.586  1.00  0.00     0.210 HD
ATOM     52  H7  UNL     1      28.986 -42.680 -19.670  1.00  0.00     0.207 HD
ENDBRANCH  42  44
ENDBRANCH  39  40
ENDBRANCH  35  39
BRANCH  36  53
HETATM   53  N9  UNL     1      31.195 -45.869 -23.609  1.00  0.00    -0.336 N 
ATOM     54  H92 UNL     1      31.046 -46.662 -24.232  1.00  0.00     0.177 HD
ATOM     55  H91 UNL     1      31.212 -46.169 -22.634  1.00  0.00     0.177 HD
ENDBRANCH  36  53
ENDBRANCH  30  31
ENDBRANCH  29  30
ENDBRANCH   1  29
TORSDOF 18
ENDMDL
