MODEL 1
REMARK VINA RESULT: -5.710108406      0.000      0.000
REMARK  5 active torsions:
REMARK  status: ('A' for Active; 'I' for Inactive)
REMARK    1  A    between atoms: N2_3  and  N3_5 
REMARK    2  A    between atoms: N3_5  and  C2_7 
REMARK    3  A    between atoms: C3_12  and  C4_13 
REMARK    4  A    between atoms: C4_13  and  N6_14 
REMARK    5  A    between atoms: C4_13  and  N7_18 
ROOT
HETATM    1  C2  UNL     1      25.845  33.086  19.984  1.00  0.00     0.713 A 
HETATM    2  N4  UNL     1      26.499  32.965  18.831  1.00  0.00    -0.129 N 
ATOM      3  H4  UNL     1      27.248  33.577  18.508  1.00  0.00     0.205 HD
HETATM    4  N5  UNL     1      26.016  31.910  18.162  1.00  0.00    -0.271 N 
ATOM      5  H5  UNL     1      26.333  31.585  17.248  1.00  0.00     0.189 HD
HETATM    6  C3  UNL     1      25.041  31.352  18.901  1.00  0.00     0.170 A 
HETATM    7  N8  UNL     1      24.940  32.087  20.030  1.00  0.00    -0.173 N 
ATOM      8  H8  UNL     1      24.285  31.915  20.793  1.00  0.00     0.185 HD
ENDROOT
BRANCH   6   9
HETATM    9  C4  UNL     1      24.209  30.149  18.565  1.00  0.00     0.446 C 
BRANCH   9  10
HETATM   10  N6  UNL     1      23.474  30.333  17.345  1.00  0.00    -0.043 N 
ATOM     11  H63 UNL     1      23.686  31.233  16.915  1.00  0.00     0.277 HD
ATOM     12  H62 UNL     1      23.820  29.719  16.607  1.00  0.00     0.277 HD
ATOM     13  H61 UNL     1      22.470  30.215  17.485  1.00  0.00     0.277 HD
ENDBRANCH   9  10
BRANCH   9  14
HETATM   14  N7  UNL     1      25.057  28.985  18.523  1.00  0.00    -0.043 N 
ATOM     15  H73 UNL     1      24.783  28.333  17.788  1.00  0.00     0.277 HD
ATOM     16  H72 UNL     1      25.993  29.201  18.181  1.00  0.00     0.277 HD
ATOM     17  H71 UNL     1      25.072  28.549  19.445  1.00  0.00     0.277 HD
ENDBRANCH   9  14
ENDBRANCH   6   9
BRANCH   1  18
HETATM   18  N3  UNL     1      25.965  33.945  20.943  1.00  0.00    -0.130 N 
ATOM     19  H3  UNL     1      25.117  34.277  21.402  1.00  0.00     0.205 HD
BRANCH  18  20
HETATM   20  N2  UNL     1      27.182  34.440  21.379  1.00  0.00    -0.284 N 
HETATM   21  C1  UNL     1      27.644  35.508  20.867  1.00  0.00     0.207 C 
HETATM   22  N1  UNL     1      26.936  36.186  19.870  1.00  0.00    -0.095 NA
ATOM     23  H2  UNL     1      27.704  33.951  22.106  1.00  0.00     0.187 HD
ENDBRANCH  18  20
ENDBRANCH   1  18
TORSDOF 5
ENDMDL
MODEL 2
REMARK VINA RESULT: -5.499063039      1.249      5.293
REMARK  5 active torsions:
REMARK  status: ('A' for Active; 'I' for Inactive)
REMARK    1  A    between atoms: N2_3  and  N3_5 
REMARK    2  A    between atoms: N3_5  and  C2_7 
REMARK    3  A    between atoms: C3_12  and  C4_13 
REMARK    4  A    between atoms: C4_13  and  N6_14 
REMARK    5  A    between atoms: C4_13  and  N7_18 
ROOT
HETATM    1  C2  UNL     1      26.045  32.225  18.363  1.00  0.00     0.713 A 
HETATM    2  N4  UNL     1      26.861  32.814  17.492  1.00  0.00    -0.129 N 
ATOM      3  H4  UNL     1      27.104  32.451  16.570  1.00  0.00     0.205 HD
HETATM    4  N5  UNL     1      27.312  33.958  18.020  1.00  0.00    -0.271 N 
ATOM      5  H5  UNL     1      27.954  34.612  17.571  1.00  0.00     0.189 HD
HETATM    6  C3  UNL     1      26.774  34.099  19.245  1.00  0.00     0.170 A 
HETATM    7  N8  UNL     1      25.990  33.020  19.451  1.00  0.00    -0.173 N 
ATOM      8  H8  UNL     1      25.444  32.836  20.293  1.00  0.00     0.185 HD
ENDROOT
BRANCH   6   9
HETATM    9  C4  UNL     1      26.986  35.223  20.216  1.00  0.00     0.446 C 
BRANCH   9  10
HETATM   10  N6  UNL     1      27.394  34.744  21.507  1.00  0.00    -0.043 N 
ATOM     11  H63 UNL     1      26.874  33.908  21.775  1.00  0.00     0.277 HD
ATOM     12  H62 UNL     1      28.332  34.345  21.476  1.00  0.00     0.277 HD
ATOM     13  H61 UNL     1      27.323  35.469  22.221  1.00  0.00     0.277 HD
ENDBRANCH   9  10
BRANCH   9  14
HETATM   14  N7  UNL     1      27.929  36.159  19.658  1.00  0.00    -0.043 N 
ATOM     15  H73 UNL     1      28.872  35.774  19.607  1.00  0.00     0.277 HD
ATOM     16  H72 UNL     1      27.781  36.308  18.660  1.00  0.00     0.277 HD
ATOM     17  H71 UNL     1      27.892  37.028  20.190  1.00  0.00     0.277 HD
ENDBRANCH   9  14
ENDBRANCH   6   9
BRANCH   1  18
HETATM   18  N3  UNL     1      25.383  31.115  18.292  1.00  0.00    -0.130 N 
ATOM     19  H3  UNL     1      25.779  30.289  18.739  1.00  0.00     0.205 HD
BRANCH  18  20
HETATM   20  N2  UNL     1      24.168  30.989  17.643  1.00  0.00    -0.284 N 
HETATM   21  C1  UNL     1      23.292  30.189  18.102  1.00  0.00     0.207 C 
HETATM   22  N1  UNL     1      23.545  29.440  19.254  1.00  0.00    -0.095 NA
ATOM     23  H2  UNL     1      23.976  31.534  16.802  1.00  0.00     0.187 HD
ENDBRANCH  18  20
ENDBRANCH   1  18
TORSDOF 5
ENDMDL
MODEL 3
REMARK VINA RESULT: -5.412628392      1.082      5.354
REMARK  5 active torsions:
REMARK  status: ('A' for Active; 'I' for Inactive)
REMARK    1  A    between atoms: N2_3  and  N3_5 
REMARK    2  A    between atoms: N3_5  and  C2_7 
REMARK    3  A    between atoms: C3_12  and  C4_13 
REMARK    4  A    between atoms: C4_13  and  N6_14 
REMARK    5  A    between atoms: C4_13  and  N7_18 
ROOT
HETATM    1  C2  UNL     1      25.528  32.223  19.569  1.00  0.00     0.713 A 
HETATM    2  N4  UNL     1      24.824  32.464  20.673  1.00  0.00    -0.129 N 
ATOM      3  H4  UNL     1      24.086  31.867  21.047  1.00  0.00     0.205 HD
HETATM    4  N5  UNL     1      25.238  33.617  21.214  1.00  0.00    -0.271 N 
ATOM      5  H5  UNL     1      24.871  34.044  22.065  1.00  0.00     0.189 HD
HETATM    6  C3  UNL     1      26.221  34.115  20.443  1.00  0.00     0.170 A 
HETATM    7  N8  UNL     1      26.395  33.246  19.425  1.00  0.00    -0.173 N 
ATOM      8  H8  UNL     1      27.072  33.347  18.669  1.00  0.00     0.185 HD
ENDROOT
BRANCH   6   9
HETATM    9  C4  UNL     1      26.992  35.386  20.648  1.00  0.00     0.446 C 
BRANCH   9  10
HETATM   10  N6  UNL     1      27.936  35.271  21.724  1.00  0.00    -0.043 N 
ATOM     11  H63 UNL     1      27.557  35.649  22.593  1.00  0.00     0.277 HD
ATOM     12  H62 UNL     1      28.055  34.300  22.012  1.00  0.00     0.277 HD
ATOM     13  H61 UNL     1      28.831  35.701  21.491  1.00  0.00     0.277 HD
ENDBRANCH   9  10
BRANCH   9  14
HETATM   14  N7  UNL     1      27.621  35.762  19.407  1.00  0.00    -0.043 N 
ATOM     15  H73 UNL     1      28.273  36.538  19.523  1.00  0.00     0.277 HD
ATOM     16  H72 UNL     1      28.287  35.062  19.083  1.00  0.00     0.277 HD
ATOM     17  H71 UNL     1      26.900  35.962  18.714  1.00  0.00     0.277 HD
ENDBRANCH   9  14
ENDBRANCH   6   9
BRANCH   1  18
HETATM   18  N3  UNL     1      25.480  31.242  18.727  1.00  0.00    -0.130 N 
ATOM     19  H3  UNL     1      26.222  30.544  18.758  1.00  0.00     0.205 HD
BRANCH  18  20
HETATM   20  N2  UNL     1      24.476  31.090  17.787  1.00  0.00    -0.284 N 
HETATM   21  C1  UNL     1      23.504  30.305  18.029  1.00  0.00     0.207 C 
HETATM   22  N1  UNL     1      23.442  29.598  19.234  1.00  0.00    -0.095 NA
ATOM     23  H2  UNL     1      24.515  31.603  16.907  1.00  0.00     0.187 HD
ENDBRANCH  18  20
ENDBRANCH   1  18
TORSDOF 5
ENDMDL
MODEL 4
REMARK VINA RESULT: -5.371778020      1.064      5.302
REMARK  5 active torsions:
REMARK  status: ('A' for Active; 'I' for Inactive)
REMARK    1  A    between atoms: N2_3  and  N3_5 
REMARK    2  A    between atoms: N3_5  and  C2_7 
REMARK    3  A    between atoms: C3_12  and  C4_13 
REMARK    4  A    between atoms: C4_13  and  N6_14 
REMARK    5  A    between atoms: C4_13  and  N7_18 
ROOT
HETATM    1  C2  UNL     1      25.500  32.017  19.153  1.00  0.00     0.713 A 
HETATM    2  N4  UNL     1      24.991  32.217  20.367  1.00  0.00    -0.129 N 
ATOM      3  H4  UNL     1      24.299  31.623  20.824  1.00  0.00     0.205 HD
HETATM    4  N5  UNL     1      25.532  33.324  20.892  1.00  0.00    -0.271 N 
ATOM      5  H5  UNL     1      25.323  33.714  21.811  1.00  0.00     0.189 HD
HETATM    6  C3  UNL     1      26.399  33.834  19.998  1.00  0.00     0.170 A 
HETATM    7  N8  UNL     1      26.374  33.018  18.923  1.00  0.00    -0.173 N 
ATOM      8  H8  UNL     1      26.925  33.140  18.073  1.00  0.00     0.185 HD
ENDROOT
BRANCH   6   9
HETATM    9  C4  UNL     1      27.243  35.067  20.140  1.00  0.00     0.446 C 
BRANCH   9  10
HETATM   10  N6  UNL     1      27.324  35.803  18.909  1.00  0.00    -0.043 N 
ATOM     11  H63 UNL     1      27.352  35.178  18.103  1.00  0.00     0.277 HD
ATOM     12  H62 UNL     1      26.448  36.284  18.706  1.00  0.00     0.277 HD
ATOM     13  H61 UNL     1      28.113  36.450  18.905  1.00  0.00     0.277 HD
ENDBRANCH   9  10
BRANCH   9  14
HETATM   14  N7  UNL     1      26.732  35.867  21.223  1.00  0.00    -0.043 N 
ATOM     15  H73 UNL     1      25.847  36.317  20.988  1.00  0.00     0.277 HD
ATOM     16  H72 UNL     1      26.402  35.299  22.002  1.00  0.00     0.277 HD
ATOM     17  H71 UNL     1      27.445  36.539  21.507  1.00  0.00     0.277 HD
ENDBRANCH   9  14
ENDBRANCH   6   9
BRANCH   1  18
HETATM   18  N3  UNL     1      25.279  31.087  18.281  1.00  0.00    -0.130 N 
ATOM     19  H3  UNL     1      26.020  30.410  18.100  1.00  0.00     0.205 HD
BRANCH  18  20
HETATM   20  N2  UNL     1      24.092  30.962  17.582  1.00  0.00    -0.284 N 
HETATM   21  C1  UNL     1      23.188  30.179  18.016  1.00  0.00     0.207 C 
HETATM   22  N1  UNL     1      23.382  29.448  19.192  1.00  0.00    -0.095 NA
ATOM     23  H2  UNL     1      23.943  31.492  16.724  1.00  0.00     0.187 HD
ENDBRANCH  18  20
ENDBRANCH   1  18
TORSDOF 5
ENDMDL
MODEL 5
REMARK VINA RESULT: -5.339234833      0.483      1.032
REMARK  5 active torsions:
REMARK  status: ('A' for Active; 'I' for Inactive)
REMARK    1  A    between atoms: N2_3  and  N3_5 
REMARK    2  A    between atoms: N3_5  and  C2_7 
REMARK    3  A    between atoms: C3_12  and  C4_13 
REMARK    4  A    between atoms: C4_13  and  N6_14 
REMARK    5  A    between atoms: C4_13  and  N7_18 
ROOT
HETATM    1  C2  UNL     1      25.860  32.906  19.784  1.00  0.00     0.713 A 
HETATM    2  N4  UNL     1      26.596  32.903  18.674  1.00  0.00    -0.129 N 
ATOM      3  H4  UNL     1      27.342  33.563  18.457  1.00  0.00     0.205 HD
HETATM    4  N5  UNL     1      26.199  31.894  17.888  1.00  0.00    -0.271 N 
ATOM      5  H5  UNL     1      26.590  31.657  16.976  1.00  0.00     0.189 HD
HETATM    6  C3  UNL     1      25.197  31.246  18.509  1.00  0.00     0.170 A 
HETATM    7  N8  UNL     1      24.992  31.879  19.683  1.00  0.00    -0.173 N 
ATOM      8  H8  UNL     1      24.293  31.623  20.381  1.00  0.00     0.185 HD
ENDROOT
BRANCH   6   9
HETATM    9  C4  UNL     1      24.435  30.050  18.016  1.00  0.00     0.446 C 
BRANCH   9  10
HETATM   10  N6  UNL     1      23.990  29.217  19.099  1.00  0.00    -0.043 N 
ATOM     11  H63 UNL     1      24.772  28.737  19.545  1.00  0.00     0.277 HD
ATOM     12  H62 UNL     1      23.674  29.776  19.892  1.00  0.00     0.277 HD
ATOM     13  H61 UNL     1      23.271  28.558  18.800  1.00  0.00     0.277 HD
ENDBRANCH   9  10
BRANCH   9  14
HETATM   14  N7  UNL     1      23.345  30.494  17.185  1.00  0.00    -0.043 N 
ATOM     15  H73 UNL     1      23.564  31.357  16.687  1.00  0.00     0.277 HD
ATOM     16  H72 UNL     1      23.207  29.891  16.374  1.00  0.00     0.277 HD
ATOM     17  H71 UNL     1      22.503  30.577  17.754  1.00  0.00     0.277 HD
ENDBRANCH   9  14
ENDBRANCH   6   9
BRANCH   1  18
HETATM   18  N3  UNL     1      25.882  33.685  20.816  1.00  0.00    -0.130 N 
ATOM     19  H3  UNL     1      24.996  33.918  21.263  1.00  0.00     0.205 HD
BRANCH  18  20
HETATM   20  N2  UNL     1      27.043  34.219  21.347  1.00  0.00    -0.284 N 
HETATM   21  C1  UNL     1      27.480  35.330  20.907  1.00  0.00     0.207 C 
HETATM   22  N1  UNL     1      26.798  36.015  19.897  1.00  0.00    -0.095 NA
ATOM     23  H2  UNL     1      27.545  33.726  22.085  1.00  0.00     0.187 HD
ENDBRANCH  18  20
ENDBRANCH   1  18
TORSDOF 5
ENDMDL
