MODEL 1
REMARK VINA RESULT: -4.457256308      0.000      0.000
REMARK  6 active torsions:
REMARK  status: ('A' for Active; 'I' for Inactive)
REMARK    1  A    between atoms: N1_1  and  C1_4 
REMARK    2  A    between atoms: C3_6  and  C4_7 
REMARK    3  A    between atoms: C4_7  and  N2_8 
REMARK    4  A    between atoms: C4_7  and  C5_12 
REMARK    5  A    between atoms: C5_12  and  N3_13 
REMARK    6  A    between atoms: C5_12  and  N4_17 
ROOT
HETATM    1  C4  UNL     1      26.692  35.298  20.359  1.00  0.00     0.275 C 
ENDROOT
BRANCH   1   2
HETATM    2  C3  UNL     1      26.524  34.076  19.549  1.00  0.00    -0.004 A 
HETATM    3  C2  UNL     1      25.861  32.948  19.974  1.00  0.00     0.060 A 
HETATM    4  C1  UNL     1      25.738  31.828  19.160  1.00  0.00     0.114 A 
HETATM    5  N6  UNL     1      26.268  31.821  17.926  1.00  0.00    -0.286 N 
HETATM    6  N5  UNL     1      26.903  32.906  17.520  1.00  0.00    -0.310 N 
ATOM      7  H6  UNL     1      26.182  31.004  17.322  1.00  0.00     0.188 HD
HETATM    8  C6  UNL     1      27.049  34.021  18.278  1.00  0.00     0.116 A 
ATOM      9  H5  UNL     1      27.307  32.905  16.583  1.00  0.00     0.186 HD
BRANCH   4  10
HETATM   10  N1  UNL     1      25.120  30.791  19.572  1.00  0.00    -0.384 N 
ATOM     11  H12 UNL     1      24.753  30.131  18.886  1.00  0.00     0.157 HD
ATOM     12  H11 UNL     1      24.994  30.624  20.571  1.00  0.00     0.157 HD
ENDBRANCH   4  10
ENDBRANCH   1   2
BRANCH   1  13
HETATM   13  N2  UNL     1      26.242  35.078  21.743  1.00  0.00    -0.067 N 
ATOM     14  H23 UNL     1      26.918  34.530  22.276  1.00  0.00     0.275 HD
ATOM     15  H22 UNL     1      26.275  35.938  22.290  1.00  0.00     0.275 HD
ATOM     16  H21 UNL     1      25.315  34.654  21.763  1.00  0.00     0.275 HD
ENDBRANCH   1  13
BRANCH   1  17
HETATM   17  C5  UNL     1      28.153  35.722  20.463  1.00  0.00     0.412 C 
BRANCH  17  18
HETATM   18  N3  UNL     1      28.356  37.029  19.864  1.00  0.00    -0.048 N 
ATOM     19  H33 UNL     1      29.284  37.114  19.451  1.00  0.00     0.276 HD
ATOM     20  H32 UNL     1      27.799  37.146  19.017  1.00  0.00     0.276 HD
ATOM     21  H31 UNL     1      28.174  37.770  20.540  1.00  0.00     0.276 HD
ENDBRANCH  17  18
BRANCH  17  22
HETATM   22  N4  UNL     1      28.461  35.746  21.889  1.00  0.00    -0.048 N 
ATOM     23  H43 UNL     1      28.801  34.854  22.247  1.00  0.00     0.276 HD
ATOM     24  H42 UNL     1      29.290  36.294  22.117  1.00  0.00     0.276 HD
ATOM     25  H41 UNL     1      27.614  36.075  22.352  1.00  0.00     0.276 HD
ENDBRANCH  17  22
ENDBRANCH   1  17
TORSDOF 6
ENDMDL
MODEL 2
REMARK VINA RESULT: -4.446108115      1.974      5.406
REMARK  6 active torsions:
REMARK  status: ('A' for Active; 'I' for Inactive)
REMARK    1  A    between atoms: N1_1  and  C1_4 
REMARK    2  A    between atoms: C3_6  and  C4_7 
REMARK    3  A    between atoms: C4_7  and  N2_8 
REMARK    4  A    between atoms: C4_7  and  C5_12 
REMARK    5  A    between atoms: C5_12  and  N3_13 
REMARK    6  A    between atoms: C5_12  and  N4_17 
ROOT
HETATM    1  C4  UNL     1      25.130  30.630  18.416  1.00  0.00     0.275 C 
ENDROOT
BRANCH   1   2
HETATM    2  C3  UNL     1      25.507  31.892  19.080  1.00  0.00    -0.004 A 
HETATM    3  C2  UNL     1      26.282  32.872  18.503  1.00  0.00     0.060 A 
HETATM    4  C1  UNL     1      26.601  34.040  19.185  1.00  0.00     0.114 A 
HETATM    5  N6  UNL     1      26.157  34.242  20.436  1.00  0.00    -0.286 N 
HETATM    6  N5  UNL     1      25.414  33.300  20.988  1.00  0.00    -0.310 N 
ATOM      7  H6  UNL     1      26.386  35.096  20.944  1.00  0.00     0.188 HD
HETATM    8  C6  UNL     1      25.076  32.144  20.363  1.00  0.00     0.116 A 
ATOM      9  H5  UNL     1      25.074  33.450  21.938  1.00  0.00     0.186 HD
BRANCH   4  10
HETATM   10  N1  UNL     1      27.321  34.937  18.633  1.00  0.00    -0.384 N 
ATOM     11  H12 UNL     1      27.592  34.820  17.657  1.00  0.00     0.157 HD
ATOM     12  H11 UNL     1      27.621  35.758  19.160  1.00  0.00     0.157 HD
ENDBRANCH   4  10
ENDBRANCH   1   2
BRANCH   1  13
HETATM   13  N2  UNL     1      25.616  29.468  19.178  1.00  0.00    -0.067 N 
ATOM     14  H23 UNL     1      26.514  29.657  19.623  1.00  0.00     0.275 HD
ATOM     15  H22 UNL     1      25.058  29.308  20.016  1.00  0.00     0.275 HD
ATOM     16  H21 UNL     1      25.656  28.637  18.589  1.00  0.00     0.275 HD
ENDBRANCH   1  13
BRANCH   1  17
HETATM   17  C5  UNL     1      23.618  30.458  18.323  1.00  0.00     0.412 C 
BRANCH  17  18
HETATM   18  N3  UNL     1      23.156  30.671  16.963  1.00  0.00    -0.048 N 
ATOM     19  H33 UNL     1      23.335  31.624  16.649  1.00  0.00     0.276 HD
ATOM     20  H32 UNL     1      23.736  30.174  16.286  1.00  0.00     0.276 HD
ATOM     21  H31 UNL     1      22.172  30.422  16.870  1.00  0.00     0.276 HD
ENDBRANCH  17  18
BRANCH  17  22
HETATM   22  N4  UNL     1      23.343  29.095  18.762  1.00  0.00    -0.048 N 
ATOM     23  H43 UNL     1      23.176  28.445  17.994  1.00  0.00     0.276 HD
ATOM     24  H42 UNL     1      24.158  28.619  19.149  1.00  0.00     0.276 HD
ATOM     25  H41 UNL     1      22.563  29.163  19.414  1.00  0.00     0.276 HD
ENDBRANCH  17  22
ENDBRANCH   1  17
TORSDOF 6
ENDMDL
MODEL 3
REMARK VINA RESULT: -4.361566247      1.451      4.651
REMARK  6 active torsions:
REMARK  status: ('A' for Active; 'I' for Inactive)
REMARK    1  A    between atoms: N1_1  and  C1_4 
REMARK    2  A    between atoms: C3_6  and  C4_7 
REMARK    3  A    between atoms: C4_7  and  N2_8 
REMARK    4  A    between atoms: C4_7  and  C5_12 
REMARK    5  A    between atoms: C5_12  and  N3_13 
REMARK    6  A    between atoms: C5_12  and  N4_17 
ROOT
HETATM    1  C4  UNL     1      25.749  31.452  19.476  1.00  0.00     0.275 C 
ENDROOT
BRANCH   1   2
HETATM    2  C3  UNL     1      26.297  32.807  19.280  1.00  0.00    -0.004 A 
HETATM    3  C2  UNL     1      26.339  33.777  20.256  1.00  0.00     0.060 A 
HETATM    4  C1  UNL     1      26.869  35.036  20.005  1.00  0.00     0.114 A 
HETATM    5  N6  UNL     1      27.360  35.340  18.793  1.00  0.00    -0.286 N 
HETATM    6  N5  UNL     1      27.320  34.408  17.858  1.00  0.00    -0.310 N 
ATOM      7  H6  UNL     1      27.752  36.262  18.600  1.00  0.00     0.188 HD
HETATM    8  C6  UNL     1      26.812  33.166  18.054  1.00  0.00     0.116 A 
ATOM      9  H5  UNL     1      27.692  34.635  16.936  1.00  0.00     0.186 HD
BRANCH   4  10
HETATM   10  N1  UNL     1      26.898  35.923  20.922  1.00  0.00    -0.384 N 
ATOM     11  H12 UNL     1      26.605  36.873  20.698  1.00  0.00     0.157 HD
ATOM     12  H11 UNL     1      27.211  35.685  21.864  1.00  0.00     0.157 HD
ENDBRANCH   4  10
ENDBRANCH   1   2
BRANCH   1  13
HETATM   13  N2  UNL     1      24.791  31.428  20.594  1.00  0.00    -0.067 N 
ATOM     14  H23 UNL     1      24.116  32.189  20.528  1.00  0.00     0.275 HD
ATOM     15  H22 UNL     1      24.146  30.641  20.519  1.00  0.00     0.275 HD
ATOM     16  H21 UNL     1      25.277  31.432  21.490  1.00  0.00     0.275 HD
ENDBRANCH   1  13
BRANCH   1  17
HETATM   17  C5  UNL     1      24.973  30.963  18.258  1.00  0.00     0.412 C 
BRANCH  17  18
HETATM   18  N3  UNL     1      25.140  29.532  18.078  1.00  0.00    -0.048 N 
ATOM     19  H33 UNL     1      24.522  29.001  18.692  1.00  0.00     0.276 HD
ATOM     20  H32 UNL     1      24.771  29.220  17.180  1.00  0.00     0.276 HD
ATOM     21  H31 UNL     1      26.115  29.262  18.201  1.00  0.00     0.276 HD
ENDBRANCH  17  18
BRANCH  17  22
HETATM   22  N4  UNL     1      23.577  31.300  18.513  1.00  0.00    -0.048 N 
ATOM     23  H43 UNL     1      22.936  30.945  17.804  1.00  0.00     0.276 HD
ATOM     24  H42 UNL     1      23.174  30.798  19.304  1.00  0.00     0.276 HD
ATOM     25  H41 UNL     1      23.548  32.314  18.616  1.00  0.00     0.276 HD
ENDBRANCH  17  22
ENDBRANCH   1  17
TORSDOF 6
ENDMDL
MODEL 4
REMARK VINA RESULT: -4.338323307      1.944      2.636
REMARK  6 active torsions:
REMARK  status: ('A' for Active; 'I' for Inactive)
REMARK    1  A    between atoms: N1_1  and  C1_4 
REMARK    2  A    between atoms: C3_6  and  C4_7 
REMARK    3  A    between atoms: C4_7  and  N2_8 
REMARK    4  A    between atoms: C4_7  and  C5_12 
REMARK    5  A    between atoms: C5_12  and  N3_13 
REMARK    6  A    between atoms: C5_12  and  N4_17 
ROOT
HETATM    1  C4  UNL     1      27.290  36.447  22.459  1.00  0.00     0.275 C 
ENDROOT
BRANCH   1   2
HETATM    2  C3  UNL     1      27.106  35.673  21.217  1.00  0.00    -0.004 A 
HETATM    3  C2  UNL     1      26.470  34.454  21.149  1.00  0.00     0.060 A 
HETATM    4  C1  UNL     1      26.330  33.775  19.945  1.00  0.00     0.114 A 
HETATM    5  N6  UNL     1      26.814  34.298  18.807  1.00  0.00    -0.286 N 
HETATM    6  N5  UNL     1      27.423  35.468  18.875  1.00  0.00    -0.310 N 
ATOM      7  H6  UNL     1      26.716  33.807  17.918  1.00  0.00     0.188 HD
HETATM    8  C6  UNL     1      27.586  36.168  20.026  1.00  0.00     0.116 A 
ATOM      9  H5  UNL     1      27.793  35.869  18.012  1.00  0.00     0.186 HD
BRANCH   4  10
HETATM   10  N1  UNL     1      25.738  32.646  19.902  1.00  0.00    -0.384 N 
ATOM     11  H12 UNL     1      24.741  32.604  20.113  1.00  0.00     0.157 HD
ATOM     12  H11 UNL     1      26.253  31.798  19.660  1.00  0.00     0.157 HD
ENDBRANCH   4  10
ENDBRANCH   1   2
BRANCH   1  13
HETATM   13  N2  UNL     1      26.014  36.606  23.176  1.00  0.00    -0.067 N 
ATOM     14  H23 UNL     1      25.225  36.282  22.616  1.00  0.00     0.275 HD
ATOM     15  H22 UNL     1      25.934  35.950  23.952  1.00  0.00     0.275 HD
ATOM     16  H21 UNL     1      25.887  37.570  23.483  1.00  0.00     0.275 HD
ENDBRANCH   1  13
BRANCH   1  17
HETATM   17  C5  UNL     1      28.227  35.748  23.439  1.00  0.00     0.412 C 
BRANCH  17  18
HETATM   18  N3  UNL     1      29.615  35.959  23.067  1.00  0.00    -0.048 N 
ATOM     19  H33 UNL     1      29.700  36.582  22.264  1.00  0.00     0.276 HD
ATOM     20  H32 UNL     1      30.108  36.527  23.755  1.00  0.00     0.276 HD
ATOM     21  H31 UNL     1      30.087  35.070  22.905  1.00  0.00     0.276 HD
ENDBRANCH  17  18
BRANCH  17  22
HETATM   22  N4  UNL     1      27.942  36.327  24.747  1.00  0.00    -0.048 N 
ATOM     23  H43 UNL     1      28.776  36.633  25.247  1.00  0.00     0.276 HD
ATOM     24  H42 UNL     1      27.486  37.238  24.698  1.00  0.00     0.276 HD
ATOM     25  H41 UNL     1      27.399  35.625  25.250  1.00  0.00     0.276 HD
ENDBRANCH  17  22
ENDBRANCH   1  17
TORSDOF 6
ENDMDL
MODEL 5
REMARK VINA RESULT: -4.331520045      1.977      2.807
REMARK  6 active torsions:
REMARK  status: ('A' for Active; 'I' for Inactive)
REMARK    1  A    between atoms: N1_1  and  C1_4 
REMARK    2  A    between atoms: C3_6  and  C4_7 
REMARK    3  A    between atoms: C4_7  and  N2_8 
REMARK    4  A    between atoms: C4_7  and  C5_12 
REMARK    5  A    between atoms: C5_12  and  N3_13 
REMARK    6  A    between atoms: C5_12  and  N4_17 
ROOT
HETATM    1  C4  UNL     1      28.334  36.417  22.455  1.00  0.00     0.275 C 
ENDROOT
BRANCH   1   2
HETATM    2  C3  UNL     1      27.732  35.728  21.298  1.00  0.00    -0.004 A 
HETATM    3  C2  UNL     1      26.957  34.595  21.386  1.00  0.00     0.060 A 
HETATM    4  C1  UNL     1      26.420  33.994  20.254  1.00  0.00     0.114 A 
HETATM    5  N6  UNL     1      26.645  34.511  19.035  1.00  0.00    -0.286 N 
HETATM    6  N5  UNL     1      27.388  35.599  18.954  1.00  0.00    -0.310 N 
ATOM      7  H6  UNL     1      26.254  34.076  18.199  1.00  0.00     0.188 HD
HETATM    8  C6  UNL     1      27.935  36.221  20.028  1.00  0.00     0.116 A 
ATOM      9  H5  UNL     1      27.562  35.995  18.030  1.00  0.00     0.186 HD
BRANCH   4  10
HETATM   10  N1  UNL     1      25.703  32.942  20.355  1.00  0.00    -0.384 N 
ATOM     11  H12 UNL     1      25.105  32.831  21.174  1.00  0.00     0.157 HD
ATOM     12  H11 UNL     1      25.730  32.225  19.631  1.00  0.00     0.157 HD
ENDBRANCH   4  10
ENDBRANCH   1   2
BRANCH   1  13
HETATM   13  N2  UNL     1      28.708  35.455  23.505  1.00  0.00    -0.067 N 
ATOM     14  H23 UNL     1      28.307  35.707  24.408  1.00  0.00     0.275 HD
ATOM     15  H22 UNL     1      28.244  34.557  23.375  1.00  0.00     0.275 HD
ATOM     16  H21 UNL     1      29.721  35.351  23.559  1.00  0.00     0.275 HD
ENDBRANCH   1  13
BRANCH   1  17
HETATM   17  C5  UNL     1      29.622  37.145  22.086  1.00  0.00     0.412 C 
BRANCH  17  18
HETATM   18  N3  UNL     1      29.754  38.378  22.841  1.00  0.00    -0.048 N 
ATOM     19  H33 UNL     1      29.124  38.399  23.642  1.00  0.00     0.276 HD
ATOM     20  H32 UNL     1      30.642  38.420  23.342  1.00  0.00     0.276 HD
ATOM     21  H31 UNL     1      29.623  39.189  22.237  1.00  0.00     0.276 HD
ENDBRANCH  17  18
BRANCH  17  22
HETATM   22  N4  UNL     1      30.707  36.221  22.398  1.00  0.00    -0.048 N 
ATOM     23  H43 UNL     1      30.610  35.773  23.309  1.00  0.00     0.276 HD
ATOM     24  H42 UNL     1      30.688  35.367  21.839  1.00  0.00     0.276 HD
ATOM     25  H41 UNL     1      31.568  36.756  22.297  1.00  0.00     0.276 HD
ENDBRANCH  17  22
ENDBRANCH   1  17
TORSDOF 6
ENDMDL
