MODEL 1
REMARK VINA RESULT: -4.739281487      0.000      0.000
REMARK  5 active torsions:
REMARK  status: ('A' for Active; 'I' for Inactive)
REMARK    1  A    between atoms: C3_6  and  C4_7 
REMARK    2  A    between atoms: C4_7  and  N2_8 
REMARK    3  A    between atoms: C4_7  and  C5_12 
REMARK    4  A    between atoms: C5_12  and  N3_13 
REMARK    5  A    between atoms: C5_12  and  N4_17 
ROOT
HETATM    1  C4  UNL     1      26.969  35.559  20.347  1.00  0.00     0.290 C 
ENDROOT
BRANCH   1   2
HETATM    2  C3  UNL     1      26.734  34.350  19.583  1.00  0.00     0.048 A 
HETATM    3  C2  UNL     1      26.034  33.274  20.048  1.00  0.00     0.075 A 
HETATM    4  C1  UNL     1      25.858  32.153  19.227  1.00  0.00     0.101 A 
HETATM    5  N1  UNL     1      25.199  31.119  19.641  1.00  0.00    -0.385 N 
HETATM    6  N6  UNL     1      26.370  32.118  17.983  1.00  0.00    -0.339 N 
ATOM      7  H12 UNL     1      24.811  31.145  20.584  1.00  0.00     0.157 HD
ATOM      8  H11 UNL     1      25.070  30.302  19.044  1.00  0.00     0.157 HD
HETATM    9  C6  UNL     1      27.053  33.190  17.552  1.00  0.00     0.182 A 
ATOM     10  H6  UNL     1      26.242  31.301  17.386  1.00  0.00     0.168 HD
HETATM   11  N5  UNL     1      27.225  34.262  18.331  1.00  0.00    -0.354 N 
ATOM     12  H5  UNL     1      27.753  35.052  17.960  1.00  0.00     0.166 HD
ENDBRANCH   1   2
BRANCH   1  13
HETATM   13  N2  UNL     1      28.095  36.267  19.714  1.00  0.00    -0.066 N 
ATOM     14  H23 UNL     1      29.003  35.870  19.956  1.00  0.00     0.275 HD
ATOM     15  H22 UNL     1      28.147  36.113  18.707  1.00  0.00     0.275 HD
ATOM     16  H21 UNL     1      28.012  37.253  19.962  1.00  0.00     0.275 HD
ENDBRANCH   1  13
BRANCH   1  17
HETATM   17  C5  UNL     1      27.290  35.416  21.790  1.00  0.00     0.413 C 
BRANCH  17  18
HETATM   18  N3  UNL     1      28.709  35.837  21.896  1.00  0.00    -0.048 N 
ATOM     19  H33 UNL     1      29.332  35.373  21.235  1.00  0.00     0.276 HD
ATOM     20  H32 UNL     1      28.887  36.787  21.572  1.00  0.00     0.276 HD
ATOM     21  H31 UNL     1      28.948  35.679  22.876  1.00  0.00     0.276 HD
ENDBRANCH  17  18
BRANCH  17  22
HETATM   22  N4  UNL     1      26.570  36.376  22.625  1.00  0.00    -0.048 N 
ATOM     23  H43 UNL     1      27.029  37.288  22.613  1.00  0.00     0.276 HD
ATOM     24  H42 UNL     1      25.679  36.634  22.201  1.00  0.00     0.276 HD
ATOM     25  H41 UNL     1      26.439  36.045  23.581  1.00  0.00     0.276 HD
ENDBRANCH  17  22
ENDBRANCH   1  17
TORSDOF 5
ENDMDL
MODEL 2
REMARK VINA RESULT: -4.738401305      2.084      5.067
REMARK  5 active torsions:
REMARK  status: ('A' for Active; 'I' for Inactive)
REMARK    1  A    between atoms: C3_6  and  C4_7 
REMARK    2  A    between atoms: C4_7  and  N2_8 
REMARK    3  A    between atoms: C4_7  and  C5_12 
REMARK    4  A    between atoms: C5_12  and  N3_13 
REMARK    5  A    between atoms: C5_12  and  N4_17 
ROOT
HETATM    1  C4  UNL     1      25.423  31.259  19.116  1.00  0.00     0.290 C 
ENDROOT
BRANCH   1   2
HETATM    2  C3  UNL     1      25.450  32.419  19.984  1.00  0.00     0.048 A 
HETATM    3  C2  UNL     1      24.487  32.705  20.908  1.00  0.00     0.075 A 
HETATM    4  C1  UNL     1      24.608  33.852  21.704  1.00  0.00     0.101 A 
HETATM    5  N1  UNL     1      23.711  34.148  22.589  1.00  0.00    -0.385 N 
HETATM    6  N6  UNL     1      25.661  34.678  21.573  1.00  0.00    -0.339 N 
ATOM      7  H12 UNL     1      22.912  33.522  22.689  1.00  0.00     0.157 HD
ATOM      8  H11 UNL     1      23.799  34.982  23.169  1.00  0.00     0.157 HD
HETATM    9  C6  UNL     1      26.593  34.371  20.657  1.00  0.00     0.182 A 
ATOM     10  H6  UNL     1      25.749  35.513  22.152  1.00  0.00     0.168 HD
HETATM   11  N5  UNL     1      26.483  33.280  19.893  1.00  0.00    -0.354 N 
ATOM     12  H5  UNL     1      27.215  33.089  19.210  1.00  0.00     0.166 HD
ENDBRANCH   1   2
BRANCH   1  13
HETATM   13  N2  UNL     1      25.947  31.680  17.804  1.00  0.00    -0.066 N 
ATOM     14  H23 UNL     1      25.577  32.579  17.497  1.00  0.00     0.275 HD
ATOM     15  H22 UNL     1      26.932  31.945  17.835  1.00  0.00     0.275 HD
ATOM     16  H21 UNL     1      25.758  30.925  17.145  1.00  0.00     0.275 HD
ENDBRANCH   1  13
BRANCH   1  17
HETATM   17  C5  UNL     1      24.114  30.599  18.879  1.00  0.00     0.413 C 
BRANCH  17  18
HETATM   18  N3  UNL     1      23.763  30.963  17.484  1.00  0.00    -0.048 N 
ATOM     19  H33 UNL     1      24.245  31.792  17.136  1.00  0.00     0.276 HD
ATOM     20  H32 UNL     1      24.125  30.318  16.782  1.00  0.00     0.276 HD
ATOM     21  H31 UNL     1      22.746  31.045  17.491  1.00  0.00     0.276 HD
ENDBRANCH  17  18
BRANCH  17  22
HETATM   22  N4  UNL     1      24.215  29.141  18.852  1.00  0.00    -0.048 N 
ATOM     23  H43 UNL     1      23.507  28.714  19.449  1.00  0.00     0.276 HD
ATOM     24  H42 UNL     1      23.915  28.770  17.950  1.00  0.00     0.276 HD
ATOM     25  H41 UNL     1      25.149  28.807  19.093  1.00  0.00     0.276 HD
ENDBRANCH  17  22
ENDBRANCH   1  17
TORSDOF 5
ENDMDL
MODEL 3
REMARK VINA RESULT: -4.608944310      1.720      5.175
REMARK  5 active torsions:
REMARK  status: ('A' for Active; 'I' for Inactive)
REMARK    1  A    between atoms: C3_6  and  C4_7 
REMARK    2  A    between atoms: C4_7  and  N2_8 
REMARK    3  A    between atoms: C4_7  and  C5_12 
REMARK    4  A    between atoms: C5_12  and  N3_13 
REMARK    5  A    between atoms: C5_12  and  N4_17 
ROOT
HETATM    1  C4  UNL     1      25.757  31.456  19.206  1.00  0.00     0.290 C 
ENDROOT
BRANCH   1   2
HETATM    2  C3  UNL     1      25.642  32.585  20.107  1.00  0.00     0.048 A 
HETATM    3  C2  UNL     1      26.561  33.590  20.196  1.00  0.00     0.075 A 
HETATM    4  C1  UNL     1      26.354  34.643  21.097  1.00  0.00     0.101 A 
HETATM    5  N1  UNL     1      27.209  35.610  21.203  1.00  0.00    -0.385 N 
HETATM    6  N6  UNL     1      25.260  34.680  21.879  1.00  0.00    -0.339 N 
ATOM      7  H12 UNL     1      28.038  35.582  20.610  1.00  0.00     0.157 HD
ATOM      8  H11 UNL     1      27.058  36.376  21.858  1.00  0.00     0.157 HD
HETATM    9  C6  UNL     1      24.373  33.679  21.770  1.00  0.00     0.182 A 
ATOM     10  H6  UNL     1      25.110  35.446  22.536  1.00  0.00     0.168 HD
HETATM   11  N5  UNL     1      24.565  32.671  20.913  1.00  0.00    -0.354 N 
ATOM     12  H5  UNL     1      23.864  31.933  20.867  1.00  0.00     0.166 HD
ENDBRANCH   1   2
BRANCH   1  13
HETATM   13  N2  UNL     1      26.109  31.988  17.878  1.00  0.00    -0.066 N 
ATOM     14  H23 UNL     1      25.600  32.840  17.642  1.00  0.00     0.275 HD
ATOM     15  H22 UNL     1      27.050  32.382  17.843  1.00  0.00     0.275 HD
ATOM     16  H21 UNL     1      25.966  31.238  17.202  1.00  0.00     0.275 HD
ENDBRANCH   1  13
BRANCH   1  17
HETATM   17  C5  UNL     1      24.569  30.582  19.033  1.00  0.00     0.413 C 
BRANCH  17  18
HETATM   18  N3  UNL     1      23.888  31.118  17.828  1.00  0.00    -0.048 N 
ATOM     19  H33 UNL     1      24.409  31.852  17.347  1.00  0.00     0.276 HD
ATOM     20  H32 UNL     1      23.857  30.468  17.043  1.00  0.00     0.276 HD
ATOM     21  H31 UNL     1      22.970  31.410  18.164  1.00  0.00     0.276 HD
ENDBRANCH  17  18
BRANCH  17  22
HETATM   22  N4  UNL     1      24.926  29.214  18.661  1.00  0.00    -0.048 N 
ATOM     23  H43 UNL     1      24.612  28.998  17.714  1.00  0.00     0.276 HD
ATOM     24  H42 UNL     1      25.932  29.122  18.526  1.00  0.00     0.276 HD
ATOM     25  H41 UNL     1      24.580  28.523  19.327  1.00  0.00     0.276 HD
ENDBRANCH  17  22
ENDBRANCH   1  17
TORSDOF 5
ENDMDL
MODEL 4
REMARK VINA RESULT: -4.470109295      1.061      1.759
REMARK  5 active torsions:
REMARK  status: ('A' for Active; 'I' for Inactive)
REMARK    1  A    between atoms: C3_6  and  C4_7 
REMARK    2  A    between atoms: C4_7  and  N2_8 
REMARK    3  A    between atoms: C4_7  and  C5_12 
REMARK    4  A    between atoms: C5_12  and  N3_13 
REMARK    5  A    between atoms: C5_12  and  N4_17 
ROOT
HETATM    1  C4  UNL     1      26.980  35.775  20.523  1.00  0.00     0.290 C 
ENDROOT
BRANCH   1   2
HETATM    2  C3  UNL     1      26.662  34.496  19.920  1.00  0.00     0.048 A 
HETATM    3  C2  UNL     1      27.068  34.116  18.673  1.00  0.00     0.075 A 
HETATM    4  C1  UNL     1      26.711  32.854  18.182  1.00  0.00     0.101 A 
HETATM    5  N1  UNL     1      27.082  32.466  17.003  1.00  0.00    -0.385 N 
HETATM    6  N6  UNL     1      25.974  32.006  18.921  1.00  0.00    -0.339 N 
ATOM      7  H12 UNL     1      27.641  33.109  16.443  1.00  0.00     0.157 HD
ATOM      8  H11 UNL     1      26.823  31.547  16.645  1.00  0.00     0.157 HD
HETATM    9  C6  UNL     1      25.590  32.405  20.143  1.00  0.00     0.182 A 
ATOM     10  H6  UNL     1      25.713  31.086  18.563  1.00  0.00     0.168 HD
HETATM   11  N5  UNL     1      25.926  33.609  20.618  1.00  0.00    -0.354 N 
ATOM     12  H5  UNL     1      25.609  33.869  21.551  1.00  0.00     0.166 HD
ENDBRANCH   1   2
BRANCH   1  13
HETATM   13  N2  UNL     1      28.116  36.342  19.775  1.00  0.00    -0.066 N 
ATOM     14  H23 UNL     1      28.005  37.336  19.576  1.00  0.00     0.275 HD
ATOM     15  H22 UNL     1      28.966  36.413  20.335  1.00  0.00     0.275 HD
ATOM     16  H21 UNL     1      28.238  35.778  18.935  1.00  0.00     0.275 HD
ENDBRANCH   1  13
BRANCH   1  17
HETATM   17  C5  UNL     1      27.344  35.792  21.963  1.00  0.00     0.413 C 
BRANCH  17  18
HETATM   18  N3  UNL     1      28.826  35.873  21.969  1.00  0.00    -0.048 N 
ATOM     19  H33 UNL     1      29.257  35.683  21.064  1.00  0.00     0.276 HD
ATOM     20  H32 UNL     1      29.190  36.821  22.071  1.00  0.00     0.276 HD
ATOM     21  H31 UNL     1      29.113  35.234  22.711  1.00  0.00     0.276 HD
ENDBRANCH  17  18
BRANCH  17  22
HETATM   22  N4  UNL     1      26.917  37.016  22.637  1.00  0.00    -0.048 N 
ATOM     23  H43 UNL     1      27.188  37.007  23.620  1.00  0.00     0.276 HD
ATOM     24  H42 UNL     1      27.465  37.817  22.323  1.00  0.00     0.276 HD
ATOM     25  H41 UNL     1      25.918  37.194  22.534  1.00  0.00     0.276 HD
ENDBRANCH  17  22
ENDBRANCH   1  17
TORSDOF 5
ENDMDL
MODEL 5
REMARK VINA RESULT: -4.266414167      1.558      4.897
REMARK  5 active torsions:
REMARK  status: ('A' for Active; 'I' for Inactive)
REMARK    1  A    between atoms: C3_6  and  C4_7 
REMARK    2  A    between atoms: C4_7  and  N2_8 
REMARK    3  A    between atoms: C4_7  and  C5_12 
REMARK    4  A    between atoms: C5_12  and  N3_13 
REMARK    5  A    between atoms: C5_12  and  N4_17 
ROOT
HETATM    1  C4  UNL     1      24.909  31.479  19.468  1.00  0.00     0.290 C 
ENDROOT
BRANCH   1   2
HETATM    2  C3  UNL     1      25.599  32.735  19.684  1.00  0.00     0.048 A 
HETATM    3  C2  UNL     1      25.543  33.449  20.847  1.00  0.00     0.075 A 
HETATM    4  C1  UNL     1      26.252  34.652  20.957  1.00  0.00     0.101 A 
HETATM    5  N1  UNL     1      26.218  35.349  22.047  1.00  0.00    -0.385 N 
HETATM    6  N6  UNL     1      26.989  35.118  19.933  1.00  0.00    -0.339 N 
ATOM      7  H12 UNL     1      25.659  34.996  22.824  1.00  0.00     0.157 HD
ATOM      8  H11 UNL     1      26.734  36.225  22.129  1.00  0.00     0.157 HD
HETATM    9  C6  UNL     1      27.027  34.395  18.803  1.00  0.00     0.182 A 
ATOM     10  H6  UNL     1      27.505  35.995  20.014  1.00  0.00     0.168 HD
HETATM   11  N5  UNL     1      26.352  33.247  18.690  1.00  0.00    -0.354 N 
ATOM     12  H5  UNL     1      26.409  32.734  17.811  1.00  0.00     0.166 HD
ENDBRANCH   1   2
BRANCH   1  13
HETATM   13  N2  UNL     1      25.835  30.398  19.851  1.00  0.00    -0.066 N 
ATOM     14  H23 UNL     1      26.656  30.736  20.353  1.00  0.00     0.275 HD
ATOM     15  H22 UNL     1      25.465  29.799  20.589  1.00  0.00     0.275 HD
ATOM     16  H21 UNL     1      26.071  29.886  19.001  1.00  0.00     0.275 HD
ENDBRANCH   1  13
BRANCH   1  17
HETATM   17  C5  UNL     1      24.423  31.181  18.096  1.00  0.00     0.413 C 
BRANCH  17  18
HETATM   18  N3  UNL     1      24.952  29.826  17.803  1.00  0.00    -0.048 N 
ATOM     19  H33 UNL     1      25.626  29.799  17.038  1.00  0.00     0.276 HD
ATOM     20  H32 UNL     1      25.578  29.459  18.519  1.00  0.00     0.276 HD
ATOM     21  H31 UNL     1      24.119  29.257  17.646  1.00  0.00     0.276 HD
ENDBRANCH  17  18
BRANCH  17  22
HETATM   22  N4  UNL     1      22.972  31.018  18.037  1.00  0.00    -0.048 N 
ATOM     23  H43 UNL     1      22.495  31.873  18.322  1.00  0.00     0.276 HD
ATOM     24  H42 UNL     1      22.649  30.963  17.071  1.00  0.00     0.276 HD
ATOM     25  H41 UNL     1      22.644  30.217  18.579  1.00  0.00     0.276 HD
ENDBRANCH  17  22
ENDBRANCH   1  17
TORSDOF 5
ENDMDL
