MODEL 1
REMARK VINA RESULT: -4.855412913      0.000      0.000
REMARK  4 active torsions:
REMARK  status: ('A' for Active; 'I' for Inactive)
REMARK    1  A    between atoms: C2_2  and  N1_3 
REMARK    2  A    between atoms: N1_3  and  N2_4 
REMARK    3  A    between atoms: N1_3  and  C3_7 
REMARK    4  A    between atoms: C4_10  and  N4_11 
ROOT
HETATM    1  C3  UNL     1      25.157  31.420  18.905  1.00  0.00     0.727 A 
HETATM    2  N3  UNL     1      24.887  32.053  20.083  1.00  0.00    -0.020 N 
ATOM      3  H3  UNL     1      24.236  31.630  20.745  1.00  0.00     0.203 HD
HETATM    4  C4  UNL     1      25.467  33.225  20.382  1.00  0.00     0.705 A 
HETATM    5  N5  UNL     1      26.334  33.831  19.550  1.00  0.00    -0.022 N 
ATOM      6  H5  UNL     1      26.767  34.722  19.793  1.00  0.00     0.203 HD
HETATM    7  C5  UNL     1      26.608  33.217  18.389  1.00  0.00     0.705 A 
HETATM    8  N6  UNL     1      27.434  33.765  17.562  1.00  0.00    -0.234 N 
ATOM      9  H61 UNL     1      27.642  33.299  16.679  1.00  0.00     0.174 HD
ATOM     10  H62 UNL     1      27.875  34.657  17.790  1.00  0.00     0.174 HD
HETATM   11  N7  UNL     1      26.016  32.021  18.082  1.00  0.00    -0.020 N 
ATOM     12  H7  UNL     1      26.240  31.575  17.193  1.00  0.00     0.203 HD
ENDROOT
BRANCH   1  13
HETATM   13  N1  UNL     1      24.536  30.186  18.604  1.00  0.00    -0.130 N 
BRANCH  13  14
HETATM   14  C2  UNL     1      23.138  30.041  18.389  1.00  0.00     0.163 C 
HETATM   15  C1  UNL     1      22.767  30.849  17.157  1.00  0.00     0.029 C 
ENDBRANCH  13  14
BRANCH  13  16
HETATM   16  N2  UNL     1      25.321  29.014  18.509  1.00  0.00    -0.329 N 
ATOM     17  H22 UNL     1      24.880  28.133  18.246  1.00  0.00     0.177 HD
ATOM     18  H21 UNL     1      26.317  29.109  18.709  1.00  0.00     0.177 HD
ENDBRANCH  13  16
ENDBRANCH   1  13
BRANCH   4  19
HETATM   19  N4  UNL     1      25.226  33.855  21.506  1.00  0.00    -0.234 N 
ATOM     20  H42 UNL     1      25.350  33.305  22.356  1.00  0.00     0.174 HD
ATOM     21  H41 UNL     1      24.933  34.833  21.528  1.00  0.00     0.174 HD
ENDBRANCH   4  19
TORSDOF 4
ENDMDL
MODEL 2
REMARK VINA RESULT: -4.832420681      1.877      2.787
REMARK  4 active torsions:
REMARK  status: ('A' for Active; 'I' for Inactive)
REMARK    1  A    between atoms: C2_2  and  N1_3 
REMARK    2  A    between atoms: N1_3  and  N2_4 
REMARK    3  A    between atoms: N1_3  and  C3_7 
REMARK    4  A    between atoms: C4_10  and  N4_11 
ROOT
HETATM    1  C3  UNL     1      26.238  33.581  19.882  1.00  0.00     0.727 A 
HETATM    2  N3  UNL     1      25.653  33.874  21.079  1.00  0.00    -0.020 N 
ATOM      3  H3  UNL     1      25.008  33.206  21.501  1.00  0.00     0.203 HD
HETATM    4  C4  UNL     1      25.916  35.029  21.708  1.00  0.00     0.705 A 
HETATM    5  N5  UNL     1      26.759  35.948  21.201  1.00  0.00    -0.022 N 
ATOM      6  H5  UNL     1      26.948  36.821  21.693  1.00  0.00     0.203 HD
HETATM    7  C5  UNL     1      27.340  35.670  20.024  1.00  0.00     0.705 A 
HETATM    8  N6  UNL     1      28.155  36.526  19.503  1.00  0.00    -0.234 N 
ATOM      9  H61 UNL     1      28.597  36.315  18.609  1.00  0.00     0.174 HD
ATOM     10  H62 UNL     1      28.355  37.404  19.982  1.00  0.00     0.174 HD
HETATM   11  N7  UNL     1      27.072  34.492  19.381  1.00  0.00    -0.020 N 
ATOM     12  H7  UNL     1      27.527  34.305  18.488  1.00  0.00     0.203 HD
ENDROOT
BRANCH   1  13
HETATM   13  N1  UNL     1      25.949  32.359  19.230  1.00  0.00    -0.130 N 
BRANCH  13  14
HETATM   14  C2  UNL     1      25.241  31.291  19.843  1.00  0.00     0.163 C 
HETATM   15  C1  UNL     1      25.035  30.205  18.800  1.00  0.00     0.029 C 
ENDBRANCH  13  14
BRANCH  13  16
HETATM   16  N2  UNL     1      26.379  32.160  17.899  1.00  0.00    -0.329 N 
ATOM     17  H22 UNL     1      26.693  31.236  17.604  1.00  0.00     0.177 HD
ATOM     18  H21 UNL     1      26.350  32.970  17.279  1.00  0.00     0.177 HD
ENDBRANCH  13  16
ENDBRANCH   1  13
BRANCH   4  19
HETATM   19  N4  UNL     1      25.368  35.336  22.859  1.00  0.00    -0.234 N 
ATOM     20  H42 UNL     1      25.083  34.546  23.437  1.00  0.00     0.174 HD
ATOM     21  H41 UNL     1      25.236  36.303  23.156  1.00  0.00     0.174 HD
ENDBRANCH   4  19
TORSDOF 4
ENDMDL
MODEL 3
REMARK VINA RESULT: -4.828315473      0.027      2.273
REMARK  4 active torsions:
REMARK  status: ('A' for Active; 'I' for Inactive)
REMARK    1  A    between atoms: C2_2  and  N1_3 
REMARK    2  A    between atoms: N1_3  and  N2_4 
REMARK    3  A    between atoms: N1_3  and  C3_7 
REMARK    4  A    between atoms: C4_10  and  N4_11 
ROOT
HETATM    1  C3  UNL     1      25.131  31.422  18.947  1.00  0.00     0.727 A 
HETATM    2  N3  UNL     1      26.007  32.006  18.079  1.00  0.00    -0.020 N 
ATOM      3  H3  UNL     1      26.220  31.548  17.193  1.00  0.00     0.203 HD
HETATM    4  C4  UNL     1      26.593  33.176  18.377  1.00  0.00     0.705 A 
HETATM    5  N5  UNL     1      26.352  33.827  19.530  1.00  0.00    -0.022 N 
ATOM      6  H5  UNL     1      26.806  34.716  19.742  1.00  0.00     0.203 HD
HETATM    7  C5  UNL     1      25.491  33.262  20.391  1.00  0.00     0.705 A 
HETATM    8  N6  UNL     1      25.232  33.855  21.509  1.00  0.00    -0.234 N 
ATOM      9  H61 UNL     1      24.579  33.425  22.163  1.00  0.00     0.174 HD
ATOM     10  H62 UNL     1      25.679  34.744  21.735  1.00  0.00     0.174 HD
HETATM   11  N7  UNL     1      24.893  32.068  20.088  1.00  0.00    -0.020 N 
ATOM     12  H7  UNL     1      24.243  31.660  20.759  1.00  0.00     0.203 HD
ENDROOT
BRANCH   1  13
HETATM   13  N1  UNL     1      24.523  30.188  18.618  1.00  0.00    -0.130 N 
BRANCH  13  14
HETATM   14  C2  UNL     1      23.129  30.035  18.392  1.00  0.00     0.163 C 
HETATM   15  C1  UNL     1      22.760  30.849  17.163  1.00  0.00     0.029 C 
ENDBRANCH  13  14
BRANCH  13  16
HETATM   16  N2  UNL     1      25.320  29.026  18.507  1.00  0.00    -0.329 N 
ATOM     17  H22 UNL     1      25.045  28.288  17.859  1.00  0.00     0.177 HD
ATOM     18  H21 UNL     1      26.155  28.982  19.091  1.00  0.00     0.177 HD
ENDBRANCH  13  16
ENDBRANCH   1  13
BRANCH   4  19
HETATM   19  N4  UNL     1      27.439  33.759  17.563  1.00  0.00    -0.234 N 
ATOM     20  H42 UNL     1      27.676  34.724  17.791  1.00  0.00     0.174 HD
ATOM     21  H41 UNL     1      27.834  33.277  16.755  1.00  0.00     0.174 HD
ENDBRANCH   4  19
TORSDOF 4
ENDMDL
MODEL 4
REMARK VINA RESULT: -4.705045075      2.146      3.867
REMARK  4 active torsions:
REMARK  status: ('A' for Active; 'I' for Inactive)
REMARK    1  A    between atoms: C2_2  and  N1_3 
REMARK    2  A    between atoms: N1_3  and  N2_4 
REMARK    3  A    between atoms: N1_3  and  C3_7 
REMARK    4  A    between atoms: C4_10  and  N4_11 
ROOT
HETATM    1  C3  UNL     1      26.331  33.903  20.164  1.00  0.00     0.727 A 
HETATM    2  N3  UNL     1      27.198  34.777  19.574  1.00  0.00    -0.020 N 
ATOM      3  H3  UNL     1      27.618  34.541  18.675  1.00  0.00     0.203 HD
HETATM    4  C4  UNL     1      27.503  35.944  20.161  1.00  0.00     0.705 A 
HETATM    5  N5  UNL     1      26.980  36.311  21.346  1.00  0.00    -0.022 N 
ATOM      6  H5  UNL     1      27.223  37.202  21.779  1.00  0.00     0.203 HD
HETATM    7  C5  UNL     1      26.127  35.459  21.935  1.00  0.00     0.705 A 
HETATM    8  N6  UNL     1      25.603  35.774  23.073  1.00  0.00    -0.234 N 
ATOM      9  H61 UNL     1      24.954  35.127  23.521  1.00  0.00     0.174 HD
ATOM     10  H62 UNL     1      25.836  36.661  23.519  1.00  0.00     0.174 HD
HETATM   11  N7  UNL     1      25.814  34.268  21.337  1.00  0.00    -0.020 N 
ATOM     12  H7  UNL     1      25.163  33.639  21.805  1.00  0.00     0.203 HD
ENDROOT
BRANCH   1  13
HETATM   13  N1  UNL     1      26.020  32.676  19.532  1.00  0.00    -0.130 N 
BRANCH  13  14
HETATM   14  C2  UNL     1      25.333  31.613  20.177  1.00  0.00     0.163 C 
HETATM   15  C1  UNL     1      25.135  30.499  19.162  1.00  0.00     0.029 C 
ENDBRANCH  13  14
BRANCH  13  16
HETATM   16  N2  UNL     1      26.406  32.467  18.189  1.00  0.00    -0.329 N 
ATOM     17  H22 UNL     1      26.662  31.529  17.879  1.00  0.00     0.177 HD
ATOM     18  H21 UNL     1      26.406  33.283  17.576  1.00  0.00     0.177 HD
ENDBRANCH  13  16
ENDBRANCH   1  13
BRANCH   4  19
HETATM   19  N4  UNL     1      28.333  36.801  19.617  1.00  0.00    -0.234 N 
ATOM     20  H42 UNL     1      29.324  36.593  19.736  1.00  0.00     0.174 HD
ATOM     21  H41 UNL     1      28.006  37.623  19.108  1.00  0.00     0.174 HD
ENDBRANCH   4  19
TORSDOF 4
ENDMDL
MODEL 5
REMARK VINA RESULT: -4.667310587      1.730      2.640
REMARK  4 active torsions:
REMARK  status: ('A' for Active; 'I' for Inactive)
REMARK    1  A    between atoms: C2_2  and  N1_3 
REMARK    2  A    between atoms: N1_3  and  N2_4 
REMARK    3  A    between atoms: N1_3  and  C3_7 
REMARK    4  A    between atoms: C4_10  and  N4_11 
ROOT
HETATM    1  C3  UNL     1      25.449  32.875  20.127  1.00  0.00     0.727 A 
HETATM    2  N3  UNL     1      24.387  33.134  20.943  1.00  0.00    -0.020 N 
ATOM      3  H3  UNL     1      23.520  32.611  20.823  1.00  0.00     0.203 HD
HETATM    4  C4  UNL     1      24.468  34.069  21.902  1.00  0.00     0.705 A 
HETATM    5  N5  UNL     1      25.584  34.791  22.109  1.00  0.00    -0.022 N 
ATOM      6  H5  UNL     1      25.630  35.498  22.842  1.00  0.00     0.203 HD
HETATM    7  C5  UNL     1      26.636  34.545  21.312  1.00  0.00     0.705 A 
HETATM    8  N6  UNL     1      27.727  35.217  21.477  1.00  0.00    -0.234 N 
ATOM      9  H61 UNL     1      28.526  35.030  20.872  1.00  0.00     0.174 HD
ATOM     10  H62 UNL     1      27.788  35.927  22.207  1.00  0.00     0.174 HD
HETATM   11  N7  UNL     1      26.554  33.591  20.333  1.00  0.00    -0.020 N 
ATOM     12  H7  UNL     1      27.368  33.423  19.741  1.00  0.00     0.203 HD
ENDROOT
BRANCH   1  13
HETATM   13  N1  UNL     1      25.347  31.888  19.120  1.00  0.00    -0.130 N 
BRANCH  13  14
HETATM   14  C2  UNL     1      24.401  30.828  19.152  1.00  0.00     0.163 C 
HETATM   15  C1  UNL     1      25.081  29.576  18.625  1.00  0.00     0.029 C 
ENDBRANCH  13  14
BRANCH  13  16
HETATM   16  N2  UNL     1      26.223  31.929  18.011  1.00  0.00    -0.329 N 
ATOM     17  H22 UNL     1      26.458  31.065  17.523  1.00  0.00     0.177 HD
ATOM     18  H21 UNL     1      26.585  32.844  17.743  1.00  0.00     0.177 HD
ENDBRANCH  13  16
ENDBRANCH   1  13
BRANCH   4  19
HETATM   19  N4  UNL     1      23.463  34.338  22.699  1.00  0.00    -0.234 N 
ATOM     20  H42 UNL     1      22.700  33.662  22.691  1.00  0.00     0.174 HD
ATOM     21  H41 UNL     1      23.446  35.171  23.289  1.00  0.00     0.174 HD
ENDBRANCH   4  19
TORSDOF 4
ENDMDL
