MODEL 1
REMARK VINA RESULT: -7.940611086      0.000      0.000
REMARK  13 active torsions:
REMARK  status: ('A' for Active; 'I' for Inactive)
REMARK    1  A    between atoms: N1_1  and  C1_4 
REMARK    2  A    between atoms: C2_7  and  N3_8 
REMARK    3  A    between atoms: C3_9  and  C4_10 
REMARK    4  A    between atoms: C8_19  and  N7_20 
REMARK    5  A    between atoms: C9_25  and  N9_26 
REMARK    6  A    between atoms: N9_26  and  O1_28 
REMARK    7  A    between atoms: O1_28  and  C10_29 
REMARK    8  A    between atoms: C10_29  and  C11_30 
REMARK    9  A    between atoms: C10_29  and  C12_33 
REMARK   10  A    between atoms: C11_30  and  O2_31 
REMARK   11  A    between atoms: C12_33  and  O3_34 
REMARK   12  A    between atoms: C12_33  and  O4_36 
REMARK   13  A    between atoms: C14_43  and  N12_44 
ROOT
HETATM    1  N3  UNL     1      14.493  23.540  41.874  1.00  0.00     0.045 N 
HETATM    2  C3  UNL     1      14.187  23.669  43.134  1.00  0.00     0.180 A 
HETATM    3  N5  UNL     1      13.041  24.421  43.253  1.00  0.00    -0.247 N 
ATOM      4  H5  UNL     1      12.575  24.677  44.124  1.00  0.00     0.190 HD
HETATM    5  N6  UNL     1      12.655  24.750  42.042  1.00  0.00     0.093 N 
HETATM    6  C8  UNL     1      11.587  25.482  41.630  1.00  0.00     0.727 A 
HETATM    7  N8  UNL     1      11.458  25.647  40.304  1.00  0.00    -0.018 N 
ATOM      8  H8  UNL     1      10.670  26.191  39.952  1.00  0.00     0.203 HD
HETATM    9  C9  UNL     1      12.326  25.124  39.420  1.00  0.00     0.731 A 
HETATM   10  N10 UNL     1      13.377  24.400  39.843  1.00  0.00    -0.017 N 
ATOM     11  H10 UNL     1      14.040  23.998  39.181  1.00  0.00     0.203 HD
HETATM   12  C13 UNL     1      13.526  24.223  41.167  1.00  0.00     0.756 A 
ENDROOT
BRANCH   1  13
HETATM   13  C2  UNL     1      15.568  22.863  41.252  1.00  0.00     0.734 A 
HETATM   14  N2  UNL     1      15.616  21.509  41.094  1.00  0.00    -0.020 N 
HETATM   15  C1  UNL     1      16.608  20.870  40.494  1.00  0.00     0.705 A 
ATOM     16  H2  UNL     1      14.841  20.956  41.460  1.00  0.00     0.203 HD
HETATM   17  N13 UNL     1      17.638  21.546  40.004  1.00  0.00    -0.022 N 
HETATM   18  C14 UNL     1      17.654  22.891  40.127  1.00  0.00     0.705 A 
ATOM     19  H13 UNL     1      18.405  21.058  39.542  1.00  0.00     0.203 HD
HETATM   20  N11 UNL     1      16.642  23.530  40.736  1.00  0.00    -0.020 N 
ATOM     21  H11 UNL     1      16.676  24.546  40.816  1.00  0.00     0.203 HD
BRANCH  15  22
HETATM   22  N1  UNL     1      16.527  19.577  40.412  1.00  0.00    -0.234 N 
ATOM     23  H12 UNL     1      15.792  19.047  40.883  1.00  0.00     0.174 HD
ATOM     24  H11 UNL     1      17.230  19.095  39.851  1.00  0.00     0.174 HD
ENDBRANCH  15  22
BRANCH  18  25
HETATM   25  N12 UNL     1      18.674  23.507  39.635  1.00  0.00    -0.234 N 
ATOM     26 2H12 UNL     1      18.526  24.467  39.326  1.00  0.00     0.174 HD
ATOM     27 1H12 UNL     1      19.593  23.074  39.549  1.00  0.00     0.174 HD
ENDBRANCH  18  25
ENDBRANCH   1  13
BRANCH   2  28
HETATM   28  C4  UNL     1      14.888  23.134  44.312  1.00  0.00     0.053 A 
HETATM   29  C5  UNL     1      14.713  22.032  45.079  1.00  0.00     0.050 A 
HETATM   30  C6  UNL     1      15.551  21.830  46.113  1.00  0.00     0.054 A 
HETATM   31  N4  UNL     1      15.436  20.670  46.991  1.00  0.00    -0.102 NA
HETATM   32  C7  UNL     1      16.531  22.758  46.319  1.00  0.00     0.077 A 
HETATM   33  S1  UNL     1      16.257  23.882  45.073  1.00  0.00    -0.096 SA
ENDBRANCH   2  28
BRANCH   6  34
HETATM   34  N7  UNL     1      10.758  25.982  42.479  1.00  0.00    -0.232 N 
ATOM     35  H72 UNL     1      10.975  26.079  43.471  1.00  0.00     0.174 HD
ATOM     36  H71 UNL     1       9.836  26.304  42.186  1.00  0.00     0.174 HD
ENDBRANCH   6  34
BRANCH   9  37
HETATM   37  N9  UNL     1      12.164  25.305  38.159  1.00  0.00    -0.095 N 
ATOM     38  H9  UNL     1      12.894  25.766  37.616  1.00  0.00     0.213 HD
BRANCH  37  39
HETATM   39  O1  UNL     1      11.013  24.881  37.538  1.00  0.00    -0.254 OA
BRANCH  39  40
HETATM   40  C10 UNL     1      10.294  25.757  36.685  1.00  0.00     0.231 C 
BRANCH  40  41
HETATM   41  C11 UNL     1       9.871  27.021  37.415  1.00  0.00     0.203 C 
BRANCH  41  42
HETATM   42  O2  UNL     1      10.052  28.087  36.551  1.00  0.00    -0.398 OA
ATOM     43  H2  UNL     1      10.871  28.510  36.780  1.00  0.00     0.209 HD
ENDBRANCH  41  42
ENDBRANCH  40  41
BRANCH  40  44
HETATM   44  C12 UNL     1       9.043  25.105  36.157  1.00  0.00     0.287 C 
BRANCH  44  45
HETATM   45  O3  UNL     1       7.946  25.930  36.428  1.00  0.00    -0.369 OA
ATOM     46  H3  UNL     1       7.146  25.426  36.336  1.00  0.00     0.212 HD
ENDBRANCH  44  45
BRANCH  44  47
HETATM   47  O4  UNL     1       8.878  23.820  36.623  1.00  0.00    -0.369 OA
ATOM     48  H4  UNL     1       8.061  23.429  36.336  1.00  0.00     0.212 HD
ENDBRANCH  44  47
ENDBRANCH  40  44
ENDBRANCH  39  40
ENDBRANCH  37  39
ENDBRANCH   9  37
TORSDOF 13
ENDMDL
MODEL 2
REMARK VINA RESULT: -7.914628223      0.093      1.398
REMARK  13 active torsions:
REMARK  status: ('A' for Active; 'I' for Inactive)
REMARK    1  A    between atoms: N1_1  and  C1_4 
REMARK    2  A    between atoms: C2_7  and  N3_8 
REMARK    3  A    between atoms: C3_9  and  C4_10 
REMARK    4  A    between atoms: C8_19  and  N7_20 
REMARK    5  A    between atoms: C9_25  and  N9_26 
REMARK    6  A    between atoms: N9_26  and  O1_28 
REMARK    7  A    between atoms: O1_28  and  C10_29 
REMARK    8  A    between atoms: C10_29  and  C11_30 
REMARK    9  A    between atoms: C10_29  and  C12_33 
REMARK   10  A    between atoms: C11_30  and  O2_31 
REMARK   11  A    between atoms: C12_33  and  O3_34 
REMARK   12  A    between atoms: C12_33  and  O4_36 
REMARK   13  A    between atoms: C14_43  and  N12_44 
ROOT
HETATM    1  N3  UNL     1      14.518  23.505  41.899  1.00  0.00     0.045 N 
HETATM    2  C3  UNL     1      14.234  23.646  43.163  1.00  0.00     0.180 A 
HETATM    3  N5  UNL     1      13.097  24.410  43.294  1.00  0.00    -0.247 N 
ATOM      4  H5  UNL     1      12.647  24.677  44.170  1.00  0.00     0.190 HD
HETATM    5  N6  UNL     1      12.694  24.734  42.087  1.00  0.00     0.093 N 
HETATM    6  C8  UNL     1      11.627  25.473  41.686  1.00  0.00     0.727 A 
HETATM    7  N8  UNL     1      11.479  25.630  40.360  1.00  0.00    -0.018 N 
ATOM      8  H8  UNL     1      10.690  26.179  40.017  1.00  0.00     0.203 HD
HETATM    9  C9  UNL     1      12.327  25.091  39.467  1.00  0.00     0.731 A 
HETATM   10  N10 UNL     1      13.378  24.360  39.879  1.00  0.00    -0.017 N 
ATOM     11  H10 UNL     1      14.026  23.947  39.209  1.00  0.00     0.203 HD
HETATM   12  C13 UNL     1      13.547  24.192  41.202  1.00  0.00     0.756 A 
ENDROOT
BRANCH   1  13
HETATM   13  C2  UNL     1      15.576  22.813  41.265  1.00  0.00     0.734 A 
HETATM   14  N2  UNL     1      16.633  23.435  40.667  1.00  0.00    -0.020 N 
HETATM   15  C1  UNL     1      17.638  22.793  40.090  1.00  0.00     0.705 A 
ATOM     16  H2  UNL     1      16.650  24.454  40.663  1.00  0.00     0.203 HD
HETATM   17  N13 UNL     1      17.659  21.468  40.068  1.00  0.00    -0.022 N 
HETATM   18  C14 UNL     1      16.643  20.789  40.643  1.00  0.00     0.705 A 
ATOM     19  H13 UNL     1      18.430  20.969  39.624  1.00  0.00     0.203 HD
HETATM   20  N11 UNL     1      15.628  21.449  41.226  1.00  0.00    -0.020 N 
ATOM     21  H11 UNL     1      14.872  20.914  41.654  1.00  0.00     0.203 HD
BRANCH  15  22
HETATM   22  N1  UNL     1      18.580  23.510  39.558  1.00  0.00    -0.234 N 
ATOM     23  H12 UNL     1      18.722  23.558  38.548  1.00  0.00     0.174 HD
ATOM     24  H11 UNL     1      19.187  24.035  40.188  1.00  0.00     0.174 HD
ENDBRANCH  15  22
BRANCH  18  25
HETATM   25  N12 UNL     1      16.705  19.502  40.599  1.00  0.00    -0.234 N 
ATOM     26 2H12 UNL     1      15.959  18.989  41.067  1.00  0.00     0.174 HD
ATOM     27 1H12 UNL     1      17.456  19.001  40.124  1.00  0.00     0.174 HD
ENDBRANCH  18  25
ENDBRANCH   1  13
BRANCH   2  28
HETATM   28  C4  UNL     1      14.947  23.113  44.333  1.00  0.00     0.053 A 
HETATM   29  C5  UNL     1      14.793  22.003  45.092  1.00  0.00     0.050 A 
HETATM   30  C6  UNL     1      15.639  21.806  46.121  1.00  0.00     0.054 A 
HETATM   31  N4  UNL     1      15.546  20.638  46.991  1.00  0.00    -0.102 NA
HETATM   32  C7  UNL     1      16.606  22.747  46.329  1.00  0.00     0.077 A 
HETATM   33  S1  UNL     1      16.310  23.876  45.093  1.00  0.00    -0.096 SA
ENDBRANCH   2  28
BRANCH   6  34
HETATM   34  N7  UNL     1      10.817  25.987  42.544  1.00  0.00    -0.232 N 
ATOM     35  H72 UNL     1       9.804  25.877  42.483  1.00  0.00     0.174 HD
ATOM     36  H71 UNL     1      11.163  26.536  43.331  1.00  0.00     0.174 HD
ENDBRANCH   6  34
BRANCH   9  37
HETATM   37  N9  UNL     1      12.147  25.265  38.208  1.00  0.00    -0.095 N 
ATOM     38  H9  UNL     1      12.885  25.688  37.644  1.00  0.00     0.213 HD
BRANCH  37  39
HETATM   39  O1  UNL     1      10.967  24.884  37.615  1.00  0.00    -0.254 OA
BRANCH  39  40
HETATM   40  C10 UNL     1      10.292  25.762  36.730  1.00  0.00     0.231 C 
BRANCH  40  41
HETATM   41  C11 UNL     1       9.861  27.038  37.434  1.00  0.00     0.203 C 
BRANCH  41  42
HETATM   42  O2  UNL     1      10.058  28.091  36.557  1.00  0.00    -0.398 OA
ATOM     43  H2  UNL     1       9.216  28.312  36.176  1.00  0.00     0.209 HD
ENDBRANCH  41  42
ENDBRANCH  40  41
BRANCH  40  44
HETATM   44  C12 UNL     1       9.052  25.125  36.162  1.00  0.00     0.287 C 
BRANCH  44  45
HETATM   45  O3  UNL     1       7.949  25.942  36.433  1.00  0.00    -0.369 OA
ATOM     46  H3  UNL     1       7.155  25.494  36.166  1.00  0.00     0.212 HD
ENDBRANCH  44  45
BRANCH  44  47
HETATM   47  O4  UNL     1       8.878  23.827  36.591  1.00  0.00    -0.369 OA
ATOM     48  H4  UNL     1       8.914  23.199  35.880  1.00  0.00     0.212 HD
ENDBRANCH  44  47
ENDBRANCH  40  44
ENDBRANCH  39  40
ENDBRANCH  37  39
ENDBRANCH   9  37
TORSDOF 13
ENDMDL
MODEL 3
REMARK VINA RESULT: -7.767821510      0.540      1.342
REMARK  13 active torsions:
REMARK  status: ('A' for Active; 'I' for Inactive)
REMARK    1  A    between atoms: N1_1  and  C1_4 
REMARK    2  A    between atoms: C2_7  and  N3_8 
REMARK    3  A    between atoms: C3_9  and  C4_10 
REMARK    4  A    between atoms: C8_19  and  N7_20 
REMARK    5  A    between atoms: C9_25  and  N9_26 
REMARK    6  A    between atoms: N9_26  and  O1_28 
REMARK    7  A    between atoms: O1_28  and  C10_29 
REMARK    8  A    between atoms: C10_29  and  C11_30 
REMARK    9  A    between atoms: C10_29  and  C12_33 
REMARK   10  A    between atoms: C11_30  and  O2_31 
REMARK   11  A    between atoms: C12_33  and  O3_34 
REMARK   12  A    between atoms: C12_33  and  O4_36 
REMARK   13  A    between atoms: C14_43  and  N12_44 
ROOT
HETATM    1  N3  UNL     1      14.464  23.632  41.674  1.00  0.00     0.045 N 
HETATM    2  C3  UNL     1      14.079  23.754  42.913  1.00  0.00     0.180 A 
HETATM    3  N5  UNL     1      12.958  24.551  42.969  1.00  0.00    -0.247 N 
ATOM      4  H5  UNL     1      12.445  24.812  43.811  1.00  0.00     0.190 HD
HETATM    5  N6  UNL     1      12.668  24.915  41.741  1.00  0.00     0.093 N 
HETATM    6  C8  UNL     1      11.661  25.696  41.271  1.00  0.00     0.727 A 
HETATM    7  N8  UNL     1      11.628  25.887  39.943  1.00  0.00    -0.018 N 
ATOM      8  H8  UNL     1      10.888  26.468  39.549  1.00  0.00     0.203 HD
HETATM    9  C9  UNL     1      12.532  25.341  39.110  1.00  0.00     0.731 A 
HETATM   10  N10 UNL     1      13.523  24.569  39.589  1.00  0.00    -0.017 N 
ATOM     11  H10 UNL     1      14.212  24.150  38.965  1.00  0.00     0.203 HD
HETATM   12  C13 UNL     1      13.575  24.366  40.916  1.00  0.00     0.756 A 
ENDROOT
BRANCH   1  13
HETATM   13  C2  UNL     1      15.550  22.921  41.113  1.00  0.00     0.734 A 
HETATM   14  N2  UNL     1      15.574  21.563  40.980  1.00  0.00    -0.020 N 
HETATM   15  C1  UNL     1      16.578  20.893  40.437  1.00  0.00     0.705 A 
ATOM     16  H2  UNL     1      14.772  21.034  41.320  1.00  0.00     0.203 HD
HETATM   17  N13 UNL     1      17.644  21.537  39.983  1.00  0.00    -0.022 N 
HETATM   18  C14 UNL     1      17.685  22.884  40.083  1.00  0.00     0.705 A 
ATOM     19  H13 UNL     1      18.420  21.025  39.564  1.00  0.00     0.203 HD
HETATM   20  N11 UNL     1      16.660  23.555  40.635  1.00  0.00    -0.020 N 
ATOM     21  H11 UNL     1      16.714  24.572  40.699  1.00  0.00     0.203 HD
BRANCH  15  22
HETATM   22  N1  UNL     1      16.472  19.600  40.373  1.00  0.00    -0.234 N 
ATOM     23  H12 UNL     1      15.737  19.090  40.864  1.00  0.00     0.174 HD
ATOM     24  H11 UNL     1      17.156  19.098  39.807  1.00  0.00     0.174 HD
ENDBRANCH  15  22
BRANCH  18  25
HETATM   25  N12 UNL     1      18.739  23.469  39.627  1.00  0.00    -0.234 N 
ATOM     26 2H12 UNL     1      18.607  24.383  39.195  1.00  0.00     0.174 HD
ATOM     27 1H12 UNL     1      19.670  23.056  39.686  1.00  0.00     0.174 HD
ENDBRANCH  18  25
ENDBRANCH   1  13
BRANCH   2  28
HETATM   28  C4  UNL     1      14.676  23.172  44.125  1.00  0.00     0.053 A 
HETATM   29  C5  UNL     1      14.412  22.062  44.852  1.00  0.00     0.050 A 
HETATM   30  C6  UNL     1      15.168  21.811  45.938  1.00  0.00     0.054 A 
HETATM   31  N4  UNL     1      14.954  20.638  46.780  1.00  0.00    -0.102 NA
HETATM   32  C7  UNL     1      16.159  22.702  46.234  1.00  0.00     0.077 A 
HETATM   33  S1  UNL     1      16.011  23.859  44.998  1.00  0.00    -0.096 SA
ENDBRANCH   2  28
BRANCH   6  34
HETATM   34  N7  UNL     1      10.797  26.217  42.072  1.00  0.00    -0.232 N 
ATOM     35  H72 UNL     1      10.064  25.671  42.524  1.00  0.00     0.174 HD
ATOM     36  H71 UNL     1      10.813  27.214  42.287  1.00  0.00     0.174 HD
ENDBRANCH   6  34
BRANCH   9  37
HETATM   37  N9  UNL     1      12.463  25.549  37.844  1.00  0.00    -0.095 N 
ATOM     38  H9  UNL     1      13.155  26.147  37.390  1.00  0.00     0.213 HD
BRANCH  37  39
HETATM   39  O1  UNL     1      11.464  24.970  37.099  1.00  0.00    -0.254 OA
BRANCH  39  40
HETATM   40  C10 UNL     1      10.119  25.392  37.251  1.00  0.00     0.231 C 
BRANCH  40  41
HETATM   41  C11 UNL     1       9.228  24.816  36.163  1.00  0.00     0.203 C 
BRANCH  41  42
HETATM   42  O2  UNL     1       8.712  23.619  36.630  1.00  0.00    -0.398 OA
ATOM     43  H2  UNL     1       9.089  22.919  36.111  1.00  0.00     0.209 HD
ENDBRANCH  41  42
ENDBRANCH  40  41
BRANCH  40  44
HETATM   44  C12 UNL     1      10.001  26.892  37.178  1.00  0.00     0.287 C 
BRANCH  44  45
HETATM   45  O3  UNL     1       9.324  27.355  38.311  1.00  0.00    -0.369 OA
ATOM     46  H3  UNL     1       8.403  27.460  38.104  1.00  0.00     0.212 HD
ENDBRANCH  44  45
BRANCH  44  47
HETATM   47  O4  UNL     1       9.435  27.322  35.999  1.00  0.00    -0.369 OA
ATOM     48  H4  UNL     1       8.485  27.309  36.023  1.00  0.00     0.212 HD
ENDBRANCH  44  47
ENDBRANCH  40  44
ENDBRANCH  39  40
ENDBRANCH  37  39
ENDBRANCH   9  37
TORSDOF 13
ENDMDL
MODEL 4
REMARK VINA RESULT: -7.618790667      0.697      1.885
REMARK  13 active torsions:
REMARK  status: ('A' for Active; 'I' for Inactive)
REMARK    1  A    between atoms: N1_1  and  C1_4 
REMARK    2  A    between atoms: C2_7  and  N3_8 
REMARK    3  A    between atoms: C3_9  and  C4_10 
REMARK    4  A    between atoms: C8_19  and  N7_20 
REMARK    5  A    between atoms: C9_25  and  N9_26 
REMARK    6  A    between atoms: N9_26  and  O1_28 
REMARK    7  A    between atoms: O1_28  and  C10_29 
REMARK    8  A    between atoms: C10_29  and  C11_30 
REMARK    9  A    between atoms: C10_29  and  C12_33 
REMARK   10  A    between atoms: C11_30  and  O2_31 
REMARK   11  A    between atoms: C12_33  and  O3_34 
REMARK   12  A    between atoms: C12_33  and  O4_36 
REMARK   13  A    between atoms: C14_43  and  N12_44 
ROOT
HETATM    1  N3  UNL     1      14.338  23.746  41.798  1.00  0.00     0.045 N 
HETATM    2  C3  UNL     1      14.007  23.845  43.054  1.00  0.00     0.180 A 
HETATM    3  N5  UNL     1      12.898  24.651  43.174  1.00  0.00    -0.247 N 
ATOM      4  H5  UNL     1      12.423  24.899  44.042  1.00  0.00     0.190 HD
HETATM    5  N6  UNL     1      12.560  25.043  41.966  1.00  0.00     0.093 N 
HETATM    6  C8  UNL     1      11.542  25.843  41.556  1.00  0.00     0.727 A 
HETATM    7  N8  UNL     1      11.456  26.061  40.234  1.00  0.00    -0.018 N 
ATOM      8  H8  UNL     1      10.706  26.658  39.884  1.00  0.00     0.203 HD
HETATM    9  C9  UNL     1      12.318  25.525  39.353  1.00  0.00     0.731 A 
HETATM   10  N10 UNL     1      13.320  24.734  39.774  1.00  0.00    -0.017 N 
ATOM     11  H10 UNL     1      13.978  24.321  39.113  1.00  0.00     0.203 HD
HETATM   12  C13 UNL     1      13.426  24.503  41.093  1.00  0.00     0.756 A 
ENDROOT
BRANCH   1  13
HETATM   13  C2  UNL     1      15.393  23.036  41.178  1.00  0.00     0.734 A 
HETATM   14  N2  UNL     1      16.511  23.635  40.674  1.00  0.00    -0.020 N 
HETATM   15  C1  UNL     1      17.511  22.976  40.111  1.00  0.00     0.705 A 
ATOM     16  H2  UNL     1      16.579  24.651  40.734  1.00  0.00     0.203 HD
HETATM   17  N13 UNL     1      17.467  21.655  40.008  1.00  0.00    -0.022 N 
HETATM   18  C14 UNL     1      16.388  20.998  40.487  1.00  0.00     0.705 A 
ATOM     19  H13 UNL     1      18.235  21.143  39.574  1.00  0.00     0.203 HD
HETATM   20  N11 UNL     1      15.378  21.676  41.058  1.00  0.00    -0.020 N 
ATOM     21  H11 UNL     1      14.574  21.158  41.413  1.00  0.00     0.203 HD
BRANCH  15  22
HETATM   22  N1  UNL     1      18.516  23.671  39.672  1.00  0.00    -0.234 N 
ATOM     23  H12 UNL     1      18.715  23.770  38.676  1.00  0.00     0.174 HD
ATOM     24  H11 UNL     1      19.113  24.126  40.363  1.00  0.00     0.174 HD
ENDBRANCH  15  22
BRANCH  18  25
HETATM   25  N12 UNL     1      16.388  19.715  40.367  1.00  0.00    -0.234 N 
ATOM     26 2H12 UNL     1      16.494  19.341  39.424  1.00  0.00     0.174 HD
ATOM     27 1H12 UNL     1      16.288  19.085  41.162  1.00  0.00     0.174 HD
ENDBRANCH  18  25
ENDBRANCH   1  13
BRANCH   2  28
HETATM   28  C4  UNL     1      14.648  23.233  44.228  1.00  0.00     0.053 A 
HETATM   29  C5  UNL     1      14.480  22.055  44.873  1.00  0.00     0.050 A 
HETATM   30  C6  UNL     1      15.251  21.794  45.945  1.00  0.00     0.054 A 
HETATM   31  N4  UNL     1      15.138  20.550  46.700  1.00  0.00    -0.102 NA
HETATM   32  C7  UNL     1      16.159  22.744  46.313  1.00  0.00     0.077 A 
HETATM   33  S1  UNL     1      15.915  23.970  45.160  1.00  0.00    -0.096 SA
ENDBRANCH   2  28
BRANCH   6  34
HETATM   34  N7  UNL     1      10.718  26.355  42.402  1.00  0.00    -0.232 N 
ATOM     35  H72 UNL     1      10.869  26.319  43.411  1.00  0.00     0.174 HD
ATOM     36  H71 UNL     1       9.867  26.822  42.091  1.00  0.00     0.174 HD
ENDBRANCH   6  34
BRANCH   9  37
HETATM   37  N9  UNL     1      12.199  25.760  38.096  1.00  0.00    -0.095 N 
ATOM     38  H9  UNL     1      12.738  25.213  37.424  1.00  0.00     0.213 HD
BRANCH  37  39
HETATM   39  O1  UNL     1      11.348  26.743  37.650  1.00  0.00    -0.254 OA
BRANCH  39  40
HETATM   40  C10 UNL     1       9.952  26.502  37.571  1.00  0.00     0.231 C 
BRANCH  40  41
HETATM   41  C11 UNL     1       9.647  25.276  36.726  1.00  0.00     0.203 C 
BRANCH  41  42
HETATM   42  O2  UNL     1      10.142  25.507  35.454  1.00  0.00    -0.398 OA
ATOM     43  H2  UNL     1       9.598  26.170  35.047  1.00  0.00     0.209 HD
ENDBRANCH  41  42
ENDBRANCH  40  41
BRANCH  40  44
HETATM   44  C12 UNL     1       9.228  27.666  36.949  1.00  0.00     0.287 C 
BRANCH  44  45
HETATM   45  O3  UNL     1       8.154  27.187  36.191  1.00  0.00    -0.369 OA
ATOM     46  H3  UNL     1       8.287  27.418  35.279  1.00  0.00     0.212 HD
ENDBRANCH  44  45
BRANCH  44  47
HETATM   47  O4  UNL     1      10.066  28.491  36.232  1.00  0.00    -0.369 OA
ATOM     48  H4  UNL     1       9.757  29.389  36.200  1.00  0.00     0.212 HD
ENDBRANCH  44  47
ENDBRANCH  40  44
ENDBRANCH  39  40
ENDBRANCH  37  39
ENDBRANCH   9  37
TORSDOF 13
ENDMDL
MODEL 5
REMARK VINA RESULT: -7.569894194      1.383      2.012
REMARK  13 active torsions:
REMARK  status: ('A' for Active; 'I' for Inactive)
REMARK    1  A    between atoms: N1_1  and  C1_4 
REMARK    2  A    between atoms: C2_7  and  N3_8 
REMARK    3  A    between atoms: C3_9  and  C4_10 
REMARK    4  A    between atoms: C8_19  and  N7_20 
REMARK    5  A    between atoms: C9_25  and  N9_26 
REMARK    6  A    between atoms: N9_26  and  O1_28 
REMARK    7  A    between atoms: O1_28  and  C10_29 
REMARK    8  A    between atoms: C10_29  and  C11_30 
REMARK    9  A    between atoms: C10_29  and  C12_33 
REMARK   10  A    between atoms: C11_30  and  O2_31 
REMARK   11  A    between atoms: C12_33  and  O3_34 
REMARK   12  A    between atoms: C12_33  and  O4_36 
REMARK   13  A    between atoms: C14_43  and  N12_44 
ROOT
HETATM    1  N3  UNL     1      15.058  24.628  41.473  1.00  0.00     0.045 N 
HETATM    2  C3  UNL     1      15.005  25.190  42.647  1.00  0.00     0.180 A 
HETATM    3  N5  UNL     1      13.978  26.106  42.671  1.00  0.00    -0.247 N 
ATOM      4  H5  UNL     1      13.708  26.690  43.463  1.00  0.00     0.190 HD
HETATM    5  N6  UNL     1      13.407  26.092  41.488  1.00  0.00     0.093 N 
HETATM    6  C8  UNL     1      12.356  26.810  41.012  1.00  0.00     0.727 A 
HETATM    7  N8  UNL     1      11.999  26.567  39.741  1.00  0.00    -0.018 N 
ATOM      8  H8  UNL     1      11.215  27.086  39.344  1.00  0.00     0.203 HD
HETATM    9  C9  UNL     1      12.634  25.668  38.969  1.00  0.00     0.731 A 
HETATM   10  N10 UNL     1      13.672  24.964  39.454  1.00  0.00    -0.017 N 
ATOM     11  H10 UNL     1      14.159  24.278  38.877  1.00  0.00     0.203 HD
HETATM   12  C13 UNL     1      14.047  25.192  40.724  1.00  0.00     0.756 A 
ENDROOT
BRANCH   1  13
HETATM   13  C2  UNL     1      15.929  23.635  40.967  1.00  0.00     0.734 A 
HETATM   14  N2  UNL     1      17.130  23.913  40.382  1.00  0.00    -0.020 N 
HETATM   15  C1  UNL     1      17.960  22.988  39.925  1.00  0.00     0.705 A 
ATOM     16  H2  UNL     1      17.405  24.891  40.291  1.00  0.00     0.203 HD
HETATM   17  N13 UNL     1      17.646  21.704  40.018  1.00  0.00    -0.022 N 
HETATM   18  C14 UNL     1      16.471  21.358  40.587  1.00  0.00     0.705 A 
ATOM     19  H13 UNL     1      18.282  20.988  39.667  1.00  0.00     0.203 HD
HETATM   20  N11 UNL     1      15.636  22.304  41.049  1.00  0.00    -0.020 N 
ATOM     21  H11 UNL     1      14.754  22.019  41.475  1.00  0.00     0.203 HD
BRANCH  15  22
HETATM   22  N1  UNL     1      19.072  23.392  39.390  1.00  0.00    -0.234 N 
ATOM     23  H12 UNL     1      19.634  24.139  39.800  1.00  0.00     0.174 HD
ATOM     24  H11 UNL     1      19.377  22.931  38.532  1.00  0.00     0.174 HD
ENDBRANCH  15  22
BRANCH  18  25
HETATM   25  N12 UNL     1      16.208  20.098  40.658  1.00  0.00    -0.234 N 
ATOM     26 2H12 UNL     1      15.751  19.772  41.510  1.00  0.00     0.174 HD
ATOM     27 1H12 UNL     1      16.436  19.443  39.912  1.00  0.00     0.174 HD
ENDBRANCH  18  25
ENDBRANCH   1  13
BRANCH   2  28
HETATM   28  C4  UNL     1      15.858  24.953  43.823  1.00  0.00     0.053 A 
HETATM   29  C5  UNL     1      15.967  23.931  44.702  1.00  0.00     0.050 A 
HETATM   30  C6  UNL     1      16.873  24.031  45.693  1.00  0.00     0.054 A 
HETATM   31  N4  UNL     1      17.059  22.977  46.685  1.00  0.00    -0.102 NA
HETATM   32  C7  UNL     1      17.628  25.167  45.743  1.00  0.00     0.077 A 
HETATM   33  S1  UNL     1      17.056  26.061  44.415  1.00  0.00    -0.096 SA
ENDBRANCH   2  28
BRANCH   6  34
HETATM   34  N7  UNL     1      11.751  27.670  41.754  1.00  0.00    -0.232 N 
ATOM     35  H72 UNL     1      12.106  27.961  42.666  1.00  0.00     0.174 HD
ATOM     36  H71 UNL     1      10.876  28.101  41.454  1.00  0.00     0.174 HD
ENDBRANCH   6  34
BRANCH   9  37
HETATM   37  N9  UNL     1      12.260  25.466  37.757  1.00  0.00    -0.095 N 
ATOM     38  H9  UNL     1      12.925  25.589  36.994  1.00  0.00     0.213 HD
BRANCH  37  39
HETATM   39  O1  UNL     1      10.967  25.085  37.484  1.00  0.00    -0.254 OA
BRANCH  39  40
HETATM   40  C10 UNL     1      10.197  25.795  36.528  1.00  0.00     0.231 C 
BRANCH  40  41
HETATM   41  C11 UNL     1       9.723  27.130  37.077  1.00  0.00     0.203 C 
BRANCH  41  42
HETATM   42  O2  UNL     1       9.479  26.967  38.430  1.00  0.00    -0.398 OA
ATOM     43  H2  UNL     1       8.593  26.638  38.527  1.00  0.00     0.209 HD
ENDBRANCH  41  42
ENDBRANCH  40  41
BRANCH  40  44
HETATM   44  C12 UNL     1       8.973  25.018  36.122  1.00  0.00     0.287 C 
BRANCH  44  45
HETATM   45  O3  UNL     1       7.834  25.794  36.365  1.00  0.00    -0.369 OA
ATOM     46  H3  UNL     1       7.066  25.324  36.064  1.00  0.00     0.212 HD
ENDBRANCH  44  45
BRANCH  44  47
HETATM   47  O4  UNL     1       8.913  23.775  36.713  1.00  0.00    -0.369 OA
ATOM     48  H4  UNL     1       8.197  23.246  36.381  1.00  0.00     0.212 HD
ENDBRANCH  44  47
ENDBRANCH  40  44
ENDBRANCH  39  40
ENDBRANCH  37  39
ENDBRANCH   9  37
TORSDOF 13
ENDMDL
