MODEL 1
REMARK VINA RESULT: -7.948183355      0.000      0.000
REMARK  10 active torsions:
REMARK  status: ('A' for Active; 'I' for Inactive)
REMARK    1  A    between atoms: N2_3  and  C2_5 
REMARK    2  A    between atoms: C3_8  and  N4_9 
REMARK    3  A    between atoms: N4_9  and  C4_11 
REMARK    4  A    between atoms: C4_11  and  C5_12 
REMARK    5  A    between atoms: C4_11  and  N9_25 
REMARK    6  A    between atoms: C7_17  and  N7_18 
REMARK    7  A    between atoms: C9_30  and  C10_31 
REMARK    8  A    between atoms: C11_41  and  C12_42 
REMARK    9  A    between atoms: C12_42  and  O2_43 
REMARK   10  A    between atoms: C12_42  and  O3_45 
ROOT
HETATM    1  N1  UNL     1       9.853  25.478  35.834  1.00  0.00    -0.172 NA
HETATM    2  C1  UNL     1      10.636  25.853  36.577  1.00  0.00     0.185 C 
HETATM    3  N2  UNL     1      11.582  26.282  37.475  1.00  0.00    -0.258 N 
ATOM      4  H2  UNL     1      12.158  27.081  37.209  1.00  0.00     0.181 HD
ENDROOT
BRANCH   3   5
HETATM    5  C2  UNL     1      11.795  25.749  38.631  1.00  0.00     0.239 A 
HETATM    6  N3  UNL     1      12.664  24.727  38.900  1.00  0.00    -0.305 N 
HETATM    7  C3  UNL     1      12.624  24.435  40.198  1.00  0.00     0.141 A 
ATOM      8  H3  UNL     1      13.252  24.260  38.211  1.00  0.00     0.171 HD
HETATM    9  C11 UNL     1      11.697  25.311  40.746  1.00  0.00     0.154 A 
HETATM   10  O4  UNL     1      11.249  26.058  39.756  1.00  0.00    -0.274 OA
BRANCH   7  11
HETATM   11  N4  UNL     1      13.342  23.465  40.918  1.00  0.00    -0.346 N 
ATOM     12  H4  UNL     1      12.902  22.548  40.999  1.00  0.00     0.163 HD
BRANCH  11  13
HETATM   13  C4  UNL     1      14.625  23.611  41.555  1.00  0.00     0.270 C 
BRANCH  13  14
HETATM   14  C5  UNL     1      15.406  22.370  41.395  1.00  0.00     0.097 A 
HETATM   15  C6  UNL     1      16.047  21.916  42.554  1.00  0.00     0.147 A 
HETATM   16  N5  UNL     1      15.928  22.610  43.794  1.00  0.00    -0.081 NA
HETATM   17  N6  UNL     1      16.799  20.810  42.549  1.00  0.00    -0.178 N 
HETATM   18  C7  UNL     1      16.953  20.112  41.425  1.00  0.00     0.680 A 
ATOM     19  H6  UNL     1      17.255  20.500  43.407  1.00  0.00     0.185 HD
HETATM   20  N8  UNL     1      16.351  20.526  40.301  1.00  0.00    -0.156 N 
HETATM   21  C8  UNL     1      15.579  21.645  40.268  1.00  0.00     0.273 A 
ATOM     22  H8  UNL     1      16.476  19.986  39.444  1.00  0.00     0.187 HD
HETATM   23  O1  UNL     1      15.026  22.014  39.216  1.00  0.00    -0.267 OA
BRANCH  18  24
HETATM   24  N7  UNL     1      17.691  19.036  41.435  1.00  0.00    -0.234 N 
ATOM     25  H72 UNL     1      17.268  18.110  41.513  1.00  0.00     0.174 HD
ATOM     26  H71 UNL     1      18.704  19.123  41.361  1.00  0.00     0.174 HD
ENDBRANCH  18  24
ENDBRANCH  13  14
BRANCH  13  27
HETATM   27  N9  UNL     1      15.305  24.829  41.273  1.00  0.00    -0.189 N 
HETATM   28  N10 UNL     1      16.343  25.123  40.508  1.00  0.00    -0.222 N 
HETATM   29  N11 UNL     1      16.634  26.406  40.530  1.00  0.00    -0.265 N 
ATOM     30  H10 UNL     1      16.859  24.432  39.963  1.00  0.00     0.210 HD
HETATM   31  C9  UNL     1      15.763  26.994  41.337  1.00  0.00     0.184 A 
ATOM     32  H11 UNL     1      17.391  26.863  40.021  1.00  0.00     0.190 HD
HETATM   33  N16 UNL     1      14.956  26.018  41.785  1.00  0.00    -0.261 N 
ATOM     34  H16 UNL     1      14.179  26.162  42.430  1.00  0.00     0.190 HD
BRANCH  31  35
HETATM   35  C10 UNL     1      15.652  28.406  41.703  1.00  0.00     0.181 A 
HETATM   36  N12 UNL     1      16.649  29.251  42.008  1.00  0.00    -0.264 N 
HETATM   37  N13 UNL     1      16.099  30.428  42.276  1.00  0.00    -0.005 NA
ATOM     38  H12 UNL     1      17.645  29.029  42.030  1.00  0.00     0.186 HD
HETATM   39  N14 UNL     1      14.784  30.362  42.152  1.00  0.00    -0.225 N 
HETATM   40  N15 UNL     1      14.528  29.123  41.802  1.00  0.00    -0.268 N 
ATOM     41  H14 UNL     1      14.111  31.115  42.297  1.00  0.00     0.205 HD
ATOM     42  H15 UNL     1      13.593  28.755  41.628  1.00  0.00     0.190 HD
ENDBRANCH  31  35
ENDBRANCH  13  27
ENDBRANCH  11  13
ENDBRANCH   7  11
BRANCH   9  43
HETATM   43  C12 UNL     1      11.248  25.444  42.137  1.00  0.00     0.316 C 
BRANCH  43  44
HETATM   44  O2  UNL     1      12.250  25.832  43.014  1.00  0.00    -0.365 OA
ATOM     45  H2  UNL     1      13.056  25.338  42.919  1.00  0.00     0.213 HD
ENDBRANCH  43  44
BRANCH  43  46
HETATM   46  O3  UNL     1      10.699  24.254  42.614  1.00  0.00    -0.365 OA
ATOM     47  H3  UNL     1      10.232  24.388  43.431  1.00  0.00     0.213 HD
ENDBRANCH  43  46
ENDBRANCH   9  43
ENDBRANCH   3   5
TORSDOF 10
ENDMDL
MODEL 2
REMARK VINA RESULT: -7.898671724      2.027      5.767
REMARK  10 active torsions:
REMARK  status: ('A' for Active; 'I' for Inactive)
REMARK    1  A    between atoms: N2_3  and  C2_5 
REMARK    2  A    between atoms: C3_8  and  N4_9 
REMARK    3  A    between atoms: N4_9  and  C4_11 
REMARK    4  A    between atoms: C4_11  and  C5_12 
REMARK    5  A    between atoms: C4_11  and  N9_25 
REMARK    6  A    between atoms: C7_17  and  N7_18 
REMARK    7  A    between atoms: C9_30  and  C10_31 
REMARK    8  A    between atoms: C11_41  and  C12_42 
REMARK    9  A    between atoms: C12_42  and  O2_43 
REMARK   10  A    between atoms: C12_42  and  O3_45 
ROOT
HETATM    1  N1  UNL     1       9.319  24.359  36.804  1.00  0.00    -0.172 NA
HETATM    2  C1  UNL     1      10.197  25.071  36.980  1.00  0.00     0.185 C 
HETATM    3  N2  UNL     1      11.260  25.909  37.204  1.00  0.00    -0.258 N 
ATOM      4  H2  UNL     1      11.610  26.451  36.414  1.00  0.00     0.181 HD
ENDROOT
BRANCH   3   5
HETATM    5  C2  UNL     1      11.851  26.062  38.342  1.00  0.00     0.239 A 
HETATM    6  N3  UNL     1      12.850  25.274  38.845  1.00  0.00    -0.305 N 
HETATM    7  C3  UNL     1      13.219  25.726  40.040  1.00  0.00     0.141 A 
ATOM      8  H3  UNL     1      13.251  24.463  38.374  1.00  0.00     0.171 HD
HETATM    9  C11 UNL     1      12.416  26.833  40.281  1.00  0.00     0.154 A 
HETATM   10  O4  UNL     1      11.632  26.970  39.230  1.00  0.00    -0.274 OA
BRANCH   7  11
HETATM   11  N4  UNL     1      14.201  25.236  40.917  1.00  0.00    -0.346 N 
ATOM     12  H4  UNL     1      13.883  24.576  41.627  1.00  0.00     0.163 HD
BRANCH  11  13
HETATM   13  C4  UNL     1      15.605  25.555  40.934  1.00  0.00     0.270 C 
BRANCH  13  14
HETATM   14  C5  UNL     1      15.919  26.366  42.126  1.00  0.00     0.097 A 
HETATM   15  C6  UNL     1      16.752  27.467  41.896  1.00  0.00     0.147 A 
HETATM   16  N5  UNL     1      17.240  27.774  40.591  1.00  0.00    -0.081 NA
HETATM   17  N6  UNL     1      17.128  28.279  42.889  1.00  0.00    -0.178 N 
HETATM   18  C7  UNL     1      16.709  28.051  44.133  1.00  0.00     0.680 A 
ATOM     19  H6  UNL     1      17.736  29.074  42.695  1.00  0.00     0.185 HD
HETATM   20  N8  UNL     1      15.911  27.003  44.380  1.00  0.00    -0.156 N 
HETATM   21  C8  UNL     1      15.508  26.156  43.396  1.00  0.00     0.273 A 
ATOM     22  H8  UNL     1      15.596  26.835  45.336  1.00  0.00     0.187 HD
HETATM   23  O1  UNL     1      14.766  25.189  43.643  1.00  0.00    -0.267 OA
BRANCH  18  24
HETATM   24  N7  UNL     1      17.085  28.851  45.092  1.00  0.00    -0.234 N 
ATOM     25  H72 UNL     1      16.648  29.766  45.214  1.00  0.00     0.174 HD
ATOM     26  H71 UNL     1      17.824  28.556  45.730  1.00  0.00     0.174 HD
ENDBRANCH  18  24
ENDBRANCH  13  14
BRANCH  13  27
HETATM   27  N9  UNL     1      16.477  24.464  40.661  1.00  0.00    -0.189 N 
HETATM   28  N10 UNL     1      17.723  24.398  40.223  1.00  0.00    -0.222 N 
HETATM   29  N11 UNL     1      18.155  23.158  40.127  1.00  0.00    -0.265 N 
ATOM     30  H10 UNL     1      18.285  25.216  39.985  1.00  0.00     0.210 HD
HETATM   31  C9  UNL     1      17.166  22.366  40.515  1.00  0.00     0.184 A 
ATOM     32  H11 UNL     1      19.080  22.863  39.813  1.00  0.00     0.190 HD
HETATM   33  N16 UNL     1      16.146  23.178  40.838  1.00  0.00    -0.261 N 
ATOM     34  H16 UNL     1      15.238  22.857  41.173  1.00  0.00     0.190 HD
BRANCH  31  35
HETATM   35  C10 UNL     1      17.132  20.905  40.595  1.00  0.00     0.181 A 
HETATM   36  N12 UNL     1      16.246  20.077  40.020  1.00  0.00    -0.264 N 
HETATM   37  N13 UNL     1      16.590  18.840  40.355  1.00  0.00    -0.005 NA
ATOM     38  H12 UNL     1      15.455  20.348  39.435  1.00  0.00     0.186 HD
HETATM   39  N14 UNL     1      17.666  18.852  41.123  1.00  0.00    -0.225 N 
HETATM   40  N15 UNL     1      17.984  20.119  41.259  1.00  0.00    -0.268 N 
ATOM     41  H14 UNL     1      18.148  18.047  41.524  1.00  0.00     0.205 HD
ATOM     42  H15 UNL     1      18.778  20.458  41.803  1.00  0.00     0.190 HD
ENDBRANCH  31  35
ENDBRANCH  13  27
ENDBRANCH  11  13
ENDBRANCH   7  11
BRANCH   9  43
HETATM   43  C12 UNL     1      12.384  27.728  41.444  1.00  0.00     0.316 C 
BRANCH  43  44
HETATM   44  O2  UNL     1      13.420  28.649  41.471  1.00  0.00    -0.365 OA
ATOM     45  H2  UNL     1      13.818  28.755  42.328  1.00  0.00     0.213 HD
ENDBRANCH  43  44
BRANCH  43  46
HETATM   46  O3  UNL     1      12.417  27.012  42.641  1.00  0.00    -0.365 OA
ATOM     47  H3  UNL     1      13.073  26.325  42.619  1.00  0.00     0.213 HD
ENDBRANCH  43  46
ENDBRANCH   9  43
ENDBRANCH   3   5
TORSDOF 10
ENDMDL
MODEL 3
REMARK VINA RESULT: -7.832557880      1.778      5.880
REMARK  10 active torsions:
REMARK  status: ('A' for Active; 'I' for Inactive)
REMARK    1  A    between atoms: N2_3  and  C2_5 
REMARK    2  A    between atoms: C3_8  and  N4_9 
REMARK    3  A    between atoms: N4_9  and  C4_11 
REMARK    4  A    between atoms: C4_11  and  C5_12 
REMARK    5  A    between atoms: C4_11  and  N9_25 
REMARK    6  A    between atoms: C7_17  and  N7_18 
REMARK    7  A    between atoms: C9_30  and  C10_31 
REMARK    8  A    between atoms: C11_41  and  C12_42 
REMARK    9  A    between atoms: C12_42  and  O2_43 
REMARK   10  A    between atoms: C12_42  and  O3_45 
ROOT
HETATM    1  N1  UNL     1       8.961  24.324  36.517  1.00  0.00    -0.172 NA
HETATM    2  C1  UNL     1       9.754  25.070  36.864  1.00  0.00     0.185 C 
HETATM    3  N2  UNL     1      10.716  25.951  37.293  1.00  0.00    -0.258 N 
ATOM      4  H2  UNL     1      11.136  26.568  36.598  1.00  0.00     0.181 HD
ENDROOT
BRANCH   3   5
HETATM    5  C2  UNL     1      11.129  26.054  38.512  1.00  0.00     0.239 A 
HETATM    6  N3  UNL     1      11.997  25.207  39.144  1.00  0.00    -0.305 N 
HETATM    7  C3  UNL     1      12.196  25.620  40.393  1.00  0.00     0.141 A 
ATOM      8  H3  UNL     1      12.427  24.385  38.722  1.00  0.00     0.171 HD
HETATM    9  C11 UNL     1      11.421  26.763  40.534  1.00  0.00     0.154 A 
HETATM   10  O4  UNL     1      10.818  26.957  39.377  1.00  0.00    -0.274 OA
BRANCH   7  11
HETATM   11  N4  UNL     1      13.005  25.066  41.400  1.00  0.00    -0.346 N 
ATOM     12  H4  UNL     1      12.516  24.658  42.197  1.00  0.00     0.163 HD
BRANCH  11  13
HETATM   13  C4  UNL     1      14.443  25.005  41.440  1.00  0.00     0.270 C 
BRANCH  13  14
HETATM   14  C5  UNL     1      14.980  26.260  41.998  1.00  0.00     0.097 A 
HETATM   15  C6  UNL     1      15.996  26.860  41.243  1.00  0.00     0.147 A 
HETATM   16  N5  UNL     1      16.453  26.290  40.019  1.00  0.00    -0.081 NA
HETATM   17  N6  UNL     1      16.582  27.996  41.638  1.00  0.00    -0.178 N 
HETATM   18  C7  UNL     1      16.204  28.583  42.772  1.00  0.00     0.680 A 
ATOM     19  H6  UNL     1      17.320  28.412  41.071  1.00  0.00     0.185 HD
HETATM   20  N8  UNL     1      15.234  28.028  43.513  1.00  0.00    -0.156 N 
HETATM   21  C8  UNL     1      14.616  26.876  43.144  1.00  0.00     0.273 A 
ATOM     22  H8  UNL     1      14.952  28.485  44.381  1.00  0.00     0.187 HD
HETATM   23  O1  UNL     1      13.716  26.376  43.843  1.00  0.00    -0.267 OA
BRANCH  18  24
HETATM   24  N7  UNL     1      16.786  29.690  43.145  1.00  0.00    -0.234 N 
ATOM     25  H72 UNL     1      16.239  30.528  43.348  1.00  0.00     0.174 HD
ATOM     26  H71 UNL     1      17.801  29.716  43.237  1.00  0.00     0.174 HD
ENDBRANCH  18  24
ENDBRANCH  13  14
BRANCH  13  27
HETATM   27  N9  UNL     1      14.983  23.796  41.963  1.00  0.00    -0.189 N 
HETATM   28  N10 UNL     1      15.123  23.334  43.194  1.00  0.00    -0.222 N 
HETATM   29  N11 UNL     1      15.672  22.137  43.220  1.00  0.00    -0.265 N 
ATOM     30  H10 UNL     1      14.839  23.846  44.029  1.00  0.00     0.210 HD
HETATM   31  C9  UNL     1      15.907  21.785  41.964  1.00  0.00     0.184 A 
ATOM     32  H11 UNL     1      15.877  21.584  44.052  1.00  0.00     0.190 HD
HETATM   33  N16 UNL     1      15.482  22.809  41.206  1.00  0.00    -0.261 N 
ATOM     34  H16 UNL     1      15.532  22.833  40.187  1.00  0.00     0.190 HD
BRANCH  31  35
HETATM   35  C10 UNL     1      16.504  20.552  41.448  1.00  0.00     0.181 A 
HETATM   36  N12 UNL     1      16.172  19.891  40.329  1.00  0.00    -0.264 N 
HETATM   37  N13 UNL     1      16.966  18.831  40.248  1.00  0.00    -0.005 NA
ATOM     38  H12 UNL     1      15.443  20.154  39.664  1.00  0.00     0.186 HD
HETATM   39  N14 UNL     1      17.794  18.795  41.278  1.00  0.00    -0.225 N 
HETATM   40  N15 UNL     1      17.499  19.852  42.000  1.00  0.00    -0.268 N 
ATOM     41  H14 UNL     1      18.510  18.095  41.471  1.00  0.00     0.205 HD
ATOM     42  H15 UNL     1      17.969  20.104  42.870  1.00  0.00     0.190 HD
ENDBRANCH  31  35
ENDBRANCH  13  27
ENDBRANCH  11  13
ENDBRANCH   7  11
BRANCH   9  43
HETATM   43  C12 UNL     1      11.251  27.639  41.699  1.00  0.00     0.316 C 
BRANCH  43  44
HETATM   44  O2  UNL     1      12.304  28.518  41.897  1.00  0.00    -0.365 OA
ATOM     45  H2  UNL     1      12.101  29.419  41.670  1.00  0.00     0.213 HD
ENDBRANCH  43  44
BRANCH  43  46
HETATM   46  O3  UNL     1      11.082  26.902  42.872  1.00  0.00    -0.365 OA
ATOM     47  H3  UNL     1      10.452  27.313  43.454  1.00  0.00     0.213 HD
ENDBRANCH  43  46
ENDBRANCH   9  43
ENDBRANCH   3   5
TORSDOF 10
ENDMDL
MODEL 4
REMARK VINA RESULT: -7.808878635      1.852      6.027
REMARK  10 active torsions:
REMARK  status: ('A' for Active; 'I' for Inactive)
REMARK    1  A    between atoms: N2_3  and  C2_5 
REMARK    2  A    between atoms: C3_8  and  N4_9 
REMARK    3  A    between atoms: N4_9  and  C4_11 
REMARK    4  A    between atoms: C4_11  and  C5_12 
REMARK    5  A    between atoms: C4_11  and  N9_25 
REMARK    6  A    between atoms: C7_17  and  N7_18 
REMARK    7  A    between atoms: C9_30  and  C10_31 
REMARK    8  A    between atoms: C11_41  and  C12_42 
REMARK    9  A    between atoms: C12_42  and  O2_43 
REMARK   10  A    between atoms: C12_42  and  O3_45 
ROOT
HETATM    1  N1  UNL     1      16.488  18.722  39.804  1.00  0.00    -0.172 NA
HETATM    2  C1  UNL     1      16.654  19.643  40.460  1.00  0.00     0.185 C 
HETATM    3  N2  UNL     1      16.834  20.747  41.256  1.00  0.00    -0.258 N 
ATOM      4  H2  UNL     1      17.738  20.856  41.715  1.00  0.00     0.181 HD
ENDROOT
BRANCH   3   5
HETATM    5  C2  UNL     1      15.942  21.656  41.467  1.00  0.00     0.239 A 
HETATM    6  N3  UNL     1      15.145  22.239  40.520  1.00  0.00    -0.305 N 
HETATM    7  C3  UNL     1      14.345  23.133  41.096  1.00  0.00     0.141 A 
ATOM      8  H3  UNL     1      15.162  22.022  39.524  1.00  0.00     0.171 HD
HETATM    9  C11 UNL     1      14.662  23.097  42.447  1.00  0.00     0.154 A 
HETATM   10  O4  UNL     1      15.616  22.198  42.590  1.00  0.00    -0.274 OA
BRANCH   7  11
HETATM   11  N4  UNL     1      13.369  23.962  40.518  1.00  0.00    -0.346 N 
ATOM     12  H4  UNL     1      12.416  23.597  40.509  1.00  0.00     0.163 HD
BRANCH  11  13
HETATM   13  C4  UNL     1      13.553  25.267  39.937  1.00  0.00     0.270 C 
BRANCH  13  14
HETATM   14  C5  UNL     1      12.255  25.798  39.482  1.00  0.00     0.097 A 
HETATM   15  C6  UNL     1      12.085  25.850  38.093  1.00  0.00     0.147 A 
HETATM   16  N5  UNL     1      13.103  25.401  37.200  1.00  0.00    -0.081 NA
HETATM   17  N6  UNL     1      10.962  26.322  37.543  1.00  0.00    -0.178 N 
HETATM   18  C7  UNL     1       9.971  26.758  38.318  1.00  0.00     0.680 A 
ATOM     19  H6  UNL     1      10.864  26.349  36.528  1.00  0.00     0.185 HD
HETATM   20  N8  UNL     1      10.108  26.720  39.651  1.00  0.00    -0.156 N 
HETATM   21  C8  UNL     1      11.234  26.247  40.246  1.00  0.00     0.273 A 
ATOM     22  H8  UNL     1       9.343  27.057  40.237  1.00  0.00     0.187 HD
HETATM   23  O1  UNL     1      11.344  26.218  41.485  1.00  0.00    -0.267 OA
BRANCH  18  24
HETATM   24  N7  UNL     1       8.881  27.217  37.767  1.00  0.00    -0.234 N 
ATOM     25  H72 UNL     1       8.915  27.984  37.096  1.00  0.00     0.174 HD
ATOM     26  H71 UNL     1       7.983  26.800  38.011  1.00  0.00     0.174 HD
ENDBRANCH  18  24
ENDBRANCH  13  14
BRANCH  13  27
HETATM   27  N9  UNL     1      14.374  26.154  40.689  1.00  0.00    -0.189 N 
HETATM   28  N10 UNL     1      14.146  26.900  41.756  1.00  0.00    -0.222 N 
HETATM   29  N11 UNL     1      15.215  27.568  42.137  1.00  0.00    -0.265 N 
ATOM     30  H10 UNL     1      13.245  26.953  42.230  1.00  0.00     0.210 HD
HETATM   31  C9  UNL     1      16.192  27.259  41.298  1.00  0.00     0.184 A 
ATOM     32  H11 UNL     1      15.278  28.205  42.931  1.00  0.00     0.190 HD
HETATM   33  N16 UNL     1      15.664  26.393  40.416  1.00  0.00    -0.261 N 
ATOM     34  H16 UNL     1      16.177  25.973  39.642  1.00  0.00     0.190 HD
BRANCH  31  35
HETATM   35  C10 UNL     1      17.578  27.729  41.281  1.00  0.00     0.181 A 
HETATM   36  N12 UNL     1      18.678  27.038  41.615  1.00  0.00    -0.264 N 
HETATM   37  N13 UNL     1      19.716  27.849  41.454  1.00  0.00    -0.005 NA
ATOM     38  H12 UNL     1      18.711  26.069  41.933  1.00  0.00     0.186 HD
HETATM   39  N14 UNL     1      19.313  29.034  41.028  1.00  0.00    -0.225 N 
HETATM   40  N15 UNL     1      18.007  28.945  40.929  1.00  0.00    -0.268 N 
ATOM     41  H14 UNL     1      19.895  29.847  40.821  1.00  0.00     0.205 HD
ATOM     42  H15 UNL     1      17.399  29.704  40.622  1.00  0.00     0.190 HD
ENDBRANCH  31  35
ENDBRANCH  13  27
ENDBRANCH  11  13
ENDBRANCH   7  11
BRANCH   9  43
HETATM   43  C12 UNL     1      14.097  23.870  43.559  1.00  0.00     0.316 C 
BRANCH  43  44
HETATM   44  O2  UNL     1      12.819  24.350  43.315  1.00  0.00    -0.365 OA
ATOM     45  H2  UNL     1      12.133  23.852  43.743  1.00  0.00     0.213 HD
ENDBRANCH  43  44
BRANCH  43  46
HETATM   46  O3  UNL     1      14.906  24.956  43.891  1.00  0.00    -0.365 OA
ATOM     47  H3  UNL     1      15.808  24.812  43.629  1.00  0.00     0.213 HD
ENDBRANCH  43  46
ENDBRANCH   9  43
ENDBRANCH   3   5
TORSDOF 10
ENDMDL
MODEL 5
REMARK VINA RESULT: -7.627401582      2.135      5.499
REMARK  10 active torsions:
REMARK  status: ('A' for Active; 'I' for Inactive)
REMARK    1  A    between atoms: N2_3  and  C2_5 
REMARK    2  A    between atoms: C3_8  and  N4_9 
REMARK    3  A    between atoms: N4_9  and  C4_11 
REMARK    4  A    between atoms: C4_11  and  C5_12 
REMARK    5  A    between atoms: C4_11  and  N9_25 
REMARK    6  A    between atoms: C7_17  and  N7_18 
REMARK    7  A    between atoms: C9_30  and  C10_31 
REMARK    8  A    between atoms: C11_41  and  C12_42 
REMARK    9  A    between atoms: C12_42  and  O2_43 
REMARK   10  A    between atoms: C12_42  and  O3_45 
ROOT
HETATM    1  N1  UNL     1       9.082  24.350  36.588  1.00  0.00    -0.172 NA
HETATM    2  C1  UNL     1       9.957  25.030  36.869  1.00  0.00     0.185 C 
HETATM    3  N2  UNL     1      11.015  25.831  37.220  1.00  0.00    -0.258 N 
ATOM      4  H2  UNL     1      11.462  26.374  36.482  1.00  0.00     0.181 HD
ENDROOT
BRANCH   3   5
HETATM    5  C2  UNL     1      11.487  25.946  38.417  1.00  0.00     0.239 A 
HETATM    6  N3  UNL     1      12.227  25.009  39.085  1.00  0.00    -0.305 N 
HETATM    7  C3  UNL     1      12.541  25.467  40.294  1.00  0.00     0.141 A 
ATOM      8  H3  UNL     1      12.497  24.099  38.713  1.00  0.00     0.171 HD
HETATM    9  C11 UNL     1      11.973  26.731  40.371  1.00  0.00     0.154 A 
HETATM   10  O4  UNL     1      11.365  26.945  39.221  1.00  0.00    -0.274 OA
BRANCH   7  11
HETATM   11  N4  UNL     1      13.286  24.853  41.316  1.00  0.00    -0.346 N 
ATOM     12  H4  UNL     1      12.806  24.127  41.848  1.00  0.00     0.163 HD
BRANCH  11  13
HETATM   13  C4  UNL     1      14.646  25.128  41.702  1.00  0.00     0.270 C 
BRANCH  13  14
HETATM   14  C5  UNL     1      14.709  25.398  43.150  1.00  0.00     0.097 A 
HETATM   15  C6  UNL     1      15.360  26.585  43.508  1.00  0.00     0.147 A 
HETATM   16  N5  UNL     1      15.902  27.464  42.524  1.00  0.00    -0.081 NA
HETATM   17  N6  UNL     1      15.501  26.947  44.787  1.00  0.00    -0.178 N 
HETATM   18  C7  UNL     1      15.018  26.173  45.757  1.00  0.00     0.680 A 
ATOM     19  H6  UNL     1      15.980  27.816  45.021  1.00  0.00     0.185 HD
HETATM   20  N8  UNL     1      14.391  25.030  45.442  1.00  0.00    -0.156 N 
HETATM   21  C8  UNL     1      14.228  24.631  44.153  1.00  0.00     0.273 A 
ATOM     22  H8  UNL     1      14.025  24.443  46.192  1.00  0.00     0.187 HD
HETATM   23  O1  UNL     1      13.642  23.568  43.878  1.00  0.00    -0.267 OA
BRANCH  18  24
HETATM   24  N7  UNL     1      15.164  26.538  47.001  1.00  0.00    -0.234 N 
ATOM     25  H72 UNL     1      15.162  27.525  47.263  1.00  0.00     0.174 HD
ATOM     26  H71 UNL     1      15.279  25.826  47.722  1.00  0.00     0.174 HD
ENDBRANCH  18  24
ENDBRANCH  13  14
BRANCH  13  27
HETATM   27  N9  UNL     1      15.616  24.227  41.181  1.00  0.00    -0.189 N 
HETATM   28  N10 UNL     1      16.733  24.407  40.497  1.00  0.00    -0.222 N 
HETATM   29  N11 UNL     1      17.344  23.272  40.228  1.00  0.00    -0.265 N 
ATOM     30  H10 UNL     1      17.082  25.321  40.210  1.00  0.00     0.210 HD
HETATM   31  C9  UNL     1      16.613  22.298  40.750  1.00  0.00     0.184 A 
ATOM     32  H11 UNL     1      18.218  23.163  39.714  1.00  0.00     0.190 HD
HETATM   33  N16 UNL     1      15.558  22.896  41.329  1.00  0.00    -0.261 N 
ATOM     34  H16 UNL     1      14.811  22.402  41.818  1.00  0.00     0.190 HD
BRANCH  31  35
HETATM   35  C10 UNL     1      16.851  20.854  40.731  1.00  0.00     0.181 A 
HETATM   36  N12 UNL     1      16.155  19.921  40.062  1.00  0.00    -0.264 N 
HETATM   37  N13 UNL     1      16.714  18.748  40.329  1.00  0.00    -0.005 NA
ATOM     38  H12 UNL     1      15.347  20.084  39.460  1.00  0.00     0.186 HD
HETATM   39  N14 UNL     1      17.743  18.902  41.146  1.00  0.00    -0.225 N 
HETATM   40  N15 UNL     1      17.812  20.192  41.381  1.00  0.00    -0.268 N 
ATOM     41  H14 UNL     1      18.353  18.172  41.515  1.00  0.00     0.205 HD
ATOM     42  H15 UNL     1      18.510  20.631  41.982  1.00  0.00     0.190 HD
ENDBRANCH  31  35
ENDBRANCH  13  27
ENDBRANCH  11  13
ENDBRANCH   7  11
BRANCH   9  43
HETATM   43  C12 UNL     1      11.997  27.699  41.474  1.00  0.00     0.316 C 
BRANCH  43  44
HETATM   44  O2  UNL     1      13.154  28.461  41.525  1.00  0.00    -0.365 OA
ATOM     45  H2  UNL     1      13.009  29.364  41.783  1.00  0.00     0.213 HD
ENDBRANCH  43  44
BRANCH  43  46
HETATM   46  O3  UNL     1      11.843  27.072  42.710  1.00  0.00    -0.365 OA
ATOM     47  H3  UNL     1      11.895  26.126  42.630  1.00  0.00     0.213 HD
ENDBRANCH  43  46
ENDBRANCH   9  43
ENDBRANCH   3   5
TORSDOF 10
ENDMDL
