MODEL 1
REMARK VINA RESULT: -5.595792351      0.000      0.000
REMARK  13 active torsions:
REMARK  status: ('A' for Active; 'I' for Inactive)
REMARK    1  A    between atoms: N1_1  and  C1_4 
REMARK    2  A    between atoms: C2_7  and  N3_8 
REMARK    3  A    between atoms: C4_12  and  C5_13 
REMARK    4  A    between atoms: C5_13  and  O1_14 
REMARK    5  A    between atoms: C5_13  and  O2_16 
REMARK    6  A    between atoms: C8_20  and  C9_21 
REMARK    7  A    between atoms: C9_21  and  O3_22 
REMARK    8  A    between atoms: C9_21  and  O4_24 
REMARK       I    between atoms: N4_30  and  C12_31 
REMARK    9  A    between atoms: C12_31  and  C13_33 
REMARK   10  A    between atoms: C13_33  and  O7_34 
REMARK   11  A    between atoms: N5_36  and  C14_37 
REMARK   12  A    between atoms: C14_37  and  O8_38 
REMARK   13  A    between atoms: C14_37  and  C15_40 
ROOT
HETATM    1  C1  UNL     1      16.474  20.703  48.498  1.00  0.00     0.144 A 
HETATM    2  N2  UNL     1      17.327  20.326  47.561  1.00  0.00    -0.323 N 
ATOM      3  H2  UNL     1      18.124  19.775  47.879  1.00  0.00     0.169 HD
HETATM    4  C2  UNL     1      17.272  20.584  46.224  1.00  0.00     0.113 A 
HETATM    5  C3  UNL     1      16.300  21.290  45.585  1.00  0.00     0.039 A 
HETATM    6  C4  UNL     1      16.356  21.551  44.202  1.00  0.00     0.041 A 
HETATM    7  C6  UNL     1      15.467  22.337  43.503  1.00  0.00     0.084 A 
HETATM    8  C7  UNL     1      14.396  22.894  44.232  1.00  0.00     0.075 A 
HETATM    9  C8  UNL     1      14.277  22.652  45.582  1.00  0.00     0.032 A 
HETATM   10  C10 UNL     1      15.220  21.863  46.239  1.00  0.00     0.035 A 
HETATM   11  S1  UNL     1      15.156  21.622  47.941  1.00  0.00    -0.053 SA
HETATM   12  C11 UNL     1      13.730  23.650  43.329  1.00  0.00     0.282 A 
HETATM   13  O5  UNL     1      12.681  24.275  43.691  1.00  0.00    -0.265 OA
HETATM   14  N4  UNL     1      14.339  23.593  42.134  1.00  0.00    -0.179 N 
HETATM   15  C12 UNL     1      13.820  24.328  41.049  1.00  0.00     0.269 C 
HETATM   16  O6  UNL     1      14.258  24.038  39.871  1.00  0.00    -0.269 OA
HETATM   17  N5  UNL     1      15.423  22.796  42.221  1.00  0.00    -0.239 N 
ENDROOT
BRANCH  17  18
HETATM   18  C14 UNL     1      16.443  22.733  41.243  1.00  0.00     0.344 C 
BRANCH  18  19
HETATM   19  O8  UNL     1      16.067  22.392  39.994  1.00  0.00    -0.366 OA
ATOM     20  H8  UNL     1      16.733  22.441  39.318  1.00  0.00     0.212 HD
ENDBRANCH  18  19
BRANCH  18  21
HETATM   21  C15 UNL     1      17.138  24.109  41.083  1.00  0.00     0.226 C 
HETATM   22  O9  UNL     1      17.588  24.395  39.982  1.00  0.00    -0.645 OA
HETATM   23  O10 UNL     1      17.227  24.946  42.166  1.00  0.00    -0.645 OA
ENDBRANCH  18  21
ENDBRANCH  17  18
BRANCH   6  24
HETATM   24  C5  UNL     1      17.158  20.557  43.463  1.00  0.00     0.291 C 
BRANCH  24  25
HETATM   25  O1  UNL     1      16.434  20.341  42.216  1.00  0.00    -0.367 OA
ATOM     26  H1  UNL     1      16.193  21.211  41.919  1.00  0.00     0.213 HD
ENDBRANCH  24  25
BRANCH  24  27
HETATM   27  O2  UNL     1      16.726  19.193  43.818  1.00  0.00    -0.367 OA
ATOM     28  H2  UNL     1      16.330  18.770  43.065  1.00  0.00     0.213 HD
ENDBRANCH  24  27
ENDBRANCH   6  24
BRANCH  15  29
HETATM   29  C13 UNL     1      12.842  25.408  41.003  1.00  0.00     0.269 C 
BRANCH  29  30
HETATM   30  O7  UNL     1      11.520  25.168  41.036  1.00  0.00    -0.392 OA
ATOM     31  H7  UNL     1      10.977  25.459  41.760  1.00  0.00     0.210 HD
ENDBRANCH  29  30
ENDBRANCH  15  29
BRANCH   9  32
HETATM   32  C9  UNL     1      13.201  23.188  46.402  1.00  0.00     0.290 C 
BRANCH  32  33
HETATM   33  O3  UNL     1      11.950  22.847  45.828  1.00  0.00    -0.367 OA
ATOM     34  H3  UNL     1      11.281  22.835  46.504  1.00  0.00     0.213 HD
ENDBRANCH  32  33
BRANCH  32  35
HETATM   35  O4  UNL     1      13.261  24.599  46.302  1.00  0.00    -0.367 OA
ATOM     36  H4  UNL     1      12.625  24.952  46.913  1.00  0.00     0.213 HD
ENDBRANCH  32  35
ENDBRANCH   9  32
BRANCH   4  37
HETATM   37  N3  UNL     1      18.376  20.243  45.560  1.00  0.00    -0.385 N 
ATOM     38  H32 UNL     1      18.541  19.262  45.334  1.00  0.00     0.157 HD
ATOM     39  H31 UNL     1      18.912  21.038  45.211  1.00  0.00     0.157 HD
ENDBRANCH   4  37
BRANCH   1  40
HETATM   40  N1  UNL     1      16.611  20.406  49.749  1.00  0.00    -0.380 N 
ATOM     41  H12 UNL     1      16.304  19.508  50.121  1.00  0.00     0.158 HD
ATOM     42  H11 UNL     1      17.028  21.036  50.434  1.00  0.00     0.158 HD
ENDBRANCH   1  40
TORSDOF 13
ENDMDL
MODEL 2
REMARK VINA RESULT: -5.531076863      2.403      4.982
REMARK  13 active torsions:
REMARK  status: ('A' for Active; 'I' for Inactive)
REMARK    1  A    between atoms: N1_1  and  C1_4 
REMARK    2  A    between atoms: C2_7  and  N3_8 
REMARK    3  A    between atoms: C4_12  and  C5_13 
REMARK    4  A    between atoms: C5_13  and  O1_14 
REMARK    5  A    between atoms: C5_13  and  O2_16 
REMARK    6  A    between atoms: C8_20  and  C9_21 
REMARK    7  A    between atoms: C9_21  and  O3_22 
REMARK    8  A    between atoms: C9_21  and  O4_24 
REMARK       I    between atoms: N4_30  and  C12_31 
REMARK    9  A    between atoms: C12_31  and  C13_33 
REMARK   10  A    between atoms: C13_33  and  O7_34 
REMARK   11  A    between atoms: N5_36  and  C14_37 
REMARK   12  A    between atoms: C14_37  and  O8_38 
REMARK   13  A    between atoms: C14_37  and  C15_40 
ROOT
HETATM    1  C1  UNL     1      16.742  20.584  45.000  1.00  0.00     0.144 A 
HETATM    2  N2  UNL     1      16.211  21.547  45.733  1.00  0.00    -0.323 N 
ATOM      3  H2  UNL     1      16.349  21.470  46.740  1.00  0.00     0.169 HD
HETATM    4  C2  UNL     1      15.504  22.631  45.308  1.00  0.00     0.113 A 
HETATM    5  C3  UNL     1      15.207  22.937  44.015  1.00  0.00     0.039 A 
HETATM    6  C4  UNL     1      14.420  24.054  43.674  1.00  0.00     0.041 A 
HETATM    7  C6  UNL     1      13.997  24.374  42.404  1.00  0.00     0.084 A 
HETATM    8  C7  UNL     1      14.419  23.526  41.358  1.00  0.00     0.075 A 
HETATM    9  C8  UNL     1      15.209  22.431  41.629  1.00  0.00     0.032 A 
HETATM   10  C10 UNL     1      15.591  22.149  42.940  1.00  0.00     0.035 A 
HETATM   11  S1  UNL     1      16.495  20.738  43.324  1.00  0.00    -0.053 SA
HETATM   12  C11 UNL     1      13.821  24.030  40.253  1.00  0.00     0.282 A 
HETATM   13  O5  UNL     1      14.031  23.480  39.125  1.00  0.00    -0.265 OA
HETATM   14  N4  UNL     1      13.070  25.094  40.575  1.00  0.00    -0.179 N 
HETATM   15  C12 UNL     1      12.339  25.763  39.573  1.00  0.00     0.269 C 
HETATM   16  O6  UNL     1      11.858  26.925  39.862  1.00  0.00    -0.269 OA
HETATM   17  N5  UNL     1      13.153  25.317  41.902  1.00  0.00    -0.239 N 
ENDROOT
BRANCH  17  18
HETATM   18  C14 UNL     1      12.283  26.171  42.620  1.00  0.00     0.344 C 
BRANCH  18  19
HETATM   19  O8  UNL     1      12.118  27.418  42.137  1.00  0.00    -0.366 OA
ATOM     20  H8  UNL     1      11.246  27.653  41.844  1.00  0.00     0.212 HD
ENDBRANCH  18  19
BRANCH  18  21
HETATM   21  C15 UNL     1      10.852  25.578  42.676  1.00  0.00     0.226 C 
HETATM   22  O9  UNL     1       9.943  26.237  42.192  1.00  0.00    -0.645 OA
HETATM   23  O10 UNL     1      10.656  24.351  43.259  1.00  0.00    -0.645 OA
ENDBRANCH  18  21
ENDBRANCH  17  18
BRANCH   6  24
HETATM   24  C5  UNL     1      14.465  25.118  44.697  1.00  0.00     0.291 C 
BRANCH  24  25
HETATM   25  O1  UNL     1      13.079  25.291  45.120  1.00  0.00    -0.367 OA
ATOM     26  H1  UNL     1      13.049  24.944  46.004  1.00  0.00     0.213 HD
ENDBRANCH  24  25
BRANCH  24  27
HETATM   27  O2  UNL     1      14.316  26.439  44.061  1.00  0.00    -0.367 OA
ATOM     28  H2  UNL     1      15.095  26.649  43.559  1.00  0.00     0.213 HD
ENDBRANCH  24  27
ENDBRANCH   6  24
BRANCH  15  29
HETATM   29  C13 UNL     1      12.003  25.371  38.210  1.00  0.00     0.269 C 
BRANCH  29  30
HETATM   30  O7  UNL     1      12.931  25.316  37.239  1.00  0.00    -0.392 OA
ATOM     31  H7  UNL     1      13.781  24.917  37.382  1.00  0.00     0.210 HD
ENDBRANCH  29  30
ENDBRANCH  15  29
BRANCH   9  32
HETATM   32  C9  UNL     1      15.686  21.513  40.606  1.00  0.00     0.290 C 
BRANCH  32  33
HETATM   33  O3  UNL     1      16.466  22.220  39.656  1.00  0.00    -0.367 OA
ATOM     34  H3  UNL     1      15.932  22.434  38.900  1.00  0.00     0.213 HD
ENDBRANCH  32  33
BRANCH  32  35
HETATM   35  O4  UNL     1      14.554  21.075  39.876  1.00  0.00    -0.367 OA
ATOM     36  H4  UNL     1      14.863  20.787  39.025  1.00  0.00     0.213 HD
ENDBRANCH  32  35
ENDBRANCH   9  32
BRANCH   4  37
HETATM   37  N3  UNL     1      14.927  23.323  46.291  1.00  0.00    -0.385 N 
ATOM     38  H32 UNL     1      14.455  22.822  47.043  1.00  0.00     0.157 HD
ATOM     39  H31 UNL     1      15.131  24.322  46.270  1.00  0.00     0.157 HD
ENDBRANCH   4  37
BRANCH   1  40
HETATM   40  N1  UNL     1      17.403  19.590  45.498  1.00  0.00    -0.380 N 
ATOM     41  H12 UNL     1      18.211  19.736  46.103  1.00  0.00     0.158 HD
ATOM     42  H11 UNL     1      17.166  18.614  45.324  1.00  0.00     0.158 HD
ENDBRANCH   1  40
TORSDOF 13
ENDMDL
MODEL 3
REMARK VINA RESULT: -5.249254169      2.618      4.987
REMARK  13 active torsions:
REMARK  status: ('A' for Active; 'I' for Inactive)
REMARK    1  A    between atoms: N1_1  and  C1_4 
REMARK    2  A    between atoms: C2_7  and  N3_8 
REMARK    3  A    between atoms: C4_12  and  C5_13 
REMARK    4  A    between atoms: C5_13  and  O1_14 
REMARK    5  A    between atoms: C5_13  and  O2_16 
REMARK    6  A    between atoms: C8_20  and  C9_21 
REMARK    7  A    between atoms: C9_21  and  O3_22 
REMARK    8  A    between atoms: C9_21  and  O4_24 
REMARK       I    between atoms: N4_30  and  C12_31 
REMARK    9  A    between atoms: C12_31  and  C13_33 
REMARK   10  A    between atoms: C13_33  and  O7_34 
REMARK   11  A    between atoms: N5_36  and  C14_37 
REMARK   12  A    between atoms: C14_37  and  O8_38 
REMARK   13  A    between atoms: C14_37  and  C15_40 
ROOT
HETATM    1  C1  UNL     1      11.215  24.218  47.432  1.00  0.00     0.144 A 
HETATM    2  N2  UNL     1      11.342  25.106  46.461  1.00  0.00    -0.323 N 
ATOM      3  H2  UNL     1      10.733  25.922  46.520  1.00  0.00     0.169 HD
HETATM    4  C2  UNL     1      12.187  25.064  45.393  1.00  0.00     0.113 A 
HETATM    5  C3  UNL     1      13.085  24.079  45.120  1.00  0.00     0.039 A 
HETATM    6  C4  UNL     1      13.881  24.096  43.958  1.00  0.00     0.041 A 
HETATM    7  C6  UNL     1      14.738  23.093  43.564  1.00  0.00     0.084 A 
HETATM    8  C7  UNL     1      14.847  21.975  44.417  1.00  0.00     0.075 A 
HETATM    9  C8  UNL     1      14.111  21.915  45.579  1.00  0.00     0.032 A 
HETATM   10  C10 UNL     1      13.246  22.955  45.916  1.00  0.00     0.035 A 
HETATM   11  S1  UNL     1      12.240  22.866  47.308  1.00  0.00    -0.053 SA
HETATM   12  C11 UNL     1      15.692  21.138  43.770  1.00  0.00     0.282 A 
HETATM   13  O5  UNL     1      16.008  20.030  44.311  1.00  0.00    -0.265 OA
HETATM   14  N4  UNL     1      16.069  21.672  42.598  1.00  0.00    -0.179 N 
HETATM   15  C12 UNL     1      16.935  20.955  41.749  1.00  0.00     0.269 C 
HETATM   16  O6  UNL     1      17.487  21.601  40.778  1.00  0.00    -0.269 OA
HETATM   17  N5  UNL     1      15.480  22.876  42.444  1.00  0.00    -0.239 N 
ENDROOT
BRANCH  17  18
HETATM   18  C14 UNL     1      15.430  23.584  41.220  1.00  0.00     0.344 C 
BRANCH  18  19
HETATM   19  O8  UNL     1      16.583  23.689  40.530  1.00  0.00    -0.366 OA
ATOM     20  H8  UNL     1      16.989  24.547  40.502  1.00  0.00     0.212 HD
ENDBRANCH  18  19
BRANCH  18  21
HETATM   21  C15 UNL     1      14.440  22.912  40.235  1.00  0.00     0.226 C 
HETATM   22  O9  UNL     1      13.259  23.217  40.318  1.00  0.00    -0.645 OA
HETATM   23  O10 UNL     1      14.915  22.008  39.319  1.00  0.00    -0.645 OA
ENDBRANCH  18  21
ENDBRANCH  17  18
BRANCH   6  24
HETATM   24  C5  UNL     1      14.089  25.458  43.427  1.00  0.00     0.291 C 
BRANCH  24  25
HETATM   25  O1  UNL     1      13.462  25.447  42.110  1.00  0.00    -0.367 OA
ATOM     26  H1  UNL     1      13.280  26.360  41.919  1.00  0.00     0.213 HD
ENDBRANCH  24  25
BRANCH  24  27
HETATM   27  O2  UNL     1      15.365  25.525  42.694  1.00  0.00    -0.367 OA
ATOM     28  H2  UNL     1      15.506  26.405  42.364  1.00  0.00     0.213 HD
ENDBRANCH  24  27
ENDBRANCH   6  24
BRANCH  15  29
HETATM   29  C13 UNL     1      17.341  19.555  41.756  1.00  0.00     0.269 C 
BRANCH  29  30
HETATM   30  O7  UNL     1      18.328  19.099  40.965  1.00  0.00    -0.392 OA
ATOM     31  H7  UNL     1      18.610  18.192  40.989  1.00  0.00     0.210 HD
ENDBRANCH  29  30
ENDBRANCH  15  29
BRANCH   9  32
HETATM   32  C9  UNL     1      14.171  20.798  46.510  1.00  0.00     0.290 C 
BRANCH  32  33
HETATM   33  O3  UNL     1      15.518  20.561  46.885  1.00  0.00    -0.367 OA
ATOM     34  H3  UNL     1      16.001  21.379  46.872  1.00  0.00     0.213 HD
ENDBRANCH  32  33
BRANCH  32  35
HETATM   35  O4  UNL     1      13.795  19.635  45.795  1.00  0.00    -0.367 OA
ATOM     36  H4  UNL     1      13.490  19.917  44.941  1.00  0.00     0.213 HD
ENDBRANCH  32  35
ENDBRANCH   9  32
BRANCH   4  37
HETATM   37  N3  UNL     1      11.949  26.003  44.477  1.00  0.00    -0.385 N 
ATOM     38  H32 UNL     1      11.125  26.597  44.572  1.00  0.00     0.157 HD
ATOM     39  H31 UNL     1      12.710  26.135  43.811  1.00  0.00     0.157 HD
ENDBRANCH   4  37
BRANCH   1  40
HETATM   40  N1  UNL     1      10.381  24.347  48.412  1.00  0.00    -0.380 N 
ATOM     41  H12 UNL     1      10.391  25.167  49.017  1.00  0.00     0.158 HD
ATOM     42  H11 UNL     1       9.671  23.651  48.641  1.00  0.00     0.158 HD
ENDBRANCH   1  40
TORSDOF 13
ENDMDL
MODEL 4
REMARK VINA RESULT: -5.139426493      2.818      6.116
REMARK  13 active torsions:
REMARK  status: ('A' for Active; 'I' for Inactive)
REMARK    1  A    between atoms: N1_1  and  C1_4 
REMARK    2  A    between atoms: C2_7  and  N3_8 
REMARK    3  A    between atoms: C4_12  and  C5_13 
REMARK    4  A    between atoms: C5_13  and  O1_14 
REMARK    5  A    between atoms: C5_13  and  O2_16 
REMARK    6  A    between atoms: C8_20  and  C9_21 
REMARK    7  A    between atoms: C9_21  and  O3_22 
REMARK    8  A    between atoms: C9_21  and  O4_24 
REMARK       I    between atoms: N4_30  and  C12_31 
REMARK    9  A    between atoms: C12_31  and  C13_33 
REMARK   10  A    between atoms: C13_33  and  O7_34 
REMARK   11  A    between atoms: N5_36  and  C14_37 
REMARK   12  A    between atoms: C14_37  and  O8_38 
REMARK   13  A    between atoms: C14_37  and  C15_40 
ROOT
HETATM    1  C1  UNL     1      11.995  27.731  43.759  1.00  0.00     0.144 A 
HETATM    2  N2  UNL     1      11.988  27.041  44.886  1.00  0.00    -0.323 N 
ATOM      3  H2  UNL     1      11.530  27.486  45.681  1.00  0.00     0.169 HD
HETATM    4  C2  UNL     1      12.518  25.807  45.115  1.00  0.00     0.113 A 
HETATM    5  C3  UNL     1      13.165  25.031  44.203  1.00  0.00     0.039 A 
HETATM    6  C4  UNL     1      13.728  23.787  44.548  1.00  0.00     0.041 A 
HETATM    7  C6  UNL     1      14.479  22.992  43.711  1.00  0.00     0.084 A 
HETATM    8  C7  UNL     1      14.666  23.453  42.391  1.00  0.00     0.075 A 
HETATM    9  C8  UNL     1      14.117  24.651  41.991  1.00  0.00     0.032 A 
HETATM   10  C10 UNL     1      13.382  25.421  42.890  1.00  0.00     0.035 A 
HETATM   11  S1  UNL     1      12.767  26.966  42.451  1.00  0.00    -0.053 SA
HETATM   12  C11 UNL     1      15.472  22.527  41.821  1.00  0.00     0.282 A 
HETATM   13  O5  UNL     1      15.808  22.659  40.600  1.00  0.00    -0.265 OA
HETATM   14  N4  UNL     1      15.785  21.572  42.711  1.00  0.00    -0.179 N 
HETATM   15  C12 UNL     1      16.637  20.515  42.331  1.00  0.00     0.269 C 
HETATM   16  O6  UNL     1      16.693  19.488  43.109  1.00  0.00    -0.269 OA
HETATM   17  N5  UNL     1      15.193  21.846  43.890  1.00  0.00    -0.239 N 
ENDROOT
BRANCH  17  18
HETATM   18  C14 UNL     1      15.525  21.215  45.112  1.00  0.00     0.344 C 
BRANCH  18  19
HETATM   19  O8  UNL     1      15.585  19.869  45.105  1.00  0.00    -0.366 OA
ATOM     20  H8  UNL     1      14.773  19.403  45.266  1.00  0.00     0.212 HD
ENDBRANCH  18  19
BRANCH  18  21
HETATM   21  C15 UNL     1      16.923  21.670  45.603  1.00  0.00     0.226 C 
HETATM   22  O9  UNL     1      17.783  20.812  45.746  1.00  0.00    -0.645 OA
HETATM   23  O10 UNL     1      17.145  22.999  45.860  1.00  0.00    -0.645 OA
ENDBRANCH  18  21
ENDBRANCH  17  18
BRANCH   6  24
HETATM   24  C5  UNL     1      13.076  23.168  45.719  1.00  0.00     0.291 C 
BRANCH  24  25
HETATM   25  O1  UNL     1      13.131  21.733  45.464  1.00  0.00    -0.367 OA
ATOM     26  H1  UNL     1      13.083  21.650  44.519  1.00  0.00     0.213 HD
ENDBRANCH  24  25
BRANCH  24  27
HETATM   27  O2  UNL     1      11.628  23.039  45.483  1.00  0.00    -0.367 OA
ATOM     28  H2  UNL     1      11.395  23.440  44.653  1.00  0.00     0.213 HD
ENDBRANCH  24  27
ENDBRANCH   6  24
BRANCH  15  29
HETATM   29  C13 UNL     1      17.512  20.357  41.176  1.00  0.00     0.269 C 
BRANCH  29  30
HETATM   30  O7  UNL     1      18.243  19.245  40.988  1.00  0.00    -0.392 OA
ATOM     31  H7  UNL     1      19.174  19.284  40.802  1.00  0.00     0.210 HD
ENDBRANCH  29  30
ENDBRANCH  15  29
BRANCH   9  32
HETATM   32  C9  UNL     1      14.263  25.191  40.647  1.00  0.00     0.290 C 
BRANCH  32  33
HETATM   33  O3  UNL     1      13.844  24.226  39.697  1.00  0.00    -0.367 OA
ATOM     34  H3  UNL     1      13.570  24.662  38.899  1.00  0.00     0.213 HD
ENDBRANCH  32  33
BRANCH  32  35
HETATM   35  O4  UNL     1      15.650  25.344  40.405  1.00  0.00    -0.367 OA
ATOM     36  H4  UNL     1      15.755  26.102  39.843  1.00  0.00     0.213 HD
ENDBRANCH  32  35
ENDBRANCH   9  32
BRANCH   4  37
HETATM   37  N3  UNL     1      12.531  25.452  46.400  1.00  0.00    -0.385 N 
ATOM     38  H32 UNL     1      13.372  25.613  46.955  1.00  0.00     0.157 HD
ATOM     39  H31 UNL     1      11.622  25.161  46.760  1.00  0.00     0.157 HD
ENDBRANCH   4  37
BRANCH   1  40
HETATM   40  N1  UNL     1      11.460  28.903  43.638  1.00  0.00    -0.380 N 
ATOM     41  H12 UNL     1      11.816  29.708  44.153  1.00  0.00     0.158 HD
ATOM     42  H11 UNL     1      10.663  29.097  43.032  1.00  0.00     0.158 HD
ENDBRANCH   1  40
TORSDOF 13
ENDMDL
MODEL 5
REMARK VINA RESULT: -5.123589141      3.160      4.995
REMARK  13 active torsions:
REMARK  status: ('A' for Active; 'I' for Inactive)
REMARK    1  A    between atoms: N1_1  and  C1_4 
REMARK    2  A    between atoms: C2_7  and  N3_8 
REMARK    3  A    between atoms: C4_12  and  C5_13 
REMARK    4  A    between atoms: C5_13  and  O1_14 
REMARK    5  A    between atoms: C5_13  and  O2_16 
REMARK    6  A    between atoms: C8_20  and  C9_21 
REMARK    7  A    between atoms: C9_21  and  O3_22 
REMARK    8  A    between atoms: C9_21  and  O4_24 
REMARK       I    between atoms: N4_30  and  C12_31 
REMARK    9  A    between atoms: C12_31  and  C13_33 
REMARK   10  A    between atoms: C13_33  and  O7_34 
REMARK   11  A    between atoms: N5_36  and  C14_37 
REMARK   12  A    between atoms: C14_37  and  O8_38 
REMARK   13  A    between atoms: C14_37  and  C15_40 
ROOT
HETATM    1  C1  UNL     1      17.301  20.060  41.502  1.00  0.00     0.144 A 
HETATM    2  N2  UNL     1      16.697  20.626  40.472  1.00  0.00    -0.323 N 
ATOM      3  H2  UNL     1      16.966  20.279  39.551  1.00  0.00     0.169 HD
HETATM    4  C2  UNL     1      15.761  21.616  40.488  1.00  0.00     0.113 A 
HETATM    5  C3  UNL     1      15.253  22.219  41.598  1.00  0.00     0.039 A 
HETATM    6  C4  UNL     1      14.324  23.274  41.514  1.00  0.00     0.041 A 
HETATM    7  C6  UNL     1      13.841  23.997  42.581  1.00  0.00     0.084 A 
HETATM    8  C7  UNL     1      14.292  23.622  43.864  1.00  0.00     0.075 A 
HETATM    9  C8  UNL     1      15.182  22.581  44.008  1.00  0.00     0.032 A 
HETATM   10  C10 UNL     1      15.650  21.898  42.887  1.00  0.00     0.035 A 
HETATM   11  S1  UNL     1      16.836  20.660  43.025  1.00  0.00    -0.053 SA
HETATM   12  C11 UNL     1      13.717  24.517  44.700  1.00  0.00     0.282 A 
HETATM   13  O5  UNL     1      13.923  24.423  45.953  1.00  0.00    -0.265 OA
HETATM   14  N4  UNL     1      12.980  25.397  44.004  1.00  0.00    -0.179 N 
HETATM   15  C12 UNL     1      12.308  26.436  44.679  1.00  0.00     0.269 C 
HETATM   16  O6  UNL     1      11.404  27.083  44.025  1.00  0.00    -0.269 OA
HETATM   17  N5  UNL     1      13.053  25.103  42.690  1.00  0.00    -0.239 N 
ENDROOT
BRANCH  17  18
HETATM   18  C14 UNL     1      12.636  25.974  41.656  1.00  0.00     0.344 C 
BRANCH  18  19
HETATM   19  O8  UNL     1      11.384  26.466  41.744  1.00  0.00    -0.366 OA
ATOM     20  H8  UNL     1      11.298  27.409  41.817  1.00  0.00     0.212 HD
ENDBRANCH  18  19
BRANCH  18  21
HETATM   21  C15 UNL     1      13.548  27.225  41.589  1.00  0.00     0.226 C 
HETATM   22  O9  UNL     1      14.741  27.049  41.386  1.00  0.00    -0.645 OA
HETATM   23  O10 UNL     1      12.994  28.469  41.760  1.00  0.00    -0.645 OA
ENDBRANCH  18  21
ENDBRANCH  17  18
BRANCH   6  24
HETATM   24  C5  UNL     1      13.547  23.254  40.259  1.00  0.00     0.291 C 
BRANCH  24  25
HETATM   25  O1  UNL     1      13.775  24.562  39.655  1.00  0.00    -0.367 OA
ATOM     26  H1  UNL     1      13.463  24.476  38.762  1.00  0.00     0.213 HD
ENDBRANCH  24  25
BRANCH  24  27
HETATM   27  O2  UNL     1      12.175  23.733  40.506  1.00  0.00    -0.367 OA
ATOM     28  H2  UNL     1      11.782  24.028  39.693  1.00  0.00     0.213 HD
ENDBRANCH  24  27
ENDBRANCH   6  24
BRANCH  15  29
HETATM   29  C13 UNL     1      12.450  26.944  46.038  1.00  0.00     0.269 C 
BRANCH  29  30
HETATM   30  O7  UNL     1      11.888  26.323  47.089  1.00  0.00    -0.392 OA
ATOM     31  H7  UNL     1      11.680  25.396  47.070  1.00  0.00     0.210 HD
ENDBRANCH  29  30
ENDBRANCH  15  29
BRANCH   9  32
HETATM   32  C9  UNL     1      15.691  22.133  45.296  1.00  0.00     0.290 C 
BRANCH  32  33
HETATM   33  O3  UNL     1      14.607  21.845  46.164  1.00  0.00    -0.367 OA
ATOM     34  H3  UNL     1      14.939  21.565  47.008  1.00  0.00     0.213 HD
ENDBRANCH  32  33
BRANCH  32  35
HETATM   35  O4  UNL     1      16.339  23.239  45.898  1.00  0.00    -0.367 OA
ATOM     36  H4  UNL     1      16.080  23.254  46.812  1.00  0.00     0.213 HD
ENDBRANCH  32  35
ENDBRANCH   9  32
BRANCH   4  37
HETATM   37  N3  UNL     1      15.482  22.119  39.286  1.00  0.00    -0.385 N 
ATOM     38  H32 UNL     1      15.657  23.107  39.105  1.00  0.00     0.157 HD
ATOM     39  H31 UNL     1      15.231  21.416  38.590  1.00  0.00     0.157 HD
ENDBRANCH   4  37
BRANCH   1  40
HETATM   40  N1  UNL     1      18.181  19.120  41.385  1.00  0.00    -0.380 N 
ATOM     41  H12 UNL     1      18.025  18.316  40.779  1.00  0.00     0.158 HD
ATOM     42  H11 UNL     1      19.072  19.120  41.881  1.00  0.00     0.158 HD
ENDBRANCH   1  40
TORSDOF 13
ENDMDL
