MODEL 1
REMARK VINA RESULT: -8.805871277      0.000      0.000
REMARK  11 active torsions:
REMARK  status: ('A' for Active; 'I' for Inactive)
REMARK    1  A    between atoms: N1_1  and  C1_4 
REMARK    2  A    between atoms: C2_9  and  C3_10 
REMARK    3  A    between atoms: C4_15  and  C5_16 
REMARK    4  A    between atoms: C5_16  and  O1_17 
REMARK    5  A    between atoms: C7_20  and  C8_21 
REMARK    6  A    between atoms: C9_26  and  C10_27 
REMARK    7  A    between atoms: C10_27  and  S1_28 
REMARK    8  A    between atoms: S1_28  and  C11_31 
REMARK    9  A    between atoms: C11_31  and  N8_32 
REMARK   10  A    between atoms: C11_31  and  N9_36 
REMARK   11  A    between atoms: C12_47  and  N14_48 
ROOT
HETATM    1  C5  UNL     1      10.512  25.835  38.358  1.00  0.00     0.206 C 
HETATM    2  C6  UNL     1      10.713  26.920  37.269  1.00  0.00     0.097 C 
HETATM    3  C7  UNL     1       9.213  27.126  37.003  1.00  0.00     0.176 C 
HETATM    4  N10 UNL     1       8.746  27.309  38.337  1.00  0.00    -0.132 NA
HETATM    5  N11 UNL     1       9.574  26.535  39.185  1.00  0.00    -0.101 NA
ENDROOT
BRANCH   1   6
HETATM    6  C4  UNL     1      11.784  25.473  38.964  1.00  0.00     0.151 A 
HETATM    7  N5  UNL     1      12.902  26.267  38.885  1.00  0.00    -0.283 N 
HETATM    8  N4  UNL     1      13.878  25.626  39.515  1.00  0.00    -0.281 N 
ATOM      9  H5  UNL     1      12.969  27.176  38.428  1.00  0.00     0.188 HD
HETATM   10  C3  UNL     1      13.439  24.437  40.005  1.00  0.00     0.168 A 
ATOM     11  H4  UNL     1      14.830  25.979  39.617  1.00  0.00     0.188 HD
HETATM   12  N12 UNL     1      12.151  24.402  39.638  1.00  0.00    -0.323 N 
ATOM     13  H12 UNL     1      11.522  23.630  39.857  1.00  0.00     0.169 HD
BRANCH  10  14
HETATM   14  C2  UNL     1      14.256  23.475  40.759  1.00  0.00     0.168 A 
HETATM   15  N3  UNL     1      14.348  23.596  42.078  1.00  0.00    -0.281 N 
HETATM   16  N2  UNL     1      15.075  22.770  42.838  1.00  0.00    -0.281 N 
ATOM     17  H3  UNL     1      13.841  24.354  42.533  1.00  0.00     0.188 HD
HETATM   18  C1  UNL     1      15.749  21.764  42.250  1.00  0.00     0.158 A 
ATOM     19  H2  UNL     1      15.117  22.900  43.848  1.00  0.00     0.188 HD
HETATM   20  C12 UNL     1      15.670  21.615  40.899  1.00  0.00     0.146 A 
HETATM   21  N13 UNL     1      14.914  22.484  40.138  1.00  0.00    -0.322 N 
ATOM     22  H13 UNL     1      14.857  22.374  39.125  1.00  0.00     0.169 HD
BRANCH  18  23
HETATM   23  N1  UNL     1      16.482  20.963  42.989  1.00  0.00    -0.381 N 
ATOM     24  H12 UNL     1      17.481  21.121  43.120  1.00  0.00     0.157 HD
ATOM     25  H11 UNL     1      16.040  20.172  43.457  1.00  0.00     0.157 HD
ENDBRANCH  18  23
BRANCH  20  26
HETATM   26  N14 UNL     1      16.291  20.660  40.290  1.00  0.00    -0.382 N 
ATOM     27 2H14 UNL     1      15.803  19.773  40.169  1.00  0.00     0.157 HD
ATOM     28 1H14 UNL     1      17.242  20.782  39.943  1.00  0.00     0.157 HD
ENDBRANCH  20  26
ENDBRANCH  10  14
ENDBRANCH   1   6
BRANCH   1  29
HETATM   29  O1  UNL     1       9.899  24.766  37.694  1.00  0.00    -0.366 OA
ATOM     30  H1  UNL     1       9.025  24.973  37.386  1.00  0.00     0.212 HD
ENDBRANCH   1  29
BRANCH   3  31
HETATM   31  C8  UNL     1       8.965  28.193  36.049  1.00  0.00     0.161 A 
HETATM   32  N6  UNL     1       9.741  29.148  35.615  1.00  0.00    -0.280 N 
HETATM   33  N7  UNL     1       9.079  29.900  34.727  1.00  0.00    -0.281 N 
ATOM     34  H6  UNL     1      10.706  29.299  35.908  1.00  0.00     0.189 HD
HETATM   35  C9  UNL     1       7.859  29.398  34.608  1.00  0.00     0.154 A 
ATOM     36  H7  UNL     1       9.447  30.712  34.232  1.00  0.00     0.189 HD
HETATM   37  O4  UNL     1       7.806  28.350  35.428  1.00  0.00    -0.279 OA
BRANCH  35  38
HETATM   38  C10 UNL     1       6.707  29.820  33.777  1.00  0.00     0.230 C 
BRANCH  38  39
HETATM   39  S1  UNL     1       7.032  30.001  32.083  1.00  0.00     0.206 S 
HETATM   40  O2  UNL     1       8.486  29.739  31.746  1.00  0.00    -0.224 OA
HETATM   41  O3  UNL     1       6.807  31.463  31.704  1.00  0.00    -0.224 OA
BRANCH  39  42
HETATM   42  C11 UNL     1       5.959  29.002  31.115  1.00  0.00     0.497 C 
BRANCH  42  43
HETATM   43  N8  UNL     1       5.875  27.666  31.616  1.00  0.00    -0.037 N 
ATOM     44  H83 UNL     1       6.771  27.353  31.989  1.00  0.00     0.278 HD
ATOM     45  H82 UNL     1       5.322  27.625  32.471  1.00  0.00     0.278 HD
ATOM     46  H81 UNL     1       5.519  27.016  30.914  1.00  0.00     0.278 HD
ENDBRANCH  42  43
BRANCH  42  47
HETATM   47  N9  UNL     1       6.435  28.995  29.709  1.00  0.00    -0.037 N 
ATOM     48  H93 UNL     1       7.443  28.853  29.641  1.00  0.00     0.278 HD
ATOM     49  H92 UNL     1       6.138  28.161  29.203  1.00  0.00     0.278 HD
ATOM     50  H91 UNL     1       6.133  29.854  29.249  1.00  0.00     0.278 HD
ENDBRANCH  42  47
ENDBRANCH  39  42
ENDBRANCH  38  39
ENDBRANCH  35  38
ENDBRANCH   3  31
TORSDOF 11
ENDMDL
MODEL 2
REMARK VINA RESULT: -8.723703800      0.407      1.131
REMARK  11 active torsions:
REMARK  status: ('A' for Active; 'I' for Inactive)
REMARK    1  A    between atoms: N1_1  and  C1_4 
REMARK    2  A    between atoms: C2_9  and  C3_10 
REMARK    3  A    between atoms: C4_15  and  C5_16 
REMARK    4  A    between atoms: C5_16  and  O1_17 
REMARK    5  A    between atoms: C7_20  and  C8_21 
REMARK    6  A    between atoms: C9_26  and  C10_27 
REMARK    7  A    between atoms: C10_27  and  S1_28 
REMARK    8  A    between atoms: S1_28  and  C11_31 
REMARK    9  A    between atoms: C11_31  and  N8_32 
REMARK   10  A    between atoms: C11_31  and  N9_36 
REMARK   11  A    between atoms: C12_47  and  N14_48 
ROOT
HETATM    1  C5  UNL     1      10.479  25.889  38.343  1.00  0.00     0.206 C 
HETATM    2  C6  UNL     1      10.710  26.984  37.271  1.00  0.00     0.097 C 
HETATM    3  C7  UNL     1       9.218  27.177  36.950  1.00  0.00     0.176 C 
HETATM    4  N10 UNL     1       8.700  27.345  38.267  1.00  0.00    -0.132 NA
HETATM    5  N11 UNL     1       9.504  26.572  39.139  1.00  0.00    -0.101 NA
ENDROOT
BRANCH   1   6
HETATM    6  C4  UNL     1      11.732  25.534  38.993  1.00  0.00     0.151 A 
HETATM    7  N5  UNL     1      12.758  26.428  39.175  1.00  0.00    -0.283 N 
HETATM    8  N4  UNL     1      13.745  25.770  39.767  1.00  0.00    -0.281 N 
ATOM      9  H5  UNL     1      12.760  27.412  38.906  1.00  0.00     0.188 HD
HETATM   10  C3  UNL     1      13.402  24.472  39.980  1.00  0.00     0.168 A 
ATOM     11  H4  UNL     1      14.641  26.182  40.028  1.00  0.00     0.188 HD
HETATM   12  N12 UNL     1      12.160  24.391  39.487  1.00  0.00    -0.323 N 
ATOM     13  H12 UNL     1      11.605  23.536  39.494  1.00  0.00     0.169 HD
BRANCH  10  14
HETATM   14  C2  UNL     1      14.258  23.460  40.618  1.00  0.00     0.168 A 
HETATM   15  N3  UNL     1      14.739  22.463  39.887  1.00  0.00    -0.281 N 
HETATM   16  N2  UNL     1      15.517  21.498  40.388  1.00  0.00    -0.281 N 
ATOM     17  H3  UNL     1      14.504  22.431  38.895  1.00  0.00     0.188 HD
HETATM   18  C1  UNL     1      15.835  21.529  41.695  1.00  0.00     0.158 A 
ATOM     19  H2  UNL     1      15.864  20.750  39.789  1.00  0.00     0.188 HD
HETATM   20  C12 UNL     1      15.358  22.543  42.469  1.00  0.00     0.146 A 
HETATM   21  N13 UNL     1      14.555  23.525  41.926  1.00  0.00    -0.322 N 
ATOM     22  H13 UNL     1      14.194  24.283  42.505  1.00  0.00     0.169 HD
BRANCH  18  23
HETATM   23  N1  UNL     1      16.581  20.572  42.198  1.00  0.00    -0.381 N 
ATOM     24  H12 UNL     1      17.210  20.021  41.614  1.00  0.00     0.157 HD
ATOM     25  H11 UNL     1      16.544  20.384  43.200  1.00  0.00     0.157 HD
ENDBRANCH  18  23
BRANCH  20  26
HETATM   26  N14 UNL     1      15.643  22.621  43.727  1.00  0.00    -0.382 N 
ATOM     27 2H14 UNL     1      16.384  22.019  44.087  1.00  0.00     0.157 HD
ATOM     28 1H14 UNL     1      15.145  23.260  44.346  1.00  0.00     0.157 HD
ENDBRANCH  20  26
ENDBRANCH  10  14
ENDBRANCH   1   6
BRANCH   1  29
HETATM   29  O1  UNL     1       9.903  24.819  37.648  1.00  0.00    -0.366 OA
ATOM     30  H1  UNL     1       8.985  24.694  37.855  1.00  0.00     0.212 HD
ENDBRANCH   1  29
BRANCH   3  31
HETATM   31  C8  UNL     1       8.996  28.249  35.996  1.00  0.00     0.161 A 
HETATM   32  N6  UNL     1       9.789  29.196  35.574  1.00  0.00    -0.280 N 
HETATM   33  N7  UNL     1       9.147  29.958  34.679  1.00  0.00    -0.281 N 
ATOM     34  H6  UNL     1      10.752  29.334  35.879  1.00  0.00     0.189 HD
HETATM   35  C9  UNL     1       7.922  29.471  34.544  1.00  0.00     0.154 A 
ATOM     36  H7  UNL     1       9.531  30.766  34.191  1.00  0.00     0.189 HD
HETATM   37  O4  UNL     1       7.846  28.422  35.361  1.00  0.00    -0.279 OA
BRANCH  35  38
HETATM   38  C10 UNL     1       6.786  29.909  33.700  1.00  0.00     0.230 C 
BRANCH  38  39
HETATM   39  S1  UNL     1       7.134  30.091  32.011  1.00  0.00     0.206 S 
HETATM   40  O2  UNL     1       8.583  29.786  31.687  1.00  0.00    -0.224 OA
HETATM   41  O3  UNL     1       6.959  31.561  31.639  1.00  0.00    -0.224 OA
BRANCH  39  42
HETATM   42  C11 UNL     1       6.040  29.132  31.025  1.00  0.00     0.497 C 
BRANCH  42  43
HETATM   43  N8  UNL     1       5.915  27.794  31.512  1.00  0.00    -0.037 N 
ATOM     44  H83 UNL     1       5.596  27.161  30.778  1.00  0.00     0.278 HD
ATOM     45  H82 UNL     1       6.828  27.379  31.697  1.00  0.00     0.278 HD
ATOM     46  H81 UNL     1       5.312  27.741  32.333  1.00  0.00     0.278 HD
ENDBRANCH  42  43
BRANCH  42  47
HETATM   47  N9  UNL     1       6.526  29.125  29.622  1.00  0.00    -0.037 N 
ATOM     48  H93 UNL     1       6.056  29.823  29.046  1.00  0.00     0.278 HD
ATOM     49  H92 UNL     1       7.476  29.487  29.540  1.00  0.00     0.278 HD
ATOM     50  H91 UNL     1       6.436  28.183  29.241  1.00  0.00     0.278 HD
ENDBRANCH  42  47
ENDBRANCH  39  42
ENDBRANCH  38  39
ENDBRANCH  35  38
ENDBRANCH   3  31
TORSDOF 11
ENDMDL
MODEL 3
REMARK VINA RESULT: -8.325654383      1.098      1.277
REMARK  11 active torsions:
REMARK  status: ('A' for Active; 'I' for Inactive)
REMARK    1  A    between atoms: N1_1  and  C1_4 
REMARK    2  A    between atoms: C2_9  and  C3_10 
REMARK    3  A    between atoms: C4_15  and  C5_16 
REMARK    4  A    between atoms: C5_16  and  O1_17 
REMARK    5  A    between atoms: C7_20  and  C8_21 
REMARK    6  A    between atoms: C9_26  and  C10_27 
REMARK    7  A    between atoms: C10_27  and  S1_28 
REMARK    8  A    between atoms: S1_28  and  C11_31 
REMARK    9  A    between atoms: C11_31  and  N8_32 
REMARK   10  A    between atoms: C11_31  and  N9_36 
REMARK   11  A    between atoms: C12_47  and  N14_48 
ROOT
HETATM    1  C5  UNL     1      10.676  25.738  38.593  1.00  0.00     0.206 C 
HETATM    2  C6  UNL     1      10.869  26.774  37.457  1.00  0.00     0.097 C 
HETATM    3  C7  UNL     1       9.367  27.019  37.238  1.00  0.00     0.176 C 
HETATM    4  N10 UNL     1       8.957  27.266  38.581  1.00  0.00    -0.132 NA
HETATM    5  N11 UNL     1       9.792  26.497  39.426  1.00  0.00    -0.101 NA
ENDROOT
BRANCH   1   6
HETATM    6  C4  UNL     1      11.958  25.357  39.165  1.00  0.00     0.151 A 
HETATM    7  N5  UNL     1      13.072  26.158  39.102  1.00  0.00    -0.283 N 
HETATM    8  N4  UNL     1      14.059  25.497  39.692  1.00  0.00    -0.281 N 
ATOM      9  H5  UNL     1      13.129  27.085  38.681  1.00  0.00     0.188 HD
HETATM   10  C3  UNL     1      13.632  24.288  40.140  1.00  0.00     0.168 A 
ATOM     11  H4  UNL     1      15.011  25.850  39.795  1.00  0.00     0.188 HD
HETATM   12  N12 UNL     1      12.339  24.262  39.791  1.00  0.00    -0.323 N 
ATOM     13  H12 UNL     1      11.716  23.479  39.988  1.00  0.00     0.169 HD
BRANCH  10  14
HETATM   14  C2  UNL     1      14.463  23.300  40.844  1.00  0.00     0.168 A 
HETATM   15  N3  UNL     1      14.754  23.490  42.124  1.00  0.00    -0.281 N 
HETATM   16  N2  UNL     1      15.509  22.647  42.836  1.00  0.00    -0.281 N 
ATOM     17  H3  UNL     1      14.384  24.320  42.588  1.00  0.00     0.188 HD
HETATM   18  C1  UNL     1      16.003  21.548  42.236  1.00  0.00     0.158 A 
ATOM     19  H2  UNL     1      15.707  22.834  43.819  1.00  0.00     0.188 HD
HETATM   20  C12 UNL     1      15.718  21.326  40.923  1.00  0.00     0.146 A 
HETATM   21  N13 UNL     1      14.938  22.214  40.212  1.00  0.00    -0.322 N 
ATOM     22  H13 UNL     1      14.727  22.050  39.228  1.00  0.00     0.169 HD
BRANCH  18  23
HETATM   23  N1  UNL     1      16.763  20.727  42.925  1.00  0.00    -0.381 N 
ATOM     24  H12 UNL     1      17.311  21.048  43.723  1.00  0.00     0.157 HD
ATOM     25  H11 UNL     1      16.796  19.742  42.665  1.00  0.00     0.157 HD
ENDBRANCH  18  23
BRANCH  20  26
HETATM   26  N14 UNL     1      16.163  20.281  40.307  1.00  0.00    -0.382 N 
ATOM     27 2H14 UNL     1      15.584  19.441  40.310  1.00  0.00     0.157 HD
ATOM     28 1H14 UNL     1      17.065  20.288  39.832  1.00  0.00     0.157 HD
ENDBRANCH  20  26
ENDBRANCH  10  14
ENDBRANCH   1   6
BRANCH   1  29
HETATM   29  O1  UNL     1      10.006  24.665  37.992  1.00  0.00    -0.366 OA
ATOM     30  H1  UNL     1       9.069  24.805  37.923  1.00  0.00     0.212 HD
ENDBRANCH   1  29
BRANCH   3  31
HETATM   31  C8  UNL     1       9.117  28.057  36.254  1.00  0.00     0.161 A 
HETATM   32  N6  UNL     1       9.915  28.946  35.729  1.00  0.00    -0.280 N 
HETATM   33  N7  UNL     1       9.238  29.698  34.851  1.00  0.00    -0.281 N 
ATOM     34  H6  UNL     1      10.904  29.053  35.953  1.00  0.00     0.189 HD
HETATM   35  C9  UNL     1       7.987  29.263  34.832  1.00  0.00     0.154 A 
ATOM     36  H7  UNL     1       9.618  30.465  34.297  1.00  0.00     0.189 HD
HETATM   37  O4  UNL     1       7.929  28.256  35.702  1.00  0.00    -0.279 OA
BRANCH  35  38
HETATM   38  C10 UNL     1       6.808  29.717  34.058  1.00  0.00     0.230 C 
BRANCH  38  39
HETATM   39  S1  UNL     1       6.161  28.564  32.936  1.00  0.00     0.206 S 
HETATM   40  O2  UNL     1       4.714  28.224  33.231  1.00  0.00    -0.224 OA
HETATM   41  O3  UNL     1       6.909  27.245  33.116  1.00  0.00    -0.224 OA
BRANCH  39  42
HETATM   42  C11 UNL     1       6.368  29.101  31.276  1.00  0.00     0.497 C 
BRANCH  42  43
HETATM   43  N8  UNL     1       5.968  28.101  30.336  1.00  0.00    -0.037 N 
ATOM     44  H83 UNL     1       5.430  28.507  29.570  1.00  0.00     0.278 HD
ATOM     45  H82 UNL     1       6.765  27.752  29.804  1.00  0.00     0.278 HD
ATOM     46  H81 UNL     1       5.459  27.338  30.783  1.00  0.00     0.278 HD
ENDBRANCH  42  43
BRANCH  42  47
HETATM   47  N9  UNL     1       7.789  29.473  31.057  1.00  0.00    -0.037 N 
ATOM     48  H93 UNL     1       7.932  29.949  30.166  1.00  0.00     0.278 HD
ATOM     49  H92 UNL     1       8.090  30.228  31.673  1.00  0.00     0.278 HD
ATOM     50  H91 UNL     1       8.372  28.641  31.151  1.00  0.00     0.278 HD
ENDBRANCH  42  47
ENDBRANCH  39  42
ENDBRANCH  38  39
ENDBRANCH  35  38
ENDBRANCH   3  31
TORSDOF 11
ENDMDL
MODEL 4
REMARK VINA RESULT: -8.249277967      4.697     11.302
REMARK  11 active torsions:
REMARK  status: ('A' for Active; 'I' for Inactive)
REMARK    1  A    between atoms: N1_1  and  C1_4 
REMARK    2  A    between atoms: C2_9  and  C3_10 
REMARK    3  A    between atoms: C4_15  and  C5_16 
REMARK    4  A    between atoms: C5_16  and  O1_17 
REMARK    5  A    between atoms: C7_20  and  C8_21 
REMARK    6  A    between atoms: C9_26  and  C10_27 
REMARK    7  A    between atoms: C10_27  and  S1_28 
REMARK    8  A    between atoms: S1_28  and  C11_31 
REMARK    9  A    between atoms: C11_31  and  N8_32 
REMARK   10  A    between atoms: C11_31  and  N9_36 
REMARK   11  A    between atoms: C12_47  and  N14_48 
ROOT
HETATM    1  C5  UNL     1      11.934  25.830  39.846  1.00  0.00     0.206 C 
HETATM    2  C6  UNL     1      13.367  25.374  39.475  1.00  0.00     0.097 C 
HETATM    3  C7  UNL     1      13.824  25.161  40.928  1.00  0.00     0.176 C 
HETATM    4  N10 UNL     1      12.752  24.354  41.409  1.00  0.00    -0.132 NA
HETATM    5  N11 UNL     1      11.583  24.744  40.713  1.00  0.00    -0.101 NA
ENDROOT
BRANCH   1   6
HETATM    6  C4  UNL     1      11.125  26.007  38.650  1.00  0.00     0.151 A 
HETATM    7  N5  UNL     1      11.503  25.537  37.416  1.00  0.00    -0.283 N 
HETATM    8  N4  UNL     1      10.557  25.894  36.558  1.00  0.00    -0.281 N 
ATOM      9  H5  UNL     1      12.351  25.013  37.200  1.00  0.00     0.188 HD
HETATM   10  C3  UNL     1       9.569  26.584  37.187  1.00  0.00     0.168 A 
ATOM     11  H4  UNL     1      10.569  25.680  35.561  1.00  0.00     0.188 HD
HETATM   12  N12 UNL     1       9.972  26.617  38.463  1.00  0.00    -0.323 N 
ATOM     13  H12 UNL     1       9.444  27.067  39.211  1.00  0.00     0.169 HD
BRANCH  10  14
HETATM   14  C2  UNL     1       8.365  27.126  36.539  1.00  0.00     0.168 A 
HETATM   15  N3  UNL     1       7.406  26.294  36.152  1.00  0.00    -0.281 N 
HETATM   16  N2  UNL     1       6.284  26.702  35.549  1.00  0.00    -0.281 N 
ATOM     17  H3  UNL     1       7.531  25.296  36.323  1.00  0.00     0.188 HD
HETATM   18  C1  UNL     1       6.108  28.015  35.318  1.00  0.00     0.158 A 
ATOM     19  H2  UNL     1       5.574  26.027  35.268  1.00  0.00     0.188 HD
HETATM   20  C12 UNL     1       7.074  28.892  35.707  1.00  0.00     0.146 A 
HETATM   21  N13 UNL     1       8.224  28.444  36.326  1.00  0.00    -0.322 N 
ATOM     22  H13 UNL     1       8.950  29.099  36.615  1.00  0.00     0.169 HD
BRANCH  18  23
HETATM   23  N1  UNL     1       5.017  28.420  34.706  1.00  0.00    -0.381 N 
ATOM     24  H12 UNL     1       4.438  27.777  34.167  1.00  0.00     0.157 HD
ATOM     25  H11 UNL     1       4.734  29.396  34.785  1.00  0.00     0.157 HD
ENDBRANCH  18  23
BRANCH  20  26
HETATM   26  N14 UNL     1       6.946  30.163  35.515  1.00  0.00    -0.382 N 
ATOM     27 2H14 UNL     1       6.362  30.473  34.738  1.00  0.00     0.157 HD
ATOM     28 1H14 UNL     1       7.414  30.841  36.117  1.00  0.00     0.157 HD
ENDBRANCH  20  26
ENDBRANCH  10  14
ENDBRANCH   1   6
BRANCH   1  29
HETATM   29  O1  UNL     1      12.108  27.017  40.568  1.00  0.00    -0.366 OA
ATOM     30  H1  UNL     1      12.665  26.909  41.329  1.00  0.00     0.212 HD
ENDBRANCH   1  29
BRANCH   3  31
HETATM   31  C8  UNL     1      15.167  24.616  41.008  1.00  0.00     0.161 A 
HETATM   32  N6  UNL     1      16.222  25.035  41.652  1.00  0.00    -0.280 N 
HETATM   33  N7  UNL     1      17.246  24.199  41.435  1.00  0.00    -0.281 N 
ATOM     34  H6  UNL     1      16.261  25.872  42.233  1.00  0.00     0.189 HD
HETATM   35  C9  UNL     1      16.814  23.237  40.634  1.00  0.00     0.154 A 
ATOM     36  H7  UNL     1      18.187  24.288  41.817  1.00  0.00     0.189 HD
HETATM   37  O4  UNL     1      15.535  23.509  40.380  1.00  0.00    -0.279 OA
BRANCH  35  38
HETATM   38  C10 UNL     1      17.506  22.056  40.066  1.00  0.00     0.230 C 
BRANCH  38  39
HETATM   39  S1  UNL     1      17.185  20.547  40.859  1.00  0.00     0.206 S 
HETATM   40  O2  UNL     1      18.278  19.527  40.616  1.00  0.00    -0.224 OA
HETATM   41  O3  UNL     1      15.937  19.930  40.232  1.00  0.00    -0.224 OA
BRANCH  39  42
HETATM   42  C11 UNL     1      16.891  20.777  42.576  1.00  0.00     0.497 C 
BRANCH  42  43
HETATM   43  N8  UNL     1      17.000  19.553  43.306  1.00  0.00    -0.037 N 
ATOM     44  H83 UNL     1      16.091  19.101  43.409  1.00  0.00     0.278 HD
ATOM     45  H82 UNL     1      17.475  18.836  42.758  1.00  0.00     0.278 HD
ATOM     46  H81 UNL     1      17.452  19.687  44.211  1.00  0.00     0.278 HD
ENDBRANCH  42  43
BRANCH  42  47
HETATM   47  N9  UNL     1      15.544  21.371  42.766  1.00  0.00    -0.037 N 
ATOM     48  H93 UNL     1      14.861  21.002  42.103  1.00  0.00     0.278 HD
ATOM     49  H92 UNL     1      15.097  21.051  43.625  1.00  0.00     0.278 HD
ATOM     50  H91 UNL     1      15.616  22.387  42.722  1.00  0.00     0.278 HD
ENDBRANCH  42  47
ENDBRANCH  39  42
ENDBRANCH  38  39
ENDBRANCH  35  38
ENDBRANCH   3  31
TORSDOF 11
ENDMDL
MODEL 5
REMARK VINA RESULT: -8.243322139      1.717      1.994
REMARK  11 active torsions:
REMARK  status: ('A' for Active; 'I' for Inactive)
REMARK    1  A    between atoms: N1_1  and  C1_4 
REMARK    2  A    between atoms: C2_9  and  C3_10 
REMARK    3  A    between atoms: C4_15  and  C5_16 
REMARK    4  A    between atoms: C5_16  and  O1_17 
REMARK    5  A    between atoms: C7_20  and  C8_21 
REMARK    6  A    between atoms: C9_26  and  C10_27 
REMARK    7  A    between atoms: C10_27  and  S1_28 
REMARK    8  A    between atoms: S1_28  and  C11_31 
REMARK    9  A    between atoms: C11_31  and  N8_32 
REMARK   10  A    between atoms: C11_31  and  N9_36 
REMARK   11  A    between atoms: C12_47  and  N14_48 
ROOT
HETATM    1  C5  UNL     1      10.738  25.488  37.627  1.00  0.00     0.206 C 
HETATM    2  C6  UNL     1      10.007  26.851  37.723  1.00  0.00     0.097 C 
HETATM    3  C7  UNL     1       9.300  26.723  36.363  1.00  0.00     0.176 C 
HETATM    4  N10 UNL     1       8.734  25.422  36.498  1.00  0.00    -0.132 NA
HETATM    5  N11 UNL     1       9.609  24.663  37.312  1.00  0.00    -0.101 NA
ENDROOT
BRANCH   1   6
HETATM    6  C4  UNL     1      11.444  25.195  38.864  1.00  0.00     0.151 A 
HETATM    7  N5  UNL     1      11.154  25.814  40.055  1.00  0.00    -0.283 N 
HETATM    8  N4  UNL     1      11.998  25.334  40.958  1.00  0.00    -0.281 N 
ATOM      9  H5  UNL     1      10.426  26.511  40.215  1.00  0.00     0.188 HD
HETATM   10  C3  UNL     1      12.835  24.421  40.401  1.00  0.00     0.168 A 
ATOM     11  H4  UNL     1      12.017  25.614  41.939  1.00  0.00     0.188 HD
HETATM   12  N12 UNL     1      12.445  24.377  39.120  1.00  0.00    -0.323 N 
ATOM     13  H12 UNL     1      12.876  23.776  38.419  1.00  0.00     0.169 HD
BRANCH  10  14
HETATM   14  C2  UNL     1      13.893  23.689  41.115  1.00  0.00     0.168 A 
HETATM   15  N3  UNL     1      13.949  23.759  42.439  1.00  0.00    -0.281 N 
HETATM   16  N2  UNL     1      14.881  23.133  43.164  1.00  0.00    -0.281 N 
ATOM     17  H3  UNL     1      13.248  24.317  42.926  1.00  0.00     0.188 HD
HETATM   18  C1  UNL     1      15.812  22.393  42.534  1.00  0.00     0.158 A 
ATOM     19  H2  UNL     1      14.887  23.214  44.181  1.00  0.00     0.188 HD
HETATM   20  C12 UNL     1      15.777  22.302  41.176  1.00  0.00     0.146 A 
HETATM   21  N13 UNL     1      14.804  22.961  40.451  1.00  0.00    -0.322 N 
ATOM     22  H13 UNL     1      14.779  22.895  39.433  1.00  0.00     0.169 HD
BRANCH  18  23
HETATM   23  N1  UNL     1      16.743  21.793  43.240  1.00  0.00    -0.381 N 
ATOM     24  H12 UNL     1      17.425  22.322  43.784  1.00  0.00     0.157 HD
ATOM     25  H11 UNL     1      16.778  20.774  43.257  1.00  0.00     0.157 HD
ENDBRANCH  18  23
BRANCH  20  26
HETATM   26  N14 UNL     1      16.643  21.597  40.526  1.00  0.00    -0.382 N 
ATOM     27 2H14 UNL     1      17.485  21.300  41.020  1.00  0.00     0.157 HD
ATOM     28 1H14 UNL     1      16.497  21.344  39.549  1.00  0.00     0.157 HD
ENDBRANCH  20  26
ENDBRANCH  10  14
ENDBRANCH   1   6
BRANCH   1  29
HETATM   29  O1  UNL     1      11.594  25.614  36.526  1.00  0.00    -0.366 OA
ATOM     30  H1  UNL     1      11.451  26.414  36.036  1.00  0.00     0.212 HD
ENDBRANCH   1  29
BRANCH   3  31
HETATM   31  C8  UNL     1       8.394  27.830  36.109  1.00  0.00     0.161 A 
HETATM   32  N6  UNL     1       7.297  28.192  36.715  1.00  0.00    -0.280 N 
HETATM   33  N7  UNL     1       6.799  29.289  36.130  1.00  0.00    -0.281 N 
ATOM     34  H6  UNL     1       6.881  27.712  37.512  1.00  0.00     0.189 HD
HETATM   35  C9  UNL     1       7.609  29.615  35.134  1.00  0.00     0.154 A 
ATOM     36  H7  UNL     1       5.950  29.783  36.402  1.00  0.00     0.189 HD
HETATM   37  O4  UNL     1       8.584  28.707  35.135  1.00  0.00    -0.279 OA
BRANCH  35  38
HETATM   38  C10 UNL     1       7.554  30.725  34.155  1.00  0.00     0.230 C 
BRANCH  38  39
HETATM   39  S1  UNL     1       7.608  30.254  32.486  1.00  0.00     0.206 S 
HETATM   40  O2  UNL     1       6.610  31.019  31.641  1.00  0.00    -0.224 OA
HETATM   41  O3  UNL     1       7.162  28.798  32.383  1.00  0.00    -0.224 OA
BRANCH  39  42
HETATM   42  C11 UNL     1       9.235  30.387  31.836  1.00  0.00     0.497 C 
BRANCH  42  43
HETATM   43  N8  UNL     1       9.295  29.999  30.462  1.00  0.00    -0.037 N 
ATOM     44  H83 UNL     1       8.366  29.801  30.092  1.00  0.00     0.278 HD
ATOM     45  H82 UNL     1       9.541  30.788  29.864  1.00  0.00     0.278 HD
ATOM     46  H81 UNL     1       9.928  29.212  30.314  1.00  0.00     0.278 HD
ENDBRANCH  42  43
BRANCH  42  47
HETATM   47  N9  UNL     1      10.155  29.552  32.648  1.00  0.00    -0.037 N 
ATOM     48  H93 UNL     1      11.132  29.819  32.524  1.00  0.00     0.278 HD
ATOM     49  H92 UNL     1      10.078  29.748  33.645  1.00  0.00     0.278 HD
ATOM     50  H91 UNL     1       9.992  28.568  32.433  1.00  0.00     0.278 HD
ENDBRANCH  42  47
ENDBRANCH  39  42
ENDBRANCH  38  39
ENDBRANCH  35  38
ENDBRANCH   3  31
TORSDOF 11
ENDMDL
