MODEL 1
REMARK VINA RESULT: -7.807457815      0.000      0.000
REMARK  13 active torsions:
REMARK  status: ('A' for Active; 'I' for Inactive)
REMARK    1  A    between atoms: N2_6  and  O1_8 
REMARK    2  A    between atoms: C5_17  and  C6_18 
REMARK    3  A    between atoms: C7_21  and  C8_22 
REMARK    4  A    between atoms: C8_22  and  O5_24 
REMARK    5  A    between atoms: O5_24  and  C9_25 
REMARK    6  A    between atoms: C9_25  and  C10_26 
REMARK    7  A    between atoms: C9_25  and  C17_39 
REMARK    8  A    between atoms: C10_26  and  C11_27 
REMARK    9  A    between atoms: C13_29  and  O6_30 
REMARK   10  A    between atoms: C14_32  and  O7_33 
REMARK   11  A    between atoms: C15_35  and  O8_36 
REMARK   12  A    between atoms: C17_39  and  O9_40 
REMARK   13  A    between atoms: C17_39  and  O10_42 
ROOT
HETATM    1  C8  UNL     1       8.188  29.475  33.717  1.00  0.00     0.297 C 
HETATM    2  O4  UNL     1       9.391  29.435  34.010  1.00  0.00    -0.259 OA
ENDROOT
BRANCH   1   3
HETATM    3  C7  UNL     1       7.557  30.412  32.839  1.00  0.00     0.084 C 
HETATM    4  C1  UNL     1       6.672  29.798  31.797  1.00  0.00     0.071 C 
HETATM    5  N1  UNL     1       5.965  28.824  32.096  1.00  0.00    -0.397 N 
HETATM    6  C2  UNL     1       6.531  30.239  30.393  1.00  0.00     0.106 C 
ATOM      7  H12 UNL     1       5.362  28.407  31.387  1.00  0.00     0.156 HD
ATOM      8  H11 UNL     1       6.061  28.519  33.064  1.00  0.00     0.156 HD
HETATM    9  N2  UNL     1       6.230  29.325  29.505  1.00  0.00    -0.268 N 
HETATM   10  C3  UNL     1       6.695  31.616  29.890  1.00  0.00     0.349 C 
ATOM     11  H2  UNL     1       6.125  29.586  28.524  1.00  0.00     0.194 HD
HETATM   12  N3  UNL     1       5.622  32.446  30.445  1.00  0.00    -0.106 NA
HETATM   13  N5  UNL     1       7.886  32.182  30.498  1.00  0.00    -0.027 N 
HETATM   14  N4  UNL     1       6.070  32.818  31.713  1.00  0.00    -0.107 NA
HETATM   15  C4  UNL     1       7.475  32.698  31.797  1.00  0.00     0.337 C 
HETATM   16  C5  UNL     1       7.907  31.669  32.860  1.00  0.00     0.084 C 
ATOM     17  H52 UNL     1       8.665  31.525  30.550  1.00  0.00     0.282 HD
ATOM     18  H51 UNL     1       8.347  32.877  29.912  1.00  0.00     0.282 HD
BRANCH   9  19
HETATM   19  O1  UNL     1       6.058  28.034  29.883  1.00  0.00    -0.290 OA
ATOM     20  H1  UNL     1       6.162  27.332  29.252  1.00  0.00     0.244 HD
ENDBRANCH   9  19
BRANCH  16  21
HETATM   21  C6  UNL     1       8.550  32.286  33.952  1.00  0.00     0.209 C 
HETATM   22  O2  UNL     1       7.835  32.497  35.030  1.00  0.00    -0.644 OA
HETATM   23  O3  UNL     1       9.842  32.705  34.084  1.00  0.00    -0.644 OA
ENDBRANCH  16  21
ENDBRANCH   1   3
BRANCH   1  24
HETATM   24  O5  UNL     1       7.452  28.465  34.356  1.00  0.00    -0.307 OA
BRANCH  24  25
HETATM   25  C9  UNL     1       7.282  28.440  35.785  1.00  0.00     0.191 C 
BRANCH  25  26
HETATM   26  C10 UNL     1       7.499  27.041  36.245  1.00  0.00     0.076 C 
BRANCH  26  27
HETATM   27  C11 UNL     1       8.713  26.776  37.007  1.00  0.00    -0.050 A 
HETATM   28  C12 UNL     1       9.814  26.099  36.508  1.00  0.00     0.046 A 
HETATM   29  C13 UNL     1      10.950  25.848  37.267  1.00  0.00     0.102 A 
HETATM   30  C14 UNL     1      11.025  26.275  38.577  1.00  0.00     0.132 A 
HETATM   31  C15 UNL     1       9.932  26.953  39.088  1.00  0.00     0.102 A 
HETATM   32  C16 UNL     1       8.814  27.192  38.318  1.00  0.00     0.046 A 
BRANCH  29  33
HETATM   33  O6  UNL     1      12.022  25.153  36.681  1.00  0.00    -0.358 OA
ATOM     34  H6  UNL     1      12.535  25.583  36.007  1.00  0.00     0.217 HD
ENDBRANCH  29  33
BRANCH  30  35
HETATM   35  O7  UNL     1      12.118  26.058  39.373  1.00  0.00    -0.356 OA
ATOM     36  H7  UNL     1      12.193  26.403  40.256  1.00  0.00     0.218 HD
ENDBRANCH  30  35
BRANCH  31  37
HETATM   37  O8  UNL     1      10.003  27.389  40.421  1.00  0.00    -0.358 OA
ATOM     38  H8  UNL     1       9.672  26.805  41.093  1.00  0.00     0.217 HD
ENDBRANCH  31  37
ENDBRANCH  26  27
ENDBRANCH  25  26
BRANCH  25  39
HETATM   39  C17 UNL     1       5.874  28.961  36.015  1.00  0.00     0.283 C 
BRANCH  39  40
HETATM   40  O9  UNL     1       5.709  30.268  35.605  1.00  0.00    -0.369 OA
ATOM     41  H9  UNL     1       6.178  30.888  36.150  1.00  0.00     0.212 HD
ENDBRANCH  39  40
BRANCH  39  42
HETATM   42  O10 UNL     1       4.925  28.074  35.527  1.00  0.00    -0.369 OA
ATOM     43  H10 UNL     1       4.044  28.363  35.734  1.00  0.00     0.212 HD
ENDBRANCH  39  42
ENDBRANCH  25  39
ENDBRANCH  24  25
ENDBRANCH   1  24
TORSDOF 13
ENDMDL
MODEL 2
REMARK VINA RESULT: -7.597934200      1.920      4.196
REMARK  13 active torsions:
REMARK  status: ('A' for Active; 'I' for Inactive)
REMARK    1  A    between atoms: N2_6  and  O1_8 
REMARK    2  A    between atoms: C5_17  and  C6_18 
REMARK    3  A    between atoms: C7_21  and  C8_22 
REMARK    4  A    between atoms: C8_22  and  O5_24 
REMARK    5  A    between atoms: O5_24  and  C9_25 
REMARK    6  A    between atoms: C9_25  and  C10_26 
REMARK    7  A    between atoms: C9_25  and  C17_39 
REMARK    8  A    between atoms: C10_26  and  C11_27 
REMARK    9  A    between atoms: C13_29  and  O6_30 
REMARK   10  A    between atoms: C14_32  and  O7_33 
REMARK   11  A    between atoms: C15_35  and  O8_36 
REMARK   12  A    between atoms: C17_39  and  O9_40 
REMARK   13  A    between atoms: C17_39  and  O10_42 
ROOT
HETATM    1  C8  UNL     1       7.157  28.309  35.447  1.00  0.00     0.297 C 
HETATM    2  O4  UNL     1       6.749  28.761  36.526  1.00  0.00    -0.259 OA
ENDROOT
BRANCH   1   3
HETATM    3  C7  UNL     1       7.390  29.052  34.247  1.00  0.00     0.084 C 
HETATM    4  C1  UNL     1       8.481  30.075  34.343  1.00  0.00     0.071 C 
HETATM    5  N1  UNL     1       9.508  29.810  34.985  1.00  0.00    -0.397 N 
HETATM    6  C2  UNL     1       8.480  31.420  33.730  1.00  0.00     0.106 C 
ATOM      7  H12 UNL     1      10.251  30.506  35.051  1.00  0.00     0.156 HD
ATOM      8  H11 UNL     1       9.509  28.883  35.408  1.00  0.00     0.156 HD
HETATM    9  N2  UNL     1       9.151  32.360  34.347  1.00  0.00    -0.268 N 
HETATM   10  C3  UNL     1       7.796  31.811  32.483  1.00  0.00     0.349 C 
ATOM     11  H2  UNL     1       9.177  33.303  33.960  1.00  0.00     0.194 HD
HETATM   12  N3  UNL     1       8.429  31.107  31.364  1.00  0.00    -0.106 NA
HETATM   13  N5  UNL     1       6.460  31.247  32.504  1.00  0.00    -0.027 N 
HETATM   14  N4  UNL     1       7.827  29.848  31.341  1.00  0.00    -0.107 NA
HETATM   15  C4  UNL     1       6.585  29.880  32.014  1.00  0.00     0.337 C 
HETATM   16  C5  UNL     1       6.566  28.946  33.240  1.00  0.00     0.084 C 
ATOM     17  H52 UNL     1       6.007  31.310  33.415  1.00  0.00     0.282 HD
ATOM     18  H51 UNL     1       5.778  31.802  31.986  1.00  0.00     0.282 HD
BRANCH   9  19
HETATM   19  O1  UNL     1       9.813  32.085  35.500  1.00  0.00    -0.290 OA
ATOM     20  H1  UNL     1      10.418  32.717  35.868  1.00  0.00     0.244 HD
ENDBRANCH   9  19
BRANCH  16  21
HETATM   21  C6  UNL     1       5.694  27.856  33.051  1.00  0.00     0.209 C 
HETATM   22  O2  UNL     1       5.896  27.100  32.000  1.00  0.00    -0.644 OA
HETATM   23  O3  UNL     1       4.643  27.433  33.813  1.00  0.00    -0.644 OA
ENDBRANCH  16  21
ENDBRANCH   1   3
BRANCH   1  24
HETATM   24  O5  UNL     1       7.386  26.925  35.504  1.00  0.00    -0.307 OA
BRANCH  24  25
HETATM   25  C9  UNL     1       8.157  26.328  36.562  1.00  0.00     0.191 C 
BRANCH  25  26
HETATM   26  C10 UNL     1       9.104  27.357  37.073  1.00  0.00     0.076 C 
BRANCH  26  27
HETATM   27  C11 UNL     1       9.947  26.978  38.200  1.00  0.00    -0.050 A 
HETATM   28  C12 UNL     1       9.571  27.098  39.529  1.00  0.00     0.046 A 
HETATM   29  C13 UNL     1      10.405  26.743  40.582  1.00  0.00     0.102 A 
HETATM   30  C14 UNL     1      11.669  26.247  40.335  1.00  0.00     0.132 A 
HETATM   31  C15 UNL     1      12.057  26.122  39.014  1.00  0.00     0.102 A 
HETATM   32  C16 UNL     1      11.213  26.480  37.983  1.00  0.00     0.046 A 
BRANCH  29  33
HETATM   33  O6  UNL     1       9.943  26.897  41.899  1.00  0.00    -0.358 OA
ATOM     34  H6  UNL     1       9.966  26.150  42.486  1.00  0.00     0.217 HD
ENDBRANCH  29  33
BRANCH  30  35
HETATM   35  O7  UNL     1      12.535  25.880  41.331  1.00  0.00    -0.356 OA
ATOM     36  H7  UNL     1      12.498  25.036  41.766  1.00  0.00     0.218 HD
ENDBRANCH  30  35
BRANCH  31  37
HETATM   37  O8  UNL     1      13.343  25.618  38.758  1.00  0.00    -0.358 OA
ATOM     38  H8  UNL     1      13.414  24.874  38.172  1.00  0.00     0.217 HD
ENDBRANCH  31  37
ENDBRANCH  26  27
ENDBRANCH  25  26
BRANCH  25  39
HETATM   39  C17 UNL     1       8.829  25.127  35.919  1.00  0.00     0.283 C 
BRANCH  39  40
HETATM   40  O9  UNL     1      10.001  25.451  35.268  1.00  0.00    -0.369 OA
ATOM     41  H9  UNL     1      10.604  25.942  35.813  1.00  0.00     0.212 HD
ENDBRANCH  39  40
BRANCH  39  42
HETATM   42  O10 UNL     1       8.932  24.071  36.814  1.00  0.00    -0.369 OA
ATOM     43  H10 UNL     1       9.840  23.843  36.973  1.00  0.00     0.212 HD
ENDBRANCH  39  42
ENDBRANCH  25  39
ENDBRANCH  24  25
ENDBRANCH   1  24
TORSDOF 13
ENDMDL
MODEL 3
REMARK VINA RESULT: -7.594825501      1.918      3.953
REMARK  13 active torsions:
REMARK  status: ('A' for Active; 'I' for Inactive)
REMARK    1  A    between atoms: N2_6  and  O1_8 
REMARK    2  A    between atoms: C5_17  and  C6_18 
REMARK    3  A    between atoms: C7_21  and  C8_22 
REMARK    4  A    between atoms: C8_22  and  O5_24 
REMARK    5  A    between atoms: O5_24  and  C9_25 
REMARK    6  A    between atoms: C9_25  and  C10_26 
REMARK    7  A    between atoms: C9_25  and  C17_39 
REMARK    8  A    between atoms: C10_26  and  C11_27 
REMARK    9  A    between atoms: C13_29  and  O6_30 
REMARK   10  A    between atoms: C14_32  and  O7_33 
REMARK   11  A    between atoms: C15_35  and  O8_36 
REMARK   12  A    between atoms: C17_39  and  O9_40 
REMARK   13  A    between atoms: C17_39  and  O10_42 
ROOT
HETATM    1  C8  UNL     1       7.147  28.318  35.445  1.00  0.00     0.297 C 
HETATM    2  O4  UNL     1       6.734  28.774  36.520  1.00  0.00    -0.259 OA
ENDROOT
BRANCH   1   3
HETATM    3  C7  UNL     1       7.385  29.058  34.243  1.00  0.00     0.084 C 
HETATM    4  C1  UNL     1       8.480  30.077  34.339  1.00  0.00     0.071 C 
HETATM    5  N1  UNL     1       9.504  29.810  34.984  1.00  0.00    -0.397 N 
HETATM    6  C2  UNL     1       8.485  31.421  33.723  1.00  0.00     0.106 C 
ATOM      7  H12 UNL     1      10.249  30.504  35.049  1.00  0.00     0.156 HD
ATOM      8  H11 UNL     1       9.501  28.884  35.409  1.00  0.00     0.156 HD
HETATM    9  N2  UNL     1       9.158  32.359  34.339  1.00  0.00    -0.268 N 
HETATM   10  C3  UNL     1       7.805  31.811  32.473  1.00  0.00     0.349 C 
ATOM     11  H2  UNL     1       9.188  33.302  33.949  1.00  0.00     0.194 HD
HETATM   12  N3  UNL     1       8.437  31.102  31.358  1.00  0.00    -0.106 NA
HETATM   13  N5  UNL     1       6.466  31.252  32.492  1.00  0.00    -0.027 N 
HETATM   14  N4  UNL     1       7.831  29.845  31.336  1.00  0.00    -0.107 NA
HETATM   15  C4  UNL     1       6.588  29.883  32.006  1.00  0.00     0.337 C 
HETATM   16  C5  UNL     1       6.563  28.953  33.235  1.00  0.00     0.084 C 
ATOM     17  H52 UNL     1       6.012  31.319  33.403  1.00  0.00     0.282 HD
ATOM     18  H51 UNL     1       5.788  31.808  31.972  1.00  0.00     0.282 HD
BRANCH   9  19
HETATM   19  O1  UNL     1       9.816  32.085  35.493  1.00  0.00    -0.290 OA
ATOM     20  H1  UNL     1      10.158  32.790  36.030  1.00  0.00     0.244 HD
ENDBRANCH   9  19
BRANCH  16  21
HETATM   21  C6  UNL     1       5.687  27.865  33.047  1.00  0.00     0.209 C 
HETATM   22  O2  UNL     1       5.880  27.114  31.990  1.00  0.00    -0.644 OA
HETATM   23  O3  UNL     1       4.641  27.440  33.814  1.00  0.00    -0.644 OA
ENDBRANCH  16  21
ENDBRANCH   1   3
BRANCH   1  24
HETATM   24  O5  UNL     1       7.376  26.936  35.507  1.00  0.00    -0.307 OA
BRANCH  24  25
HETATM   25  C9  UNL     1       8.156  26.344  36.562  1.00  0.00     0.191 C 
BRANCH  25  26
HETATM   26  C10 UNL     1       9.091  27.383  37.075  1.00  0.00     0.076 C 
BRANCH  26  27
HETATM   27  C11 UNL     1       9.955  27.005  38.187  1.00  0.00    -0.050 A 
HETATM   28  C12 UNL     1      11.235  26.496  38.039  1.00  0.00     0.046 A 
HETATM   29  C13 UNL     1      12.028  26.128  39.121  1.00  0.00     0.102 A 
HETATM   30  C14 UNL     1      11.555  26.260  40.410  1.00  0.00     0.132 A 
HETATM   31  C15 UNL     1      10.277  26.766  40.571  1.00  0.00     0.102 A 
HETATM   32  C16 UNL     1       9.508  27.125  39.485  1.00  0.00     0.046 A 
BRANCH  29  33
HETATM   33  O6  UNL     1      13.316  25.622  38.880  1.00  0.00    -0.358 OA
ATOM     34  H6  UNL     1      14.008  26.223  38.631  1.00  0.00     0.217 HD
ENDBRANCH  29  33
BRANCH  30  35
HETATM   35  O7  UNL     1      12.289  25.915  41.514  1.00  0.00    -0.356 OA
ATOM     36  H7  UNL     1      12.732  26.552  42.062  1.00  0.00     0.218 HD
ENDBRANCH  30  35
BRANCH  31  37
HETATM   37  O8  UNL     1       9.792  26.901  41.882  1.00  0.00    -0.358 OA
ATOM     38  H8  UNL     1       9.799  27.770  42.266  1.00  0.00     0.217 HD
ENDBRANCH  31  37
ENDBRANCH  26  27
ENDBRANCH  25  26
BRANCH  25  39
HETATM   39  C17 UNL     1       8.843  25.154  35.913  1.00  0.00     0.283 C 
BRANCH  39  40
HETATM   40  O9  UNL     1       9.999  25.499  35.245  1.00  0.00    -0.369 OA
ATOM     41  H9  UNL     1      10.774  25.087  35.607  1.00  0.00     0.212 HD
ENDBRANCH  39  40
BRANCH  39  42
HETATM   42  O10 UNL     1       8.979  24.103  36.808  1.00  0.00    -0.369 OA
ATOM     43  H10 UNL     1       8.927  23.265  36.365  1.00  0.00     0.212 HD
ENDBRANCH  39  42
ENDBRANCH  25  39
ENDBRANCH  24  25
ENDBRANCH   1  24
TORSDOF 13
ENDMDL
MODEL 4
REMARK VINA RESULT: -7.560836168      2.590      5.038
REMARK  13 active torsions:
REMARK  status: ('A' for Active; 'I' for Inactive)
REMARK    1  A    between atoms: N2_6  and  O1_8 
REMARK    2  A    between atoms: C5_17  and  C6_18 
REMARK    3  A    between atoms: C7_21  and  C8_22 
REMARK    4  A    between atoms: C8_22  and  O5_24 
REMARK    5  A    between atoms: O5_24  and  C9_25 
REMARK    6  A    between atoms: C9_25  and  C10_26 
REMARK    7  A    between atoms: C9_25  and  C17_39 
REMARK    8  A    between atoms: C10_26  and  C11_27 
REMARK    9  A    between atoms: C13_29  and  O6_30 
REMARK   10  A    between atoms: C14_32  and  O7_33 
REMARK   11  A    between atoms: C15_35  and  O8_36 
REMARK   12  A    between atoms: C17_39  and  O9_40 
REMARK   13  A    between atoms: C17_39  and  O10_42 
ROOT
HETATM    1  C8  UNL     1       8.555  27.931  36.674  1.00  0.00     0.297 C 
HETATM    2  O4  UNL     1       7.994  27.762  37.765  1.00  0.00    -0.259 OA
ENDROOT
BRANCH   1   3
HETATM    3  C7  UNL     1       7.986  28.538  35.509  1.00  0.00     0.084 C 
HETATM    4  C1  UNL     1       8.676  29.787  35.051  1.00  0.00     0.071 C 
HETATM    5  N1  UNL     1       9.912  29.855  35.108  1.00  0.00    -0.397 N 
HETATM    6  C2  UNL     1       8.027  31.000  34.510  1.00  0.00     0.106 C 
ATOM      7  H12 UNL     1      10.382  30.705  34.796  1.00  0.00     0.156 HD
ATOM      8  H11 UNL     1      10.360  29.018  35.481  1.00  0.00     0.156 HD
HETATM    9  N2  UNL     1       8.632  32.144  34.713  1.00  0.00    -0.268 N 
HETATM   10  C3  UNL     1       6.760  31.051  33.758  1.00  0.00     0.349 C 
ATOM     11  H2  UNL     1       8.219  33.006  34.357  1.00  0.00     0.194 HD
HETATM   12  N3  UNL     1       6.951  30.366  32.477  1.00  0.00    -0.106 NA
HETATM   13  N5  UNL     1       5.796  30.203  34.436  1.00  0.00    -0.027 N 
HETATM   14  N4  UNL     1       6.769  29.011  32.759  1.00  0.00    -0.107 NA
HETATM   15  C4  UNL     1       6.035  28.848  33.955  1.00  0.00     0.337 C 
HETATM   16  C5  UNL     1       6.847  28.110  35.038  1.00  0.00     0.084 C 
ATOM     17  H52 UNL     1       5.829  30.284  35.452  1.00  0.00     0.282 HD
ATOM     18  H51 UNL     1       4.831  30.512  34.316  1.00  0.00     0.282 HD
BRANCH   9  19
HETATM   19  O1  UNL     1       9.805  32.187  35.393  1.00  0.00    -0.290 OA
ATOM     20  H1  UNL     1      10.036  32.954  35.903  1.00  0.00     0.244 HD
ENDBRANCH   9  19
BRANCH  16  21
HETATM   21  C6  UNL     1       6.315  26.834  35.308  1.00  0.00     0.209 C 
HETATM   22  O2  UNL     1       5.034  26.659  35.094  1.00  0.00    -0.644 OA
HETATM   23  O3  UNL     1       6.934  25.705  35.760  1.00  0.00    -0.644 OA
ENDBRANCH  16  21
ENDBRANCH   1   3
BRANCH   1  24
HETATM   24  O5  UNL     1       9.873  27.450  36.674  1.00  0.00    -0.307 OA
BRANCH  24  25
HETATM   25  C9  UNL     1      10.266  26.318  37.471  1.00  0.00     0.191 C 
BRANCH  25  26
HETATM   26  C10 UNL     1      11.647  26.570  37.970  1.00  0.00     0.076 C 
BRANCH  26  27
HETATM   27  C11 UNL     1      12.045  25.877  39.189  1.00  0.00    -0.050 A 
HETATM   28  C12 UNL     1      11.183  25.577  40.231  1.00  0.00     0.046 A 
HETATM   29  C13 UNL     1      11.598  24.930  41.389  1.00  0.00     0.102 A 
HETATM   30  C14 UNL     1      12.917  24.555  41.545  1.00  0.00     0.132 A 
HETATM   31  C15 UNL     1      13.789  24.849  40.513  1.00  0.00     0.102 A 
HETATM   32  C16 UNL     1      13.356  25.491  39.372  1.00  0.00     0.046 A 
BRANCH  29  33
HETATM   33  O6  UNL     1      10.656  24.665  42.397  1.00  0.00    -0.358 OA
ATOM     34  H6  UNL     1      10.867  24.027  43.069  1.00  0.00     0.217 HD
ENDBRANCH  29  33
BRANCH  30  35
HETATM   35  O7  UNL     1      13.385  23.915  42.663  1.00  0.00    -0.356 OA
ATOM     36  H7  UNL     1      13.535  22.978  42.698  1.00  0.00     0.218 HD
ENDBRANCH  30  35
BRANCH  31  37
HETATM   37  O8  UNL     1      15.132  24.470  40.667  1.00  0.00    -0.358 OA
ATOM     38  H8  UNL     1      15.400  23.639  40.292  1.00  0.00     0.217 HD
ENDBRANCH  31  37
ENDBRANCH  26  27
ENDBRANCH  25  26
BRANCH  25  39
HETATM   39  C17 UNL     1      10.149  25.128  36.535  1.00  0.00     0.283 C 
BRANCH  39  40
HETATM   40  O9  UNL     1       9.229  24.194  36.963  1.00  0.00    -0.369 OA
ATOM     41  H9  UNL     1       8.775  23.765  36.248  1.00  0.00     0.212 HD
ENDBRANCH  39  40
BRANCH  39  42
HETATM   42  O10 UNL     1       9.994  25.538  35.218  1.00  0.00    -0.369 OA
ATOM     43  H10 UNL     1       9.077  25.555  34.970  1.00  0.00     0.212 HD
ENDBRANCH  39  42
ENDBRANCH  25  39
ENDBRANCH  24  25
ENDBRANCH   1  24
TORSDOF 13
ENDMDL
MODEL 5
REMARK VINA RESULT: -7.500429277      2.584      4.895
REMARK  13 active torsions:
REMARK  status: ('A' for Active; 'I' for Inactive)
REMARK    1  A    between atoms: N2_6  and  O1_8 
REMARK    2  A    between atoms: C5_17  and  C6_18 
REMARK    3  A    between atoms: C7_21  and  C8_22 
REMARK    4  A    between atoms: C8_22  and  O5_24 
REMARK    5  A    between atoms: O5_24  and  C9_25 
REMARK    6  A    between atoms: C9_25  and  C10_26 
REMARK    7  A    between atoms: C9_25  and  C17_39 
REMARK    8  A    between atoms: C10_26  and  C11_27 
REMARK    9  A    between atoms: C13_29  and  O6_30 
REMARK   10  A    between atoms: C14_32  and  O7_33 
REMARK   11  A    between atoms: C15_35  and  O8_36 
REMARK   12  A    between atoms: C17_39  and  O9_40 
REMARK   13  A    between atoms: C17_39  and  O10_42 
ROOT
HETATM    1  C8  UNL     1       8.575  27.920  36.674  1.00  0.00     0.297 C 
HETATM    2  O4  UNL     1       8.019  27.731  37.765  1.00  0.00    -0.259 OA
ENDROOT
BRANCH   1   3
HETATM    3  C7  UNL     1       7.994  28.533  35.518  1.00  0.00     0.084 C 
HETATM    4  C1  UNL     1       8.676  29.787  35.063  1.00  0.00     0.071 C 
HETATM    5  N1  UNL     1       9.913  29.858  35.109  1.00  0.00    -0.397 N 
HETATM    6  C2  UNL     1       8.019  31.001  34.535  1.00  0.00     0.106 C 
ATOM      7  H12 UNL     1      10.377  30.712  34.799  1.00  0.00     0.156 HD
ATOM      8  H11 UNL     1      10.366  29.020  35.474  1.00  0.00     0.156 HD
HETATM    9  N2  UNL     1       8.623  32.145  34.740  1.00  0.00    -0.268 N 
HETATM   10  C3  UNL     1       6.746  31.053  33.793  1.00  0.00     0.349 C 
ATOM     11  H2  UNL     1       8.204  33.009  34.393  1.00  0.00     0.194 HD
HETATM   12  N3  UNL     1       6.928  30.377  32.506  1.00  0.00    -0.106 NA
HETATM   13  N5  UNL     1       5.790  30.198  34.473  1.00  0.00    -0.027 N 
HETATM   14  N4  UNL     1       6.753  29.020  32.782  1.00  0.00    -0.107 NA
HETATM   15  C4  UNL     1       6.029  28.847  33.982  1.00  0.00     0.337 C 
HETATM   16  C5  UNL     1       6.852  28.105  35.054  1.00  0.00     0.084 C 
ATOM     17  H52 UNL     1       5.832  30.273  35.490  1.00  0.00     0.282 HD
ATOM     18  H51 UNL     1       4.824  30.505  34.364  1.00  0.00     0.282 HD
BRANCH   9  19
HETATM   19  O1  UNL     1       9.801  32.188  35.411  1.00  0.00    -0.290 OA
ATOM     20  H1  UNL     1      10.485  32.788  35.141  1.00  0.00     0.244 HD
ENDBRANCH   9  19
BRANCH  16  21
HETATM   21  C6  UNL     1       6.326  26.825  35.320  1.00  0.00     0.209 C 
HETATM   22  O2  UNL     1       5.046  26.644  35.104  1.00  0.00    -0.644 OA
HETATM   23  O3  UNL     1       6.951  25.698  35.770  1.00  0.00    -0.644 OA
ENDBRANCH  16  21
ENDBRANCH   1   3
BRANCH   1  24
HETATM   24  O5  UNL     1       9.899  27.457  36.665  1.00  0.00    -0.307 OA
BRANCH  24  25
HETATM   25  C9  UNL     1      10.314  26.335  37.464  1.00  0.00     0.191 C 
BRANCH  25  26
HETATM   26  C10 UNL     1      11.709  26.590  37.918  1.00  0.00     0.076 C 
BRANCH  26  27
HETATM   27  C11 UNL     1      12.141  25.916  39.137  1.00  0.00    -0.050 A 
HETATM   28  C12 UNL     1      13.440  25.495  39.375  1.00  0.00     0.046 A 
HETATM   29  C13 UNL     1      13.816  24.839  40.541  1.00  0.00     0.102 A 
HETATM   30  C14 UNL     1      12.887  24.578  41.527  1.00  0.00     0.132 A 
HETATM   31  C15 UNL     1      11.586  24.992  41.301  1.00  0.00     0.102 A 
HETATM   32  C16 UNL     1      11.234  25.642  40.137  1.00  0.00     0.046 A 
BRANCH  29  33
HETATM   33  O6  UNL     1      15.156  24.447  40.700  1.00  0.00    -0.358 OA
ATOM     34  H6  UNL     1      15.477  23.697  40.214  1.00  0.00     0.217 HD
ENDBRANCH  29  33
BRANCH  30  35
HETATM   35  O7  UNL     1      13.198  23.936  42.696  1.00  0.00    -0.356 OA
ATOM     36  H7  UNL     1      13.338  22.997  42.751  1.00  0.00     0.218 HD
ENDBRANCH  30  35
BRANCH  31  37
HETATM   37  O8  UNL     1      10.637  24.727  42.302  1.00  0.00    -0.358 OA
ATOM     38  H8  UNL     1      10.338  23.830  42.398  1.00  0.00     0.217 HD
ENDBRANCH  31  37
ENDBRANCH  26  27
ENDBRANCH  25  26
BRANCH  25  39
HETATM   39  C17 UNL     1      10.168  25.133  36.546  1.00  0.00     0.283 C 
BRANCH  39  40
HETATM   40  O9  UNL     1       9.241  24.218  37.001  1.00  0.00    -0.369 OA
ATOM     41  H9  UNL     1       9.623  23.549  37.556  1.00  0.00     0.212 HD
ENDBRANCH  39  40
BRANCH  39  42
HETATM   42  O10 UNL     1       9.999  25.526  35.226  1.00  0.00    -0.369 OA
ATOM     43  H10 UNL     1      10.812  25.852  34.858  1.00  0.00     0.212 HD
ENDBRANCH  39  42
ENDBRANCH  25  39
ENDBRANCH  24  25
ENDBRANCH   1  24
TORSDOF 13
ENDMDL
