MODEL 1
REMARK VINA RESULT: -7.583647956      0.000      0.000
REMARK  11 active torsions:
REMARK  status: ('A' for Active; 'I' for Inactive)
REMARK    1  A    between atoms: C3_4  and  S1_5 
REMARK    2  A    between atoms: S1_5  and  C4_6 
REMARK    3  A    between atoms: C4_6  and  C5_7 
REMARK    4  A    between atoms: C5_7  and  N2_8 
REMARK    5  A    between atoms: C5_7  and  O1_12 
REMARK    6  A    between atoms: C6_15  and  N3_16 
REMARK    7  A    between atoms: N3_16  and  C7_18 
REMARK    8  A    between atoms: C11_26  and  C12_27 
REMARK    9  A    between atoms: C12_27  and  O4_28 
REMARK   10  A    between atoms: C12_27  and  O5_30 
REMARK   11  A    between atoms: C13_32  and  O6_33 
ROOT
HETATM    1  N1  UNL     1      13.499  23.521  45.883  1.00  0.00    -0.191 NA
HETATM    2  C1  UNL     1      13.869  23.678  44.774  1.00  0.00     0.104 C 
HETATM    3  C2  UNL     1      14.285  23.850  43.450  1.00  0.00     0.100 C 
HETATM    4  C3  UNL     1      13.744  24.937  42.776  1.00  0.00     0.136 C 
HETATM    5  O2  UNL     1      13.770  25.152  41.456  1.00  0.00    -0.281 OA
HETATM    6  C6  UNL     1      14.008  24.314  40.477  1.00  0.00     0.198 C 
HETATM    7  C8  UNL     1      14.525  23.021  40.558  1.00  0.00     0.234 C 
HETATM    8  O3  UNL     1      14.357  22.288  39.564  1.00  0.00    -0.283 OA
HETATM    9  C9  UNL     1      15.201  22.445  41.595  1.00  0.00     0.035 C 
HETATM   10  C10 UNL     1      15.880  21.366  41.117  1.00  0.00     0.031 C 
HETATM   11  C11 UNL     1      16.464  20.389  41.928  1.00  0.00     0.032 C 
HETATM   12  C13 UNL     1      16.585  20.317  43.294  1.00  0.00     0.105 C 
HETATM   13  C14 UNL     1      16.469  21.362  44.192  1.00  0.00     0.131 C 
HETATM   14  N7  UNL     1      16.901  21.166  45.520  1.00  0.00    -0.095 NA
HETATM   15  C15 UNL     1      15.964  22.654  43.974  1.00  0.00     0.211 C 
HETATM   16  O7  UNL     1      16.288  23.524  44.791  1.00  0.00    -0.285 OA
HETATM   17  C16 UNL     1      15.156  22.943  42.916  1.00  0.00     0.054 C 
ENDROOT
BRANCH   4  18
HETATM   18  S1  UNL     1      12.963  26.095  43.844  1.00  0.00    -0.099 SA
BRANCH  18  19
HETATM   19  C4  UNL     1      11.220  25.819  44.103  1.00  0.00     0.142 C 
BRANCH  19  20
HETATM   20  C5  UNL     1      10.561  25.712  42.726  1.00  0.00     0.325 C 
BRANCH  20  21
HETATM   21  N2  UNL     1      11.079  26.794  41.908  1.00  0.00    -0.052 N 
ATOM     22  H23 UNL     1      10.522  27.645  41.976  1.00  0.00     0.277 HD
ATOM     23  H22 UNL     1      11.954  27.178  42.265  1.00  0.00     0.277 HD
ATOM     24  H21 UNL     1      11.158  26.447  40.953  1.00  0.00     0.277 HD
ENDBRANCH  20  21
BRANCH  20  25
HETATM   25  O1  UNL     1      10.914  24.510  42.120  1.00  0.00    -0.369 OA
ATOM     26  H1  UNL     1      10.501  24.443  41.267  1.00  0.00     0.212 HD
ENDBRANCH  20  25
ENDBRANCH  19  20
ENDBRANCH  18  19
ENDBRANCH   4  18
BRANCH   6  27
HETATM   27  N3  UNL     1      13.726  24.736  39.267  1.00  0.00    -0.334 N 
ATOM     28  H3  UNL     1      14.366  24.512  38.505  1.00  0.00     0.164 HD
BRANCH  27  29
HETATM   29  C7  UNL     1      12.552  25.501  38.981  1.00  0.00     0.308 C 
HETATM   30  N4  UNL     1      11.286  24.835  39.170  1.00  0.00    -0.086 NA
HETATM   31  N5  UNL     1      10.888  25.162  37.865  1.00  0.00    -0.033 NA
HETATM   32  N6  UNL     1      12.229  25.408  37.565  1.00  0.00    -0.086 NA
ENDBRANCH  27  29
ENDBRANCH   6  27
BRANCH  11  33
HETATM   33  C12 UNL     1      17.048  19.231  41.156  1.00  0.00     0.291 C 
BRANCH  33  34
HETATM   34  O4  UNL     1      18.443  19.377  41.061  1.00  0.00    -0.367 OA
ATOM     35  H4  UNL     1      18.741  19.077  40.210  1.00  0.00     0.213 HD
ENDBRANCH  33  34
BRANCH  33  36
HETATM   36  O5  UNL     1      16.506  19.202  39.898  1.00  0.00    -0.367 OA
ATOM     37  H5  UNL     1      16.557  18.318  39.552  1.00  0.00     0.213 HD
ENDBRANCH  33  36
ENDBRANCH  11  33
BRANCH  12  38
HETATM   38  O6  UNL     1      16.851  19.086  43.838  1.00  0.00    -0.358 OA
ATOM     39  H6  UNL     1      16.827  19.013  44.785  1.00  0.00     0.217 HD
ENDBRANCH  12  38
TORSDOF 11
ENDMDL
MODEL 2
REMARK VINA RESULT: -7.547252188      1.167      1.226
REMARK  11 active torsions:
REMARK  status: ('A' for Active; 'I' for Inactive)
REMARK    1  A    between atoms: C3_4  and  S1_5 
REMARK    2  A    between atoms: S1_5  and  C4_6 
REMARK    3  A    between atoms: C4_6  and  C5_7 
REMARK    4  A    between atoms: C5_7  and  N2_8 
REMARK    5  A    between atoms: C5_7  and  O1_12 
REMARK    6  A    between atoms: C6_15  and  N3_16 
REMARK    7  A    between atoms: N3_16  and  C7_18 
REMARK    8  A    between atoms: C11_26  and  C12_27 
REMARK    9  A    between atoms: C12_27  and  O4_28 
REMARK   10  A    between atoms: C12_27  and  O5_30 
REMARK   11  A    between atoms: C13_32  and  O6_33 
ROOT
HETATM    1  N1  UNL     1      13.516  23.496  45.993  1.00  0.00    -0.191 NA
HETATM    2  C1  UNL     1      13.872  23.685  44.884  1.00  0.00     0.104 C 
HETATM    3  C2  UNL     1      14.273  23.896  43.561  1.00  0.00     0.100 C 
HETATM    4  C3  UNL     1      13.725  25.003  42.926  1.00  0.00     0.136 C 
HETATM    5  O2  UNL     1      13.736  25.257  41.613  1.00  0.00    -0.281 OA
HETATM    6  C6  UNL     1      13.961  24.448  40.607  1.00  0.00     0.198 C 
HETATM    7  C8  UNL     1      14.477  23.153  40.643  1.00  0.00     0.234 C 
HETATM    8  O3  UNL     1      14.296  22.450  39.629  1.00  0.00    -0.283 OA
HETATM    9  C9  UNL     1      15.165  22.546  41.654  1.00  0.00     0.035 C 
HETATM   10  C10 UNL     1      15.836  21.481  41.136  1.00  0.00     0.031 C 
HETATM   11  C11 UNL     1      16.428  20.479  41.910  1.00  0.00     0.032 C 
HETATM   12  C13 UNL     1      16.566  20.367  43.272  1.00  0.00     0.105 C 
HETATM   13  C14 UNL     1      16.462  21.385  44.203  1.00  0.00     0.131 C 
HETATM   14  N7  UNL     1      16.909  21.149  45.518  1.00  0.00    -0.095 NA
HETATM   15  C15 UNL     1      15.956  22.683  44.029  1.00  0.00     0.211 C 
HETATM   16  O7  UNL     1      16.291  23.529  44.867  1.00  0.00    -0.285 OA
HETATM   17  C16 UNL     1      15.136  23.005  42.989  1.00  0.00     0.054 C 
ENDROOT
BRANCH   4  18
HETATM   18  S1  UNL     1      12.959  26.130  44.037  1.00  0.00    -0.099 SA
BRANCH  18  19
HETATM   19  C4  UNL     1      13.331  27.849  43.735  1.00  0.00     0.142 C 
BRANCH  19  20
HETATM   20  C5  UNL     1      12.536  28.282  42.501  1.00  0.00     0.325 C 
BRANCH  20  21
HETATM   21  N2  UNL     1      13.462  28.349  41.385  1.00  0.00    -0.052 N 
ATOM     22  H23 UNL     1      13.900  29.264  41.286  1.00  0.00     0.277 HD
ATOM     23  H22 UNL     1      14.314  27.810  41.543  1.00  0.00     0.277 HD
ATOM     24  H21 UNL     1      12.957  28.058  40.548  1.00  0.00     0.277 HD
ENDBRANCH  20  21
BRANCH  20  25
HETATM   25  O1  UNL     1      11.568  27.328  42.198  1.00  0.00    -0.369 OA
ATOM     26  H1  UNL     1      11.938  26.657  41.636  1.00  0.00     0.212 HD
ENDBRANCH  20  25
ENDBRANCH  19  20
ENDBRANCH  18  19
ENDBRANCH   4  18
BRANCH   6  27
HETATM   27  N3  UNL     1      13.665  24.907  39.413  1.00  0.00    -0.334 N 
ATOM     28  H3  UNL     1      14.422  25.092  38.755  1.00  0.00     0.164 HD
BRANCH  27  29
HETATM   29  C7  UNL     1      12.317  25.154  39.004  1.00  0.00     0.308 C 
HETATM   30  N4  UNL     1      12.110  25.450  37.607  1.00  0.00    -0.086 NA
HETATM   31  N5  UNL     1      11.419  26.628  37.931  1.00  0.00    -0.033 NA
HETATM   32  N6  UNL     1      11.984  26.557  39.205  1.00  0.00    -0.086 NA
ENDBRANCH  27  29
ENDBRANCH   6  27
BRANCH  11  33
HETATM   33  C12 UNL     1      17.001  19.345  41.098  1.00  0.00     0.291 C 
BRANCH  33  34
HETATM   34  O4  UNL     1      18.398  19.479  41.010  1.00  0.00    -0.367 OA
ATOM     35  H4  UNL     1      18.722  18.993  40.260  1.00  0.00     0.213 HD
ENDBRANCH  33  34
BRANCH  33  36
HETATM   36  O5  UNL     1      16.462  19.367  39.838  1.00  0.00    -0.367 OA
ATOM     37  H5  UNL     1      16.002  18.551  39.677  1.00  0.00     0.213 HD
ENDBRANCH  33  36
ENDBRANCH  11  33
BRANCH  12  38
HETATM   38  O6  UNL     1      16.837  19.120  43.777  1.00  0.00    -0.358 OA
ATOM     39  H6  UNL     1      16.444  18.892  44.611  1.00  0.00     0.217 HD
ENDBRANCH  12  38
TORSDOF 11
ENDMDL
MODEL 3
REMARK VINA RESULT: -6.990956045      1.216      1.929
REMARK  11 active torsions:
REMARK  status: ('A' for Active; 'I' for Inactive)
REMARK    1  A    between atoms: C3_4  and  S1_5 
REMARK    2  A    between atoms: S1_5  and  C4_6 
REMARK    3  A    between atoms: C4_6  and  C5_7 
REMARK    4  A    between atoms: C5_7  and  N2_8 
REMARK    5  A    between atoms: C5_7  and  O1_12 
REMARK    6  A    between atoms: C6_15  and  N3_16 
REMARK    7  A    between atoms: N3_16  and  C7_18 
REMARK    8  A    between atoms: C11_26  and  C12_27 
REMARK    9  A    between atoms: C12_27  and  O4_28 
REMARK   10  A    between atoms: C12_27  and  O5_30 
REMARK   11  A    between atoms: C13_32  and  O6_33 
ROOT
HETATM    1  N1  UNL     1      13.620  23.469  46.046  1.00  0.00    -0.191 NA
HETATM    2  C1  UNL     1      13.988  23.656  44.941  1.00  0.00     0.104 C 
HETATM    3  C2  UNL     1      14.403  23.865  43.622  1.00  0.00     0.100 C 
HETATM    4  C3  UNL     1      13.892  24.994  42.993  1.00  0.00     0.136 C 
HETATM    5  O2  UNL     1      13.919  25.258  41.683  1.00  0.00    -0.281 OA
HETATM    6  C6  UNL     1      14.125  24.451  40.671  1.00  0.00     0.198 C 
HETATM    7  C8  UNL     1      14.602  23.141  40.699  1.00  0.00     0.234 C 
HETATM    8  O3  UNL     1      14.406  22.452  39.679  1.00  0.00    -0.283 OA
HETATM    9  C9  UNL     1      15.265  22.505  41.709  1.00  0.00     0.035 C 
HETATM   10  C10 UNL     1      15.907  21.424  41.186  1.00  0.00     0.031 C 
HETATM   11  C11 UNL     1      16.463  20.399  41.955  1.00  0.00     0.032 C 
HETATM   12  C13 UNL     1      16.590  20.271  43.317  1.00  0.00     0.105 C 
HETATM   13  C14 UNL     1      16.511  21.284  44.255  1.00  0.00     0.131 C 
HETATM   14  N7  UNL     1      16.943  21.024  45.571  1.00  0.00    -0.095 NA
HETATM   15  C15 UNL     1      16.046  22.598  44.090  1.00  0.00     0.211 C 
HETATM   16  O7  UNL     1      16.401  23.427  44.937  1.00  0.00    -0.285 OA
HETATM   17  C16 UNL     1      15.242  22.953  43.048  1.00  0.00     0.054 C 
ENDROOT
BRANCH   4  18
HETATM   18  S1  UNL     1      13.155  26.135  44.109  1.00  0.00    -0.099 SA
BRANCH  18  19
HETATM   19  C4  UNL     1      14.139  27.580  44.463  1.00  0.00     0.142 C 
BRANCH  19  20
HETATM   20  C5  UNL     1      14.921  27.300  45.749  1.00  0.00     0.325 C 
BRANCH  20  21
HETATM   21  N2  UNL     1      14.016  26.652  46.679  1.00  0.00    -0.052 N 
ATOM     22  H23 UNL     1      14.306  25.704  46.920  1.00  0.00     0.277 HD
ATOM     23  H22 UNL     1      14.061  27.048  47.618  1.00  0.00     0.277 HD
ATOM     24  H21 UNL     1      13.081  26.690  46.275  1.00  0.00     0.277 HD
ENDBRANCH  20  21
BRANCH  20  25
HETATM   25  O1  UNL     1      15.969  26.422  45.487  1.00  0.00    -0.369 OA
ATOM     26  H1  UNL     1      16.794  26.812  45.753  1.00  0.00     0.212 HD
ENDBRANCH  20  25
ENDBRANCH  19  20
ENDBRANCH  18  19
ENDBRANCH   4  18
BRANCH   6  27
HETATM   27  N3  UNL     1      13.851  24.928  39.479  1.00  0.00    -0.334 N 
ATOM     28  H3  UNL     1      14.552  24.847  38.743  1.00  0.00     0.164 HD
BRANCH  27  29
HETATM   29  C7  UNL     1      12.603  25.557  39.180  1.00  0.00     0.308 C 
HETATM   30  N4  UNL     1      11.425  24.726  39.257  1.00  0.00    -0.086 NA
HETATM   31  N5  UNL     1      11.048  25.092  37.955  1.00  0.00    -0.033 NA
HETATM   32  N6  UNL     1      12.359  25.525  37.745  1.00  0.00    -0.086 NA
ENDBRANCH  27  29
ENDBRANCH   6  27
BRANCH  11  33
HETATM   33  C12 UNL     1      17.007  19.254  41.137  1.00  0.00     0.291 C 
BRANCH  33  34
HETATM   34  O4  UNL     1      18.406  19.353  41.048  1.00  0.00    -0.367 OA
ATOM     35  H4  UNL     1      18.811  18.622  41.500  1.00  0.00     0.213 HD
ENDBRANCH  33  34
BRANCH  33  36
HETATM   36  O5  UNL     1      16.467  19.296  39.878  1.00  0.00    -0.367 OA
ATOM     37  H5  UNL     1      17.019  19.824  39.314  1.00  0.00     0.213 HD
ENDBRANCH  33  36
ENDBRANCH  11  33
BRANCH  12  38
HETATM   38  O6  UNL     1      16.820  19.012  43.813  1.00  0.00    -0.358 OA
ATOM     39  H6  UNL     1      17.361  18.941  44.590  1.00  0.00     0.217 HD
ENDBRANCH  12  38
TORSDOF 11
ENDMDL
MODEL 4
REMARK VINA RESULT: -6.703661230      2.846      5.973
REMARK  11 active torsions:
REMARK  status: ('A' for Active; 'I' for Inactive)
REMARK    1  A    between atoms: C3_4  and  S1_5 
REMARK    2  A    between atoms: S1_5  and  C4_6 
REMARK    3  A    between atoms: C4_6  and  C5_7 
REMARK    4  A    between atoms: C5_7  and  N2_8 
REMARK    5  A    between atoms: C5_7  and  O1_12 
REMARK    6  A    between atoms: C6_15  and  N3_16 
REMARK    7  A    between atoms: N3_16  and  C7_18 
REMARK    8  A    between atoms: C11_26  and  C12_27 
REMARK    9  A    between atoms: C12_27  and  O4_28 
REMARK   10  A    between atoms: C12_27  and  O5_30 
REMARK   11  A    between atoms: C13_32  and  O6_33 
ROOT
HETATM    1  N1  UNL     1      13.938  25.968  45.588  1.00  0.00    -0.191 NA
HETATM    2  C1  UNL     1      14.090  25.131  44.771  1.00  0.00     0.104 C 
HETATM    3  C2  UNL     1      14.291  24.151  43.793  1.00  0.00     0.100 C 
HETATM    4  C3  UNL     1      15.197  23.147  44.112  1.00  0.00     0.136 C 
HETATM    5  O2  UNL     1      15.752  22.275  43.264  1.00  0.00    -0.281 OA
HETATM    6  C6  UNL     1      15.842  22.320  41.957  1.00  0.00     0.198 C 
HETATM    7  C8  UNL     1      15.180  23.178  41.078  1.00  0.00     0.234 C 
HETATM    8  O3  UNL     1      15.655  23.278  39.930  1.00  0.00    -0.283 OA
HETATM    9  C9  UNL     1      14.066  23.931  41.313  1.00  0.00     0.035 C 
HETATM   10  C10 UNL     1      13.519  24.272  40.113  1.00  0.00     0.031 C 
HETATM   11  C11 UNL     1      12.532  25.248  39.953  1.00  0.00     0.032 C 
HETATM   12  C13 UNL     1      11.842  25.982  40.886  1.00  0.00     0.105 C 
HETATM   13  C14 UNL     1      11.703  25.691  42.232  1.00  0.00     0.131 C 
HETATM   14  N7  UNL     1      10.734  26.391  42.979  1.00  0.00    -0.095 NA
HETATM   15  C15 UNL     1      12.411  24.758  43.005  1.00  0.00     0.211 C 
HETATM   16  O7  UNL     1      11.888  24.402  44.068  1.00  0.00    -0.285 OA
HETATM   17  C16 UNL     1      13.617  24.261  42.610  1.00  0.00     0.054 C 
ENDROOT
BRANCH   4  18
HETATM   18  S1  UNL     1      15.598  23.093  45.822  1.00  0.00    -0.099 SA
BRANCH  18  19
HETATM   19  C4  UNL     1      14.698  21.874  46.764  1.00  0.00     0.142 C 
BRANCH  19  20
HETATM   20  C5  UNL     1      13.655  21.251  45.832  1.00  0.00     0.325 C 
BRANCH  20  21
HETATM   21  N2  UNL     1      13.371  19.915  46.325  1.00  0.00    -0.052 N 
ATOM     22  H23 UNL     1      13.049  19.283  45.593  1.00  0.00     0.277 HD
ATOM     23  H22 UNL     1      14.211  19.401  46.587  1.00  0.00     0.277 HD
ATOM     24  H21 UNL     1      12.705  20.006  47.092  1.00  0.00     0.277 HD
ENDBRANCH  20  21
BRANCH  20  25
HETATM   25  O1  UNL     1      12.474  21.986  45.879  1.00  0.00    -0.369 OA
ATOM     26  H1  UNL     1      12.219  22.134  46.782  1.00  0.00     0.212 HD
ENDBRANCH  20  25
ENDBRANCH  19  20
ENDBRANCH  18  19
ENDBRANCH   4  18
BRANCH   6  27
HETATM   27  N3  UNL     1      16.655  21.455  41.398  1.00  0.00    -0.334 N 
ATOM     28  H3  UNL     1      17.563  21.777  41.063  1.00  0.00     0.164 HD
BRANCH  27  29
HETATM   29  C7  UNL     1      16.310  20.076  41.244  1.00  0.00     0.308 C 
HETATM   30  N4  UNL     1      17.345  19.203  40.744  1.00  0.00    -0.086 NA
HETATM   31  N5  UNL     1      16.498  18.738  39.726  1.00  0.00    -0.033 NA
HETATM   32  N6  UNL     1      15.693  19.857  39.945  1.00  0.00    -0.086 NA
ENDBRANCH  27  29
ENDBRANCH   6  27
BRANCH  11  33
HETATM   33  C12 UNL     1      12.184  25.527  38.512  1.00  0.00     0.291 C 
BRANCH  33  34
HETATM   34  O4  UNL     1      10.969  24.901  38.185  1.00  0.00    -0.367 OA
ATOM     35  H4  UNL     1      11.103  23.965  38.092  1.00  0.00     0.213 HD
ENDBRANCH  33  34
BRANCH  33  36
HETATM   36  O5  UNL     1      13.177  25.045  37.700  1.00  0.00    -0.367 OA
ATOM     37  H5  UNL     1      12.794  24.695  36.905  1.00  0.00     0.213 HD
ENDBRANCH  33  36
ENDBRANCH  11  33
BRANCH  12  38
HETATM   38  O6  UNL     1      11.220  27.126  40.453  1.00  0.00    -0.358 OA
ATOM     39  H6  UNL     1      11.466  27.459  39.598  1.00  0.00     0.217 HD
ENDBRANCH  12  38
TORSDOF 11
ENDMDL
MODEL 5
REMARK VINA RESULT: -6.635573669      2.540      3.309
REMARK  11 active torsions:
REMARK  status: ('A' for Active; 'I' for Inactive)
REMARK    1  A    between atoms: C3_4  and  S1_5 
REMARK    2  A    between atoms: S1_5  and  C4_6 
REMARK    3  A    between atoms: C4_6  and  C5_7 
REMARK    4  A    between atoms: C5_7  and  N2_8 
REMARK    5  A    between atoms: C5_7  and  O1_12 
REMARK    6  A    between atoms: C6_15  and  N3_16 
REMARK    7  A    between atoms: N3_16  and  C7_18 
REMARK    8  A    between atoms: C11_26  and  C12_27 
REMARK    9  A    between atoms: C12_27  and  O4_28 
REMARK   10  A    between atoms: C12_27  and  O5_30 
REMARK   11  A    between atoms: C13_32  and  O6_33 
ROOT
HETATM    1  N1  UNL     1      14.022  27.525  44.566  1.00  0.00    -0.191 NA
HETATM    2  C1  UNL     1      13.766  27.228  43.453  1.00  0.00     0.104 C 
HETATM    3  C2  UNL     1      13.443  26.861  42.143  1.00  0.00     0.100 C 
HETATM    4  C3  UNL     1      12.471  27.630  41.516  1.00  0.00     0.136 C 
HETATM    5  O2  UNL     1      11.810  27.322  40.395  1.00  0.00    -0.281 OA
HETATM    6  C6  UNL     1      11.668  26.163  39.800  1.00  0.00     0.198 C 
HETATM    7  C8  UNL     1      12.360  24.978  40.048  1.00  0.00     0.234 C 
HETATM    8  O3  UNL     1      11.847  23.928  39.613  1.00  0.00    -0.283 OA
HETATM    9  C9  UNL     1      13.542  24.814  40.711  1.00  0.00     0.035 C 
HETATM   10  C10 UNL     1      14.064  23.605  40.364  1.00  0.00     0.031 C 
HETATM   11  C11 UNL     1      15.120  22.987  41.038  1.00  0.00     0.032 C 
HETATM   12  C13 UNL     1      15.908  23.438  42.068  1.00  0.00     0.105 C 
HETATM   13  C14 UNL     1      16.081  24.752  42.466  1.00  0.00     0.131 C 
HETATM   14  N7  UNL     1      17.135  25.060  43.349  1.00  0.00    -0.095 NA
HETATM   15  C15 UNL     1      15.331  25.883  42.104  1.00  0.00     0.211 C 
HETATM   16  O7  UNL     1      15.869  26.985  42.271  1.00  0.00    -0.285 OA
HETATM   17  C16 UNL     1      14.073  25.781  41.593  1.00  0.00     0.054 C 
ENDROOT
BRANCH   4  18
HETATM   18  S1  UNL     1      12.141  29.143  42.348  1.00  0.00    -0.099 SA
BRANCH  18  19
HETATM   19  C4  UNL     1      10.591  29.190  43.230  1.00  0.00     0.142 C 
BRANCH  19  20
HETATM   20  C5  UNL     1       9.814  27.922  42.862  1.00  0.00     0.325 C 
BRANCH  20  21
HETATM   21  N2  UNL     1       8.878  27.655  43.938  1.00  0.00    -0.052 N 
ATOM     22  H23 UNL     1       9.238  27.922  44.854  1.00  0.00     0.277 HD
ATOM     23  H22 UNL     1       8.070  28.278  43.925  1.00  0.00     0.277 HD
ATOM     24  H21 UNL     1       8.621  26.670  43.884  1.00  0.00     0.277 HD
ENDBRANCH  20  21
BRANCH  20  25
HETATM   25  O1  UNL     1       9.082  28.134  41.698  1.00  0.00    -0.369 OA
ATOM     26  H1  UNL     1       9.579  28.673  41.095  1.00  0.00     0.212 HD
ENDBRANCH  20  25
ENDBRANCH  19  20
ENDBRANCH  18  19
ENDBRANCH   4  18
BRANCH   6  27
HETATM   27  N3  UNL     1      10.763  26.102  38.851  1.00  0.00    -0.334 N 
ATOM     28  H3  UNL     1       9.788  25.952  39.110  1.00  0.00     0.164 HD
BRANCH  27  29
HETATM   29  C7  UNL     1      11.098  26.239  37.468  1.00  0.00     0.308 C 
HETATM   30  N4  UNL     1      10.104  26.854  36.621  1.00  0.00    -0.086 NA
HETATM   31  N5  UNL     1      10.148  25.766  35.735  1.00  0.00    -0.033 NA
HETATM   32  N6  UNL     1      10.755  25.022  36.748  1.00  0.00    -0.086 NA
ENDBRANCH  27  29
ENDBRANCH   6  27
BRANCH  11  33
HETATM   33  C12 UNL     1      15.429  21.598  40.538  1.00  0.00     0.291 C 
BRANCH  33  34
HETATM   34  O4  UNL     1      16.750  21.544  40.061  1.00  0.00    -0.367 OA
ATOM     35  H4  UNL     1      16.771  21.783  39.142  1.00  0.00     0.213 HD
ENDBRANCH  33  34
BRANCH  33  36
HETATM   36  O5  UNL     1      14.565  21.276  39.523  1.00  0.00    -0.367 OA
ATOM     37  H5  UNL     1      13.691  21.158  39.877  1.00  0.00     0.213 HD
ENDBRANCH  33  36
ENDBRANCH  11  33
BRANCH  12  38
HETATM   38  O6  UNL     1      16.604  22.499  42.787  1.00  0.00    -0.358 OA
ATOM     39  H6  UNL     1      16.133  21.720  43.058  1.00  0.00     0.217 HD
ENDBRANCH  12  38
TORSDOF 11
ENDMDL
