MODEL 1
REMARK VINA RESULT: -5.620259288      0.000      0.000
REMARK  3 active torsions:
REMARK  status: ('A' for Active; 'I' for Inactive)
REMARK    1  A    between atoms: C1_1  and  C4_9 
REMARK    2  A    between atoms: N1_2  and  O1_4 
REMARK    3  A    between atoms: O1_4  and  C2_5 
ROOT
HETATM    1  C1  UNL     1       8.359 -23.816 -17.881  1.00  0.00     0.165 C 
HETATM    2  N1  UNL     1       9.253 -23.431 -17.068  1.00  0.00    -0.272 N 
ATOM      3  H1  UNL     1       9.057 -23.576 -16.078  1.00  0.00     0.193 HD
ENDROOT
BRANCH   1   4
HETATM    4  C4  UNL     1       7.141 -24.424 -17.377  1.00  0.00     0.154 A 
HETATM    5  N4  UNL     1       6.482 -24.463 -16.186  1.00  0.00    -0.269 N 
HETATM    6  N5  UNL     1       5.519 -25.218 -16.670  1.00  0.00    -0.239 N 
ATOM      7  H4  UNL     1       6.665 -24.060 -15.267  1.00  0.00     0.190 HD
HETATM    8  N6  UNL     1       6.137 -25.198 -17.837  1.00  0.00    -0.269 N 
ATOM      9  H5  UNL     1       4.666 -25.638 -16.302  1.00  0.00     0.208 HD
ATOM     10  H6  UNL     1       5.932 -25.612 -18.746  1.00  0.00     0.190 HD
ENDBRANCH   1   4
BRANCH   2  11
HETATM   11  O1  UNL     1      10.436 -22.851 -17.365  1.00  0.00    -0.256 OA
BRANCH  11  12
HETATM   12  C2  UNL     1      10.818 -22.416 -18.650  1.00  0.00     0.276 C 
HETATM   13  C3  UNL     1      12.262 -21.959 -18.672  1.00  0.00     0.183 C 
HETATM   14  N2  UNL     1      11.861 -20.725 -19.360  1.00  0.00    -0.142 NA
HETATM   15  N3  UNL     1      10.549 -21.004 -18.919  1.00  0.00    -0.112 NA
ENDBRANCH  11  12
ENDBRANCH   2  11
TORSDOF 3
ENDMDL
MODEL 2
REMARK VINA RESULT: -5.455768957      0.997      1.202
REMARK  3 active torsions:
REMARK  status: ('A' for Active; 'I' for Inactive)
REMARK    1  A    between atoms: C1_1  and  C4_9 
REMARK    2  A    between atoms: N1_2  and  O1_4 
REMARK    3  A    between atoms: O1_4  and  C2_5 
ROOT
HETATM    1  C1  UNL     1       8.803 -23.003 -18.394  1.00  0.00     0.165 C 
HETATM    2  N1  UNL     1       9.793 -23.150 -17.615  1.00  0.00    -0.272 N 
ATOM      3  H1  UNL     1       9.678 -23.826 -16.861  1.00  0.00     0.193 HD
ENDROOT
BRANCH   1   4
HETATM    4  C4  UNL     1       7.595 -23.778 -18.180  1.00  0.00     0.154 A 
HETATM    5  N4  UNL     1       7.300 -25.062 -17.837  1.00  0.00    -0.269 N 
HETATM    6  N5  UNL     1       6.003 -24.845 -17.884  1.00  0.00    -0.239 N 
ATOM      7  H4  UNL     1       7.869 -25.882 -17.623  1.00  0.00     0.190 HD
HETATM    8  N6  UNL     1       6.260 -23.594 -18.219  1.00  0.00    -0.269 N 
ATOM      9  H5  UNL     1       5.163 -25.403 -17.729  1.00  0.00     0.208 HD
ATOM     10  H6  UNL     1       5.669 -22.789 -18.429  1.00  0.00     0.190 HD
ENDBRANCH   1   4
BRANCH   2  11
HETATM   11  O1  UNL     1      10.982 -22.513 -17.672  1.00  0.00    -0.256 OA
BRANCH  11  12
HETATM   12  C2  UNL     1      11.667 -22.192 -18.861  1.00  0.00     0.276 C 
HETATM   13  C3  UNL     1      13.110 -21.824 -18.586  1.00  0.00     0.183 C 
HETATM   14  N2  UNL     1      12.961 -20.619 -19.411  1.00  0.00    -0.142 NA
HETATM   15  N3  UNL     1      11.567 -20.788 -19.259  1.00  0.00    -0.112 NA
ENDBRANCH  11  12
ENDBRANCH   2  11
TORSDOF 3
ENDMDL
MODEL 3
REMARK VINA RESULT: -5.399770253      1.741      1.886
REMARK  3 active torsions:
REMARK  status: ('A' for Active; 'I' for Inactive)
REMARK    1  A    between atoms: C1_1  and  C4_9 
REMARK    2  A    between atoms: N1_2  and  O1_4 
REMARK    3  A    between atoms: O1_4  and  C2_5 
ROOT
HETATM    1  C1  UNL     1       7.637 -23.666 -18.058  1.00  0.00     0.165 C 
HETATM    2  N1  UNL     1       8.673 -24.211 -17.568  1.00  0.00    -0.272 N 
ATOM      3  H1  UNL     1       8.561 -24.658 -16.658  1.00  0.00     0.193 HD
ENDROOT
BRANCH   1   4
HETATM    4  C4  UNL     1       6.386 -23.704 -17.323  1.00  0.00     0.154 A 
HETATM    5  N4  UNL     1       5.343 -22.854 -17.116  1.00  0.00    -0.269 N 
HETATM    6  N5  UNL     1       4.706 -23.718 -16.355  1.00  0.00    -0.239 N 
ATOM      7  H4  UNL     1       5.134 -21.906 -17.430  1.00  0.00     0.190 HD
HETATM    8  N6  UNL     1       5.704 -24.563 -16.539  1.00  0.00    -0.269 N 
ATOM      9  H5  UNL     1       3.823 -23.730 -15.844  1.00  0.00     0.208 HD
ATOM     10  H6  UNL     1       5.890 -25.510 -16.211  1.00  0.00     0.190 HD
ENDBRANCH   1   4
BRANCH   2  11
HETATM   11  O1  UNL     1       9.906 -24.268 -18.114  1.00  0.00    -0.256 OA
BRANCH  11  12
HETATM   12  C2  UNL     1      10.840 -23.212 -18.103  1.00  0.00     0.276 C 
HETATM   13  C3  UNL     1      12.240 -23.709 -18.397  1.00  0.00     0.183 C 
HETATM   14  N2  UNL     1      12.747 -22.970 -17.234  1.00  0.00    -0.142 NA
HETATM   15  N3  UNL     1      11.408 -22.917 -16.788  1.00  0.00    -0.112 NA
ENDBRANCH  11  12
ENDBRANCH   2  11
TORSDOF 3
ENDMDL
MODEL 4
REMARK VINA RESULT: -5.319470997      1.619      1.730
REMARK  3 active torsions:
REMARK  status: ('A' for Active; 'I' for Inactive)
REMARK    1  A    between atoms: C1_1  and  C4_9 
REMARK    2  A    between atoms: N1_2  and  O1_4 
REMARK    3  A    between atoms: O1_4  and  C2_5 
ROOT
HETATM    1  C1  UNL     1       7.638 -23.710 -18.131  1.00  0.00     0.165 C 
HETATM    2  N1  UNL     1       8.692 -24.173 -17.600  1.00  0.00    -0.272 N 
ATOM      3  H1  UNL     1       8.601 -24.524 -16.646  1.00  0.00     0.193 HD
ENDROOT
BRANCH   1   4
HETATM    4  C4  UNL     1       6.395 -23.702 -17.381  1.00  0.00     0.154 A 
HETATM    5  N4  UNL     1       5.736 -24.569 -16.565  1.00  0.00    -0.269 N 
HETATM    6  N5  UNL     1       4.744 -23.727 -16.365  1.00  0.00    -0.239 N 
ATOM      7  H4  UNL     1       5.934 -25.513 -16.233  1.00  0.00     0.190 HD
HETATM    8  N6  UNL     1       5.362 -22.866 -17.153  1.00  0.00    -0.269 N 
ATOM      9  H5  UNL     1       3.875 -23.736 -15.832  1.00  0.00     0.208 HD
ATOM     10  H6  UNL     1       5.141 -21.923 -17.471  1.00  0.00     0.190 HD
ENDBRANCH   1   4
BRANCH   2  11
HETATM   11  O1  UNL     1       9.921 -24.255 -18.152  1.00  0.00    -0.256 OA
BRANCH  11  12
HETATM   12  C2  UNL     1      10.997 -23.395 -17.852  1.00  0.00     0.276 C 
HETATM   13  C3  UNL     1      11.029 -22.202 -18.785  1.00  0.00     0.183 C 
HETATM   14  N2  UNL     1      12.458 -22.431 -19.031  1.00  0.00    -0.142 NA
HETATM   15  N3  UNL     1      12.252 -23.733 -18.525  1.00  0.00    -0.112 NA
ENDBRANCH  11  12
ENDBRANCH   2  11
TORSDOF 3
ENDMDL
MODEL 5
REMARK VINA RESULT: -5.241719534      1.640      1.887
REMARK  3 active torsions:
REMARK  status: ('A' for Active; 'I' for Inactive)
REMARK    1  A    between atoms: C1_1  and  C4_9 
REMARK    2  A    between atoms: N1_2  and  O1_4 
REMARK    3  A    between atoms: O1_4  and  C2_5 
ROOT
HETATM    1  C1  UNL     1       8.327 -24.451 -17.661  1.00  0.00     0.165 C 
HETATM    2  N1  UNL     1       9.333 -23.717 -17.904  1.00  0.00    -0.272 N 
ATOM      3  H1  UNL     1       9.165 -22.712 -17.916  1.00  0.00     0.193 HD
ENDROOT
BRANCH   1   4
HETATM    4  C4  UNL     1       7.031 -23.843 -17.420  1.00  0.00     0.154 A 
HETATM    5  N4  UNL     1       5.962 -23.477 -18.179  1.00  0.00    -0.269 N 
HETATM    6  N5  UNL     1       5.292 -23.035 -17.136  1.00  0.00    -0.239 N 
ATOM      7  H4  UNL     1       5.757 -23.527 -19.177  1.00  0.00     0.190 HD
HETATM    8  N6  UNL     1       6.315 -23.380 -16.376  1.00  0.00    -0.269 N 
ATOM      9  H5  UNL     1       4.378 -22.609 -16.982  1.00  0.00     0.208 HD
ATOM     10  H6  UNL     1       6.496 -23.319 -15.374  1.00  0.00     0.190 HD
ENDBRANCH   1   4
BRANCH   2  11
HETATM   11  O1  UNL     1      10.599 -24.116 -18.148  1.00  0.00    -0.256 OA
BRANCH  11  12
HETATM   12  C2  UNL     1      11.743 -23.308 -17.986  1.00  0.00     0.276 C 
HETATM   13  C3  UNL     1      11.715 -22.116 -18.921  1.00  0.00     0.183 C 
HETATM   14  N2  UNL     1      13.091 -22.412 -19.339  1.00  0.00    -0.142 NA
HETATM   15  N3  UNL     1      12.888 -23.704 -18.807  1.00  0.00    -0.112 NA
ENDBRANCH  11  12
ENDBRANCH   2  11
TORSDOF 3
ENDMDL
