MODEL 1
REMARK VINA RESULT: -6.167161379      0.000      0.000
REMARK  2 active torsions:
REMARK  status: ('A' for Active; 'I' for Inactive)
REMARK    1  A    between atoms: N3_4  and  N4_6 
REMARK    2  A    between atoms: C2_8  and  C3_10 
ROOT
HETATM    1  N4  UNL     1       9.271 -23.772 -17.415  1.00  0.00    -0.283 N 
ATOM      2  H4  UNL     1       9.298 -24.203 -16.491  1.00  0.00     0.188 HD
HETATM    3  C2  UNL     1       8.132 -23.558 -17.934  1.00  0.00     0.177 C 
HETATM    4  N5  UNL     1       7.991 -22.959 -19.221  1.00  0.00    -0.077 NA
ENDROOT
BRANCH   3   5
HETATM    5  C3  UNL     1       6.915 -23.928 -17.211  1.00  0.00     0.174 C 
HETATM    6  N6  UNL     1       6.292 -23.235 -16.298  1.00  0.00    -0.268 N 
HETATM    7  N7  UNL     1       5.175 -23.957 -15.868  1.00  0.00    -0.007 NA
ATOM      8  H6  UNL     1       6.575 -22.317 -15.954  1.00  0.00     0.185 HD
HETATM    9  N8  UNL     1       5.454 -25.290 -16.193  1.00  0.00    -0.007 NA
HETATM   10  N9  UNL     1       6.179 -25.139 -17.380  1.00  0.00    -0.268 N 
ATOM     11  H9  UNL     1       6.182 -25.760 -18.190  1.00  0.00     0.185 HD
ENDBRANCH   3   5
BRANCH   1  12
HETATM   12  N3  UNL     1      10.486 -23.459 -18.018  1.00  0.00    -0.275 N 
HETATM   13  C1  UNL     1      11.525 -23.123 -17.358  1.00  0.00     0.215 C 
HETATM   14  N1  UNL     1      11.487 -23.051 -15.932  1.00  0.00    -0.065 NA
HETATM   15  N2  UNL     1      12.730 -22.816 -18.026  1.00  0.00    -0.065 NA
ATOM     16  H3  UNL     1      10.548 -23.500 -19.035  1.00  0.00     0.189 HD
ENDBRANCH   1  12
TORSDOF 2
ENDMDL
MODEL 2
REMARK VINA RESULT: -6.146767671      1.584      5.398
REMARK  2 active torsions:
REMARK  status: ('A' for Active; 'I' for Inactive)
REMARK    1  A    between atoms: N3_4  and  N4_6 
REMARK    2  A    between atoms: C2_8  and  C3_10 
ROOT
HETATM    1  N4  UNL     1       8.409 -23.823 -18.067  1.00  0.00    -0.283 N 
ATOM      2  H4  UNL     1       8.134 -23.402 -18.954  1.00  0.00     0.188 HD
HETATM    3  C2  UNL     1       9.537 -23.496 -17.584  1.00  0.00     0.177 C 
HETATM    4  N5  UNL     1      10.011 -24.030 -16.349  1.00  0.00    -0.077 NA
ENDROOT
BRANCH   3   5
HETATM    5  C3  UNL     1      10.393 -22.546 -18.296  1.00  0.00     0.174 C 
HETATM    6  N6  UNL     1      11.680 -22.382 -18.160  1.00  0.00    -0.268 N 
HETATM    7  N7  UNL     1      12.099 -21.370 -19.029  1.00  0.00    -0.007 NA
ATOM      8  H6  UNL     1      12.281 -22.905 -17.523  1.00  0.00     0.185 HD
HETATM    9  N8  UNL     1      10.948 -20.620 -19.299  1.00  0.00    -0.007 NA
HETATM   10  N9  UNL     1       9.962 -21.613 -19.285  1.00  0.00    -0.268 N 
ATOM     11  H9  UNL     1       9.118 -21.659 -19.858  1.00  0.00     0.185 HD
ENDBRANCH   3   5
BRANCH   1  12
HETATM   12  N3  UNL     1       7.523 -24.715 -17.472  1.00  0.00    -0.275 N 
HETATM   13  C1  UNL     1       6.455 -24.345 -16.879  1.00  0.00     0.215 C 
HETATM   14  N1  UNL     1       6.112 -22.962 -16.800  1.00  0.00    -0.065 NA
HETATM   15  N2  UNL     1       5.594 -25.298 -16.294  1.00  0.00    -0.065 NA
ATOM     16  H3  UNL     1       7.737 -25.712 -17.510  1.00  0.00     0.189 HD
ENDBRANCH   1  12
TORSDOF 2
ENDMDL
MODEL 3
REMARK VINA RESULT: -5.947953907      2.437      3.814
REMARK  2 active torsions:
REMARK  status: ('A' for Active; 'I' for Inactive)
REMARK    1  A    between atoms: N3_4  and  N4_6 
REMARK    2  A    between atoms: C2_8  and  C3_10 
ROOT
HETATM    1  N4  UNL     1      12.036 -23.029 -18.235  1.00  0.00    -0.283 N 
ATOM      2  H4  UNL     1      12.020 -22.876 -19.243  1.00  0.00     0.188 HD
HETATM    3  C2  UNL     1      10.925 -23.033 -17.621  1.00  0.00     0.177 C 
HETATM    4  N5  UNL     1      10.844 -23.239 -16.211  1.00  0.00    -0.077 NA
ENDROOT
BRANCH   3   5
HETATM    5  C3  UNL     1       9.678 -22.824 -18.357  1.00  0.00     0.174 C 
HETATM    6  N6  UNL     1       8.562 -23.488 -18.234  1.00  0.00    -0.268 N 
HETATM    7  N7  UNL     1       7.624 -22.963 -19.127  1.00  0.00    -0.007 NA
ATOM      8  H6  UNL     1       8.401 -24.264 -17.591  1.00  0.00     0.185 HD
HETATM    9  N8  UNL     1       8.379 -22.316 -20.113  1.00  0.00    -0.007 NA
HETATM   10  N9  UNL     1       9.458 -21.835 -19.362  1.00  0.00    -0.268 N 
ATOM     11  H9  UNL     1       9.975 -20.967 -19.504  1.00  0.00     0.185 HD
ENDBRANCH   3   5
BRANCH   1  12
HETATM   12  N3  UNL     1      13.275 -23.217 -17.630  1.00  0.00    -0.275 N 
HETATM   13  C1  UNL     1      14.138 -24.055 -18.055  1.00  0.00     0.215 C 
HETATM   14  N1  UNL     1      13.864 -24.858 -19.203  1.00  0.00    -0.065 NA
HETATM   15  N2  UNL     1      15.379 -24.201 -17.398  1.00  0.00    -0.065 NA
ATOM     16  H3  UNL     1      13.504 -22.659 -16.807  1.00  0.00     0.189 HD
ENDBRANCH   1  12
TORSDOF 2
ENDMDL
MODEL 4
REMARK VINA RESULT: -5.899348682      1.052      1.246
REMARK  2 active torsions:
REMARK  status: ('A' for Active; 'I' for Inactive)
REMARK    1  A    between atoms: N3_4  and  N4_6 
REMARK    2  A    between atoms: C2_8  and  C3_10 
ROOT
HETATM    1  N4  UNL     1       8.620 -23.672 -17.175  1.00  0.00    -0.283 N 
ATOM      2  H4  UNL     1       8.659 -23.743 -16.159  1.00  0.00     0.188 HD
HETATM    3  C2  UNL     1       7.483 -23.491 -17.711  1.00  0.00     0.177 C 
HETATM    4  N5  UNL     1       7.326 -23.377 -19.125  1.00  0.00    -0.077 NA
ENDROOT
BRANCH   3   5
HETATM    5  C3  UNL     1       6.285 -23.394 -16.876  1.00  0.00     0.174 C 
HETATM    6  N6  UNL     1       5.196 -22.722 -17.127  1.00  0.00    -0.268 N 
HETATM    7  N7  UNL     1       4.302 -22.900 -16.067  1.00  0.00    -0.007 NA
ATOM      8  H6  UNL     1       5.025 -22.158 -17.960  1.00  0.00     0.185 HD
HETATM    9  N8  UNL     1       5.097 -23.280 -14.979  1.00  0.00    -0.007 NA
HETATM   10  N9  UNL     1       6.094 -24.030 -15.613  1.00  0.00    -0.268 N 
ATOM     11  H9  UNL     1       6.578 -24.852 -15.252  1.00  0.00     0.185 HD
ENDBRANCH   3   5
BRANCH   1  12
HETATM   12  N3  UNL     1       9.817 -23.779 -17.877  1.00  0.00    -0.275 N 
HETATM   13  C1  UNL     1      10.944 -23.431 -17.389  1.00  0.00     0.215 C 
HETATM   14  N1  UNL     1      11.030 -22.904 -16.065  1.00  0.00    -0.065 NA
HETATM   15  N2  UNL     1      12.125 -23.564 -18.150  1.00  0.00    -0.065 NA
ATOM     16  H3  UNL     1       9.792 -24.152 -18.826  1.00  0.00     0.189 HD
ENDBRANCH   1  12
TORSDOF 2
ENDMDL
MODEL 5
REMARK VINA RESULT: -5.884661815      1.601      1.985
REMARK  2 active torsions:
REMARK  status: ('A' for Active; 'I' for Inactive)
REMARK    1  A    between atoms: N3_4  and  N4_6 
REMARK    2  A    between atoms: C2_8  and  C3_10 
ROOT
HETATM    1  N4  UNL     1       9.720 -22.416 -18.601  1.00  0.00    -0.283 N 
ATOM      2  H4  UNL     1      10.032 -22.707 -17.675  1.00  0.00     0.188 HD
HETATM    3  C2  UNL     1       8.557 -22.764 -18.969  1.00  0.00     0.177 C 
HETATM    4  N5  UNL     1       8.031 -22.404 -20.247  1.00  0.00    -0.077 NA
ENDROOT
BRANCH   3   5
HETATM    5  C3  UNL     1       7.711 -23.558 -18.077  1.00  0.00     0.174 C 
HETATM    6  N6  UNL     1       6.444 -23.831 -18.220  1.00  0.00    -0.268 N 
HETATM    7  N7  UNL     1       6.028 -24.617 -17.141  1.00  0.00    -0.007 NA
ATOM      8  H6  UNL     1       5.853 -23.521 -18.992  1.00  0.00     0.185 HD
HETATM    9  N8  UNL     1       6.960 -24.368 -16.127  1.00  0.00    -0.007 NA
HETATM   10  N9  UNL     1       8.133 -24.187 -16.868  1.00  0.00    -0.268 N 
ATOM     11  H9  UNL     1       9.083 -24.447 -16.601  1.00  0.00     0.185 HD
ENDBRANCH   3   5
BRANCH   1  12
HETATM   12  N3  UNL     1      10.602 -21.663 -19.372  1.00  0.00    -0.275 N 
HETATM   13  C1  UNL     1      11.844 -21.553 -19.102  1.00  0.00     0.215 C 
HETATM   14  N1  UNL     1      12.401 -22.215 -17.966  1.00  0.00    -0.065 NA
HETATM   15  N2  UNL     1      12.689 -20.774 -19.922  1.00  0.00    -0.065 NA
ATOM     16  H3  UNL     1      10.237 -21.177 -20.192  1.00  0.00     0.189 HD
ENDBRANCH   1  12
TORSDOF 2
ENDMDL
