MODEL 1
REMARK VINA RESULT: -5.255628895      0.000      0.000
REMARK  6 active torsions:
REMARK  status: ('A' for Active; 'I' for Inactive)
REMARK    1  A    between atoms: N1_1  and  C1_4 
REMARK    2  A    between atoms: C2_9  and  C3_10 
REMARK    3  A    between atoms: C3_10  and  C4_11 
REMARK    4  A    between atoms: C4_11  and  C5_12 
REMARK    5  A    between atoms: C5_12  and  N4_13 
REMARK    6  A    between atoms: C5_12  and  N5_17 
ROOT
HETATM    1  C3  UNL     1       8.588 -23.667 -17.112  1.00  0.00     0.090 C 
ENDROOT
BRANCH   1   2
HETATM    2  C2  UNL     1       9.737 -23.069 -17.852  1.00  0.00     0.142 A 
HETATM    3  N3  UNL     1      10.998 -23.543 -17.842  1.00  0.00    -0.280 N 
HETATM    4  N2  UNL     1      11.767 -22.779 -18.601  1.00  0.00    -0.263 N 
ATOM      5  H3  UNL     1      11.312 -24.365 -17.326  1.00  0.00     0.189 HD
HETATM    6  C1  UNL     1      10.967 -21.809 -19.095  1.00  0.00     0.238 A 
ATOM      7  H2  UNL     1      12.764 -22.900 -18.779  1.00  0.00     0.190 HD
HETATM    8  O1  UNL     1       9.755 -22.009 -18.628  1.00  0.00    -0.264 OA
BRANCH   6   9
HETATM    9  N1  UNL     1      11.405 -20.885 -19.883  1.00  0.00    -0.364 N 
ATOM     10  H12 UNL     1      11.117 -20.645 -20.832  1.00  0.00     0.159 HD
ATOM     11  H11 UNL     1      12.151 -20.244 -19.612  1.00  0.00     0.159 HD
ENDBRANCH   6   9
ENDBRANCH   1   2
BRANCH   1  12
HETATM   12  C4  UNL     1       8.037 -24.875 -17.848  1.00  0.00     0.070 C 
BRANCH  12  13
HETATM   13  C5  UNL     1       6.536 -24.710 -17.916  1.00  0.00     0.378 C 
BRANCH  13  14
HETATM   14  N4  UNL     1       5.881 -25.149 -16.716  1.00  0.00    -0.051 N 
ATOM     15  H43 UNL     1       6.545 -25.235 -15.945  1.00  0.00     0.276 HD
ATOM     16  H42 UNL     1       5.282 -24.417 -16.336  1.00  0.00     0.276 HD
ATOM     17  H41 UNL     1       5.361 -26.016 -16.851  1.00  0.00     0.276 HD
ENDBRANCH  13  14
BRANCH  13  18
HETATM   18  N5  UNL     1       6.146 -23.350 -18.174  1.00  0.00    -0.051 N 
ATOM     19  H53 UNL     1       5.845 -23.231 -19.141  1.00  0.00     0.276 HD
ATOM     20  H52 UNL     1       5.272 -23.121 -17.701  1.00  0.00     0.276 HD
ATOM     21  H51 UNL     1       6.880 -22.684 -17.931  1.00  0.00     0.276 HD
ENDBRANCH  13  18
ENDBRANCH  12  13
ENDBRANCH   1  12
TORSDOF 6
ENDMDL
MODEL 2
REMARK VINA RESULT: -5.216723431      0.750      1.181
REMARK  6 active torsions:
REMARK  status: ('A' for Active; 'I' for Inactive)
REMARK    1  A    between atoms: N1_1  and  C1_4 
REMARK    2  A    between atoms: C2_9  and  C3_10 
REMARK    3  A    between atoms: C3_10  and  C4_11 
REMARK    4  A    between atoms: C4_11  and  C5_12 
REMARK    5  A    between atoms: C5_12  and  N4_13 
REMARK    6  A    between atoms: C5_12  and  N5_17 
ROOT
HETATM    1  C3  UNL     1       8.659 -23.921 -17.102  1.00  0.00     0.090 C 
ENDROOT
BRANCH   1   2
HETATM    2  C2  UNL     1       9.733 -23.193 -17.838  1.00  0.00     0.142 A 
HETATM    3  N3  UNL     1      11.035 -23.537 -17.850  1.00  0.00    -0.280 N 
HETATM    4  N2  UNL     1      11.714 -22.683 -18.600  1.00  0.00    -0.263 N 
ATOM      5  H3  UNL     1      11.437 -24.334 -17.357  1.00  0.00     0.189 HD
HETATM    6  C1  UNL     1      10.814 -21.788 -19.063  1.00  0.00     0.238 A 
ATOM      7  H2  UNL     1      12.717 -22.698 -18.789  1.00  0.00     0.190 HD
HETATM    8  O1  UNL     1       9.635 -22.120 -18.590  1.00  0.00    -0.264 OA
BRANCH   6   9
HETATM    9  N1  UNL     1      11.148 -20.808 -19.834  1.00  0.00    -0.364 N 
ATOM     10  H12 UNL     1      11.929 -20.155 -19.760  1.00  0.00     0.159 HD
ATOM     11  H11 UNL     1      10.617 -20.565 -20.671  1.00  0.00     0.159 HD
ENDBRANCH   6   9
ENDBRANCH   1   2
BRANCH   1  12
HETATM   12  C4  UNL     1       7.335 -23.825 -17.837  1.00  0.00     0.070 C 
BRANCH  12  13
HETATM   13  C5  UNL     1       6.241 -23.847 -16.794  1.00  0.00     0.378 C 
BRANCH  13  14
HETATM   14  N4  UNL     1       5.227 -22.862 -17.041  1.00  0.00    -0.051 N 
ATOM     15  H43 UNL     1       5.640 -21.970 -17.317  1.00  0.00     0.276 HD
ATOM     16  H42 UNL     1       4.708 -23.074 -17.892  1.00  0.00     0.276 HD
ATOM     17  H41 UNL     1       4.597 -22.743 -16.247  1.00  0.00     0.276 HD
ENDBRANCH  13  14
BRANCH  13  18
HETATM   18  N5  UNL     1       5.608 -25.135 -16.694  1.00  0.00    -0.051 N 
ATOM     19  H53 UNL     1       5.959 -25.774 -17.407  1.00  0.00     0.276 HD
ATOM     20  H52 UNL     1       5.918 -25.633 -15.860  1.00  0.00     0.276 HD
ATOM     21  H51 UNL     1       4.590 -25.070 -16.726  1.00  0.00     0.276 HD
ENDBRANCH  13  18
ENDBRANCH  12  13
ENDBRANCH   1  12
TORSDOF 6
ENDMDL
MODEL 3
REMARK VINA RESULT: -5.029706758      1.232      1.656
REMARK  6 active torsions:
REMARK  status: ('A' for Active; 'I' for Inactive)
REMARK    1  A    between atoms: N1_1  and  C1_4 
REMARK    2  A    between atoms: C2_9  and  C3_10 
REMARK    3  A    between atoms: C3_10  and  C4_11 
REMARK    4  A    between atoms: C4_11  and  C5_12 
REMARK    5  A    between atoms: C5_12  and  N4_13 
REMARK    6  A    between atoms: C5_12  and  N5_17 
ROOT
HETATM    1  C3  UNL     1       8.902 -23.834 -17.217  1.00  0.00     0.090 C 
ENDROOT
BRANCH   1   2
HETATM    2  C2  UNL     1       9.512 -22.886 -18.195  1.00  0.00     0.142 A 
HETATM    3  N3  UNL     1       8.856 -22.286 -19.207  1.00  0.00    -0.280 N 
HETATM    4  N2  UNL     1       9.690 -21.510 -19.880  1.00  0.00    -0.263 N 
ATOM      5  H3  UNL     1       7.867 -22.411 -19.422  1.00  0.00     0.189 HD
HETATM    6  C1  UNL     1      10.892 -21.630 -19.273  1.00  0.00     0.238 A 
ATOM      7  H2  UNL     1       9.470 -20.935 -20.694  1.00  0.00     0.190 HD
HETATM    8  O1  UNL     1      10.753 -22.461 -18.266  1.00  0.00    -0.264 OA
BRANCH   6   9
HETATM    9  N1  UNL     1      11.940 -20.997 -19.683  1.00  0.00    -0.364 N 
ATOM     10  H12 UNL     1      12.276 -20.837 -20.633  1.00  0.00     0.159 HD
ATOM     11  H11 UNL     1      12.597 -20.553 -19.041  1.00  0.00     0.159 HD
ENDBRANCH   6   9
ENDBRANCH   1   2
BRANCH   1  12
HETATM   12  C4  UNL     1       7.688 -24.522 -17.814  1.00  0.00     0.070 C 
BRANCH  12  13
HETATM   13  C5  UNL     1       6.498 -24.152 -16.957  1.00  0.00     0.378 C 
BRANCH  13  14
HETATM   14  N4  UNL     1       5.715 -23.095 -17.531  1.00  0.00    -0.051 N 
ATOM     15  H43 UNL     1       4.950 -23.468 -18.093  1.00  0.00     0.276 HD
ATOM     16  H42 UNL     1       5.173 -22.610 -16.816  1.00  0.00     0.276 HD
ATOM     17  H41 UNL     1       6.281 -22.440 -18.070  1.00  0.00     0.276 HD
ENDBRANCH  13  14
BRANCH  13  18
HETATM   18  N5  UNL     1       5.633 -25.275 -16.710  1.00  0.00    -0.051 N 
ATOM     19  H53 UNL     1       4.801 -24.991 -16.193  1.00  0.00     0.276 HD
ATOM     20  H52 UNL     1       5.190 -25.595 -17.571  1.00  0.00     0.276 HD
ATOM     21  H51 UNL     1       6.116 -26.040 -16.239  1.00  0.00     0.276 HD
ENDBRANCH  13  18
ENDBRANCH  12  13
ENDBRANCH   1  12
TORSDOF 6
ENDMDL
MODEL 4
REMARK VINA RESULT: -4.950948231      1.326      5.174
REMARK  6 active torsions:
REMARK  status: ('A' for Active; 'I' for Inactive)
REMARK    1  A    between atoms: N1_1  and  C1_4 
REMARK    2  A    between atoms: C2_9  and  C3_10 
REMARK    3  A    between atoms: C3_10  and  C4_11 
REMARK    4  A    between atoms: C4_11  and  C5_12 
REMARK    5  A    between atoms: C5_12  and  N4_13 
REMARK    6  A    between atoms: C5_12  and  N5_17 
ROOT
HETATM    1  C3  UNL     1       9.819 -23.194 -17.922  1.00  0.00     0.090 C 
ENDROOT
BRANCH   1   2
HETATM    2  C2  UNL     1       8.384 -23.596 -17.855  1.00  0.00     0.142 A 
HETATM    3  N3  UNL     1       7.414 -23.149 -18.676  1.00  0.00    -0.280 N 
HETATM    4  N2  UNL     1       6.259 -23.704 -18.345  1.00  0.00    -0.263 N 
ATOM      5  H3  UNL     1       7.549 -22.483 -19.437  1.00  0.00     0.189 HD
HETATM    6  C1  UNL     1       6.517 -24.514 -17.294  1.00  0.00     0.238 A 
ATOM      7  H2  UNL     1       5.356 -23.551 -18.793  1.00  0.00     0.190 HD
HETATM    8  O1  UNL     1       7.799 -24.428 -17.024  1.00  0.00    -0.264 OA
BRANCH   6   9
HETATM    9  N1  UNL     1       5.597 -25.214 -16.719  1.00  0.00    -0.364 N 
ATOM     10  H12 UNL     1       5.571 -25.614 -15.781  1.00  0.00     0.159 HD
ATOM     11  H11 UNL     1       4.724 -25.459 -17.187  1.00  0.00     0.159 HD
ENDBRANCH   6   9
ENDBRANCH   1   2
BRANCH   1  12
HETATM   12  C4  UNL     1      10.030 -22.101 -18.954  1.00  0.00     0.070 C 
BRANCH  12  13
HETATM   13  C5  UNL     1      11.508 -21.785 -18.975  1.00  0.00     0.378 C 
BRANCH  13  14
HETATM   14  N4  UNL     1      12.321 -22.942 -18.729  1.00  0.00    -0.051 N 
ATOM     15  H43 UNL     1      12.974 -23.103 -19.497  1.00  0.00     0.276 HD
ATOM     16  H42 UNL     1      12.989 -22.769 -17.978  1.00  0.00     0.276 HD
ATOM     17  H41 UNL     1      11.765 -23.776 -18.540  1.00  0.00     0.276 HD
ENDBRANCH  13  14
BRANCH  13  18
HETATM   18  N5  UNL     1      11.923 -21.195 -20.220  1.00  0.00    -0.051 N 
ATOM     19  H53 UNL     1      11.528 -21.698 -21.015  1.00  0.00     0.276 HD
ATOM     20  H52 UNL     1      11.479 -20.289 -20.363  1.00  0.00     0.276 HD
ATOM     21  H51 UNL     1      12.937 -21.124 -20.296  1.00  0.00     0.276 HD
ENDBRANCH  13  18
ENDBRANCH  12  13
ENDBRANCH   1  12
TORSDOF 6
ENDMDL
MODEL 5
REMARK VINA RESULT: -4.896889982      1.229      1.295
REMARK  6 active torsions:
REMARK  status: ('A' for Active; 'I' for Inactive)
REMARK    1  A    between atoms: N1_1  and  C1_4 
REMARK    2  A    between atoms: C2_9  and  C3_10 
REMARK    3  A    between atoms: C3_10  and  C4_11 
REMARK    4  A    between atoms: C4_11  and  C5_12 
REMARK    5  A    between atoms: C5_12  and  N4_13 
REMARK    6  A    between atoms: C5_12  and  N5_17 
ROOT
HETATM    1  C3  UNL     1       9.051 -23.692 -17.195  1.00  0.00     0.090 C 
ENDROOT
BRANCH   1   2
HETATM    2  C2  UNL     1       9.852 -22.813 -18.096  1.00  0.00     0.142 A 
HETATM    3  N3  UNL     1       9.358 -22.112 -19.135  1.00  0.00    -0.280 N 
HETATM    4  N2  UNL     1      10.335 -21.438 -19.722  1.00  0.00    -0.263 N 
ATOM      5  H3  UNL     1       8.380 -22.101 -19.425  1.00  0.00     0.189 HD
HETATM    6  C1  UNL     1      11.461 -21.728 -19.033  1.00  0.00     0.238 A 
ATOM      7  H2  UNL     1      10.254 -20.823 -20.532  1.00  0.00     0.190 HD
HETATM    8  O1  UNL     1      11.139 -22.554 -18.064  1.00  0.00    -0.264 OA
BRANCH   6   9
HETATM    9  N1  UNL     1      12.610 -21.230 -19.346  1.00  0.00    -0.364 N 
ATOM     10  H12 UNL     1      13.543 -21.487 -19.023  1.00  0.00     0.159 HD
ATOM     11  H11 UNL     1      12.711 -20.461 -20.008  1.00  0.00     0.159 HD
ENDBRANCH   6   9
ENDBRANCH   1   2
BRANCH   1  12
HETATM   12  C4  UNL     1       8.252 -24.706 -17.995  1.00  0.00     0.070 C 
BRANCH  12  13
HETATM   13  C5  UNL     1       6.806 -24.564 -17.578  1.00  0.00     0.378 C 
BRANCH  13  14
HETATM   14  N4  UNL     1       6.661 -24.328 -16.169  1.00  0.00    -0.051 N 
ATOM     15  H43 UNL     1       6.520 -23.336 -15.976  1.00  0.00     0.276 HD
ATOM     16  H42 UNL     1       5.772 -24.691 -15.826  1.00  0.00     0.276 HD
ATOM     17  H41 UNL     1       7.442 -24.700 -15.630  1.00  0.00     0.276 HD
ENDBRANCH  13  14
BRANCH  13  18
HETATM   18  N5  UNL     1       6.134 -23.508 -18.287  1.00  0.00    -0.051 N 
ATOM     19  H53 UNL     1       5.129 -23.528 -18.110  1.00  0.00     0.276 HD
ATOM     20  H52 UNL     1       6.352 -22.598 -17.884  1.00  0.00     0.276 HD
ATOM     21  H51 UNL     1       6.333 -23.525 -19.287  1.00  0.00     0.276 HD
ENDBRANCH  13  18
ENDBRANCH  12  13
ENDBRANCH   1  12
TORSDOF 6
ENDMDL
