MODEL 1
REMARK VINA RESULT: -8.611680274      0.000      0.000
REMARK  11 active torsions:
REMARK  status: ('A' for Active; 'I' for Inactive)
REMARK    1  A    between atoms: C2_2  and  C3_3 
REMARK       I    between atoms: C3_3  and  N1_5 
REMARK    2  A    between atoms: N1_5  and  C4_7 
REMARK    3  A    between atoms: C4_7  and  C5_8 
REMARK    4  A    between atoms: C5_8  and  C6_9 
REMARK    5  A    between atoms: C6_9  and  C7_10 
REMARK    6  A    between atoms: C7_10  and  N2_11 
REMARK    7  A    between atoms: C9_16  and  C10_17 
REMARK       I    between atoms: N4_20  and  C13_21 
REMARK    8  A    between atoms: C13_21  and  O3_23 
REMARK    9  A    between atoms: O3_23  and  C14_24 
REMARK   10  A    between atoms: C21_31  and  N5_32 
REMARK   11  A    between atoms: N5_32  and  C22_34 
ROOT
HETATM    1  N2  UNL     1      17.456  17.270  32.615  1.00  0.00    -0.226 N 
ATOM      2  H2  UNL     1      18.110  16.623  33.055  1.00  0.00     0.177 HD
HETATM    3  C8  UNL     1      16.257  17.299  33.034  1.00  0.00     0.679 A 
HETATM    4  N3  UNL     1      15.873  16.472  34.054  1.00  0.00    -0.195 N 
ATOM      5  H3  UNL     1      16.554  15.838  34.472  1.00  0.00     0.184 HD
HETATM    6  C9  UNL     1      14.614  16.487  34.511  1.00  0.00     0.034 A 
HETATM    7  C20 UNL     1      13.677  17.337  33.962  1.00  0.00     0.074 A 
HETATM    8  C21 UNL     1      14.046  18.174  32.935  1.00  0.00     0.120 A 
HETATM    9  N7  UNL     1      15.343  18.106  32.521  1.00  0.00    -0.177 N 
ATOM     10  H7  UNL     1      15.629  18.722  31.760  1.00  0.00     0.185 HD
ENDROOT
BRANCH   6  11
HETATM   11  C10 UNL     1      14.252  15.558  35.629  1.00  0.00     0.039 C 
HETATM   12  C11 UNL     1      12.920  14.938  35.245  1.00  0.00     0.030 C 
HETATM   13  C12 UNL     1      12.575  13.959  36.359  1.00  0.00     0.129 C 
HETATM   14  N4  UNL     1      13.631  12.961  36.360  1.00  0.00    -0.328 N 
HETATM   15  C13 UNL     1      13.460  11.808  37.202  1.00  0.00     0.363 C 
HETATM   16  C18 UNL     1      14.785  13.156  35.539  1.00  0.00     0.129 C 
HETATM   17  O2  UNL     1      12.432  11.669  37.911  1.00  0.00    -0.238 OA
HETATM   18  C19 UNL     1      15.332  14.541  35.814  1.00  0.00     0.030 C 
BRANCH  15  19
HETATM   19  O3  UNL     1      14.421  10.834  37.245  1.00  0.00    -0.294 OA
BRANCH  19  20
HETATM   20  C14 UNL     1      14.398   9.628  36.535  1.00  0.00     0.061 C 
HETATM   21  C15 UNL     1      14.225   8.513  37.564  1.00  0.00     0.046 C 
HETATM   22  C16 UNL     1      15.703   9.455  35.826  1.00  0.00     0.046 C 
HETATM   23  C17 UNL     1      13.222   9.534  35.589  1.00  0.00     0.046 C 
ENDBRANCH  19  20
ENDBRANCH  15  19
ENDBRANCH   6  11
BRANCH   8  24
HETATM   24  N5  UNL     1      13.220  18.981  32.389  1.00  0.00    -0.348 N 
ATOM     25  H5  UNL     1      12.266  19.035  32.747  1.00  0.00     0.163 HD
BRANCH  24  26
HETATM   26  C22 UNL     1      13.599  19.805  31.291  1.00  0.00     0.285 C 
HETATM   27  C23 UNL     1      13.837  21.220  31.827  1.00  0.00     0.054 C 
HETATM   28  C24 UNL     1      14.554  22.050  30.787  1.00  0.00     0.005 C 
HETATM   29  C25 UNL     1      14.086  21.532  29.430  1.00  0.00     0.028 C 
HETATM   30  C26 UNL     1      12.646  21.106  29.545  1.00  0.00     0.235 C 
HETATM   31  N6  UNL     1      12.560  19.850  30.260  1.00  0.00    -0.054 N 
ATOM     32  H62 UNL     1      12.603  19.046  29.635  1.00  0.00     0.279 HD
ATOM     33  H61 UNL     1      11.629  19.687  30.643  1.00  0.00     0.279 HD
ENDBRANCH  24  26
ENDBRANCH   8  24
BRANCH   1  34
HETATM   34  C7  UNL     1      17.925  18.094  31.565  1.00  0.00     0.138 C 
BRANCH  34  35
HETATM   35  C6  UNL     1      19.296  17.693  31.055  1.00  0.00     0.022 C 
BRANCH  35  36
HETATM   36  C5  UNL     1      19.163  16.454  30.171  1.00  0.00     0.021 C 
BRANCH  36  37
HETATM   37  C4  UNL     1      19.927  15.315  30.783  1.00  0.00     0.122 C 
BRANCH  37  38
HETATM   38  N1  UNL     1      19.016  14.366  31.363  1.00  0.00    -0.361 N 
HETATM   39  C3  UNL     1      18.730  14.241  32.744  1.00  0.00     0.217 C 
HETATM   40  O1  UNL     1      19.286  14.995  33.569  1.00  0.00    -0.274 OA
ATOM     41  H1  UNL     1      18.535  13.731  30.727  1.00  0.00     0.162 HD
BRANCH  39  42
HETATM   42  C2  UNL     1      17.775  13.223  33.226  1.00  0.00     0.098 C 
HETATM   43  C1  UNL     1      18.419  12.411  34.326  1.00  0.00     0.014 C 
ENDBRANCH  39  42
ENDBRANCH  37  38
ENDBRANCH  36  37
ENDBRANCH  35  36
ENDBRANCH  34  35
ENDBRANCH   1  34
TORSDOF 11
ENDMDL
MODEL 2
REMARK VINA RESULT: -8.439030161      2.707      8.881
REMARK  11 active torsions:
REMARK  status: ('A' for Active; 'I' for Inactive)
REMARK    1  A    between atoms: C2_2  and  C3_3 
REMARK       I    between atoms: C3_3  and  N1_5 
REMARK    2  A    between atoms: N1_5  and  C4_7 
REMARK    3  A    between atoms: C4_7  and  C5_8 
REMARK    4  A    between atoms: C5_8  and  C6_9 
REMARK    5  A    between atoms: C6_9  and  C7_10 
REMARK    6  A    between atoms: C7_10  and  N2_11 
REMARK    7  A    between atoms: C9_16  and  C10_17 
REMARK       I    between atoms: N4_20  and  C13_21 
REMARK    8  A    between atoms: C13_21  and  O3_23 
REMARK    9  A    between atoms: O3_23  and  C14_24 
REMARK   10  A    between atoms: C21_31  and  N5_32 
REMARK   11  A    between atoms: N5_32  and  C22_34 
ROOT
HETATM    1  N2  UNL     1      18.611  12.465  33.544  1.00  0.00    -0.226 N 
ATOM      2  H2  UNL     1      19.183  12.423  32.702  1.00  0.00     0.177 HD
HETATM    3  C8  UNL     1      17.700  13.348  33.615  1.00  0.00     0.679 A 
HETATM    4  N3  UNL     1      17.508  14.211  32.571  1.00  0.00    -0.195 N 
ATOM      5  H3  UNL     1      18.098  14.140  31.743  1.00  0.00     0.184 HD
HETATM    6  C9  UNL     1      16.553  15.148  32.625  1.00  0.00     0.034 A 
HETATM    7  C20 UNL     1      15.742  15.264  33.735  1.00  0.00     0.074 A 
HETATM    8  C21 UNL     1      15.922  14.404  34.792  1.00  0.00     0.120 A 
HETATM    9  N7  UNL     1      16.912  13.475  34.670  1.00  0.00    -0.177 N 
ATOM     10  H7  UNL     1      17.056  12.831  35.448  1.00  0.00     0.185 HD
ENDROOT
BRANCH   6  11
HETATM   11  C10 UNL     1      16.391  16.067  31.453  1.00  0.00     0.039 C 
HETATM   12  C11 UNL     1      14.897  16.295  31.301  1.00  0.00     0.030 C 
HETATM   13  C12 UNL     1      14.736  17.264  30.138  1.00  0.00     0.129 C 
HETATM   14  N4  UNL     1      15.410  18.489  30.538  1.00  0.00    -0.328 N 
HETATM   15  C13 UNL     1      15.256  19.642  29.693  1.00  0.00     0.363 C 
HETATM   16  C18 UNL     1      16.188  18.504  31.737  1.00  0.00     0.129 C 
HETATM   17  O2  UNL     1      14.563  19.593  28.646  1.00  0.00    -0.238 OA
HETATM   18  C19 UNL     1      17.148  17.333  31.692  1.00  0.00     0.030 C 
BRANCH  15  19
HETATM   19  O3  UNL     1      15.867  20.823  30.019  1.00  0.00    -0.294 OA
BRANCH  19  20
HETATM   20  C14 UNL     1      15.226  21.978  30.480  1.00  0.00     0.061 C 
HETATM   21  C15 UNL     1      16.248  22.750  31.312  1.00  0.00     0.046 C 
HETATM   22  C16 UNL     1      14.074  21.582  31.348  1.00  0.00     0.046 C 
HETATM   23  C17 UNL     1      14.798  22.894  29.355  1.00  0.00     0.046 C 
ENDBRANCH  19  20
ENDBRANCH  15  19
ENDBRANCH   6  11
BRANCH   8  24
HETATM   24  N5  UNL     1      15.201  14.465  35.846  1.00  0.00    -0.348 N 
ATOM     25  H5  UNL     1      15.524  15.019  36.639  1.00  0.00     0.163 HD
BRANCH  24  26
HETATM   26  C22 UNL     1      13.957  13.777  35.938  1.00  0.00     0.285 C 
HETATM   27  C23 UNL     1      13.351  14.088  37.311  1.00  0.00     0.054 C 
HETATM   28  C24 UNL     1      11.900  13.665  37.338  1.00  0.00     0.005 C 
HETATM   29  C25 UNL     1      11.789  12.454  36.418  1.00  0.00     0.028 C 
HETATM   30  C26 UNL     1      13.061  11.654  36.516  1.00  0.00     0.235 C 
HETATM   31  N6  UNL     1      14.124  12.330  35.803  1.00  0.00    -0.054 N 
ATOM     32  H62 UNL     1      14.181  12.038  34.827  1.00  0.00     0.279 HD
ATOM     33  H61 UNL     1      15.048  12.018  36.101  1.00  0.00     0.279 HD
ENDBRANCH  24  26
ENDBRANCH   8  24
BRANCH   1  34
HETATM   34  C7  UNL     1      18.868  11.539  34.583  1.00  0.00     0.138 C 
BRANCH  34  35
HETATM   35  C6  UNL     1      18.781  10.093  34.131  1.00  0.00     0.022 C 
BRANCH  35  36
HETATM   36  C5  UNL     1      18.025   9.281  35.182  1.00  0.00     0.021 C 
BRANCH  36  37
HETATM   37  C4  UNL     1      16.668   9.886  35.404  1.00  0.00     0.122 C 
BRANCH  37  38
HETATM   38  N1  UNL     1      15.894   9.048  36.279  1.00  0.00    -0.361 N 
HETATM   39  C3  UNL     1      14.800   8.241  35.885  1.00  0.00     0.217 C 
HETATM   40  O1  UNL     1      14.438   8.216  34.691  1.00  0.00    -0.274 OA
ATOM     41  H1  UNL     1      16.155   9.033  37.265  1.00  0.00     0.162 HD
BRANCH  39  42
HETATM   42  C2  UNL     1      14.074   7.420  36.876  1.00  0.00     0.098 C 
HETATM   43  C1  UNL     1      14.313   7.978  38.261  1.00  0.00     0.014 C 
ENDBRANCH  39  42
ENDBRANCH  37  38
ENDBRANCH  36  37
ENDBRANCH  35  36
ENDBRANCH  34  35
ENDBRANCH   1  34
TORSDOF 11
ENDMDL
MODEL 3
REMARK VINA RESULT: -8.346501402      2.084      4.492
REMARK  11 active torsions:
REMARK  status: ('A' for Active; 'I' for Inactive)
REMARK    1  A    between atoms: C2_2  and  C3_3 
REMARK       I    between atoms: C3_3  and  N1_5 
REMARK    2  A    between atoms: N1_5  and  C4_7 
REMARK    3  A    between atoms: C4_7  and  C5_8 
REMARK    4  A    between atoms: C5_8  and  C6_9 
REMARK    5  A    between atoms: C6_9  and  C7_10 
REMARK    6  A    between atoms: C7_10  and  N2_11 
REMARK    7  A    between atoms: C9_16  and  C10_17 
REMARK       I    between atoms: N4_20  and  C13_21 
REMARK    8  A    between atoms: C13_21  and  O3_23 
REMARK    9  A    between atoms: O3_23  and  C14_24 
REMARK   10  A    between atoms: C21_31  and  N5_32 
REMARK   11  A    between atoms: N5_32  and  C22_34 
ROOT
HETATM    1  N2  UNL     1      13.405  17.838  33.632  1.00  0.00    -0.226 N 
ATOM      2  H2  UNL     1      12.438  17.846  33.954  1.00  0.00     0.177 HD
HETATM    3  C8  UNL     1      14.182  16.932  34.068  1.00  0.00     0.679 A 
HETATM    4  N3  UNL     1      13.709  15.998  34.948  1.00  0.00    -0.195 N 
ATOM      5  H3  UNL     1      12.735  16.035  35.248  1.00  0.00     0.184 HD
HETATM    6  C9  UNL     1      14.511  15.034  35.419  1.00  0.00     0.034 A 
HETATM    7  C20 UNL     1      15.831  14.963  35.028  1.00  0.00     0.074 A 
HETATM    8  C21 UNL     1      16.322  15.896  34.145  1.00  0.00     0.120 A 
HETATM    9  N7  UNL     1      15.451  16.848  33.705  1.00  0.00    -0.177 N 
ATOM     10  H7  UNL     1      15.803  17.545  33.050  1.00  0.00     0.185 HD
ENDROOT
BRANCH   6  11
HETATM   11  C10 UNL     1      13.937  14.040  36.383  1.00  0.00     0.039 C 
HETATM   12  C11 UNL     1      12.434  14.071  36.174  1.00  0.00     0.030 C 
HETATM   13  C12 UNL     1      11.856  13.028  37.120  1.00  0.00     0.129 C 
HETATM   14  N4  UNL     1      12.412  11.752  36.700  1.00  0.00    -0.328 N 
HETATM   15  C13 UNL     1      11.889  10.561  37.315  1.00  0.00     0.363 C 
HETATM   16  C18 UNL     1      13.441  11.724  35.709  1.00  0.00     0.129 C 
HETATM   17  O2  UNL     1      10.983  10.623  38.184  1.00  0.00    -0.238 OA
HETATM   18  C19 UNL     1      14.529  12.690  36.130  1.00  0.00     0.030 C 
BRANCH  15  19
HETATM   19  O3  UNL     1      12.373   9.331  36.961  1.00  0.00    -0.294 OA
BRANCH  19  20
HETATM   20  C14 UNL     1      13.335   8.595  37.662  1.00  0.00     0.061 C 
HETATM   21  C15 UNL     1      14.300   8.027  36.624  1.00  0.00     0.046 C 
HETATM   22  C16 UNL     1      12.659   7.472  38.382  1.00  0.00     0.046 C 
HETATM   23  C17 UNL     1      14.156   9.455  38.597  1.00  0.00     0.046 C 
ENDBRANCH  19  20
ENDBRANCH  15  19
ENDBRANCH   6  11
BRANCH   8  24
HETATM   24  N5  UNL     1      17.537  15.879  33.748  1.00  0.00    -0.348 N 
ATOM     25  H5  UNL     1      18.249  15.456  34.343  1.00  0.00     0.163 HD
BRANCH  24  26
HETATM   26  C22 UNL     1      17.920  16.439  32.495  1.00  0.00     0.285 C 
HETATM   27  C23 UNL     1      18.857  15.443  31.804  1.00  0.00     0.054 C 
HETATM   28  C24 UNL     1      19.027  15.823  30.351  1.00  0.00     0.005 C 
HETATM   29  C25 UNL     1      18.921  17.344  30.290  1.00  0.00     0.028 C 
HETATM   30  C26 UNL     1      19.516  17.920  31.547  1.00  0.00     0.235 C 
HETATM   31  N6  UNL     1      18.612  17.717  32.659  1.00  0.00    -0.054 N 
ATOM     32  H62 UNL     1      17.964  18.495  32.777  1.00  0.00     0.279 HD
ATOM     33  H61 UNL     1      19.086  17.787  33.560  1.00  0.00     0.279 HD
ENDBRANCH  24  26
ENDBRANCH   8  24
BRANCH   1  34
HETATM   34  C7  UNL     1      13.823  18.838  32.721  1.00  0.00     0.138 C 
BRANCH  34  35
HETATM   35  C6  UNL     1      12.845  19.055  31.581  1.00  0.00     0.022 C 
BRANCH  35  36
HETATM   36  C5  UNL     1      13.613  19.093  30.260  1.00  0.00     0.021 C 
BRANCH  36  37
HETATM   37  C4  UNL     1      15.057  18.763  30.507  1.00  0.00     0.122 C 
BRANCH  37  38
HETATM   38  N1  UNL     1      15.454  17.651  29.687  1.00  0.00    -0.361 N 
HETATM   39  C3  UNL     1      15.172  16.291  29.957  1.00  0.00     0.217 C 
HETATM   40  O1  UNL     1      14.524  15.976  30.977  1.00  0.00    -0.274 OA
ATOM     41  H1  UNL     1      15.983  17.860  28.840  1.00  0.00     0.162 HD
BRANCH  39  42
HETATM   42  C2  UNL     1      15.635  15.230  29.040  1.00  0.00     0.098 C 
HETATM   43  C1  UNL     1      15.764  13.930  29.801  1.00  0.00     0.014 C 
ENDBRANCH  39  42
ENDBRANCH  37  38
ENDBRANCH  36  37
ENDBRANCH  35  36
ENDBRANCH  34  35
ENDBRANCH   1  34
TORSDOF 11
ENDMDL
MODEL 4
REMARK VINA RESULT: -8.193681888      2.596      4.400
REMARK  11 active torsions:
REMARK  status: ('A' for Active; 'I' for Inactive)
REMARK    1  A    between atoms: C2_2  and  C3_3 
REMARK       I    between atoms: C3_3  and  N1_5 
REMARK    2  A    between atoms: N1_5  and  C4_7 
REMARK    3  A    between atoms: C4_7  and  C5_8 
REMARK    4  A    between atoms: C5_8  and  C6_9 
REMARK    5  A    between atoms: C6_9  and  C7_10 
REMARK    6  A    between atoms: C7_10  and  N2_11 
REMARK    7  A    between atoms: C9_16  and  C10_17 
REMARK       I    between atoms: N4_20  and  C13_21 
REMARK    8  A    between atoms: C13_21  and  O3_23 
REMARK    9  A    between atoms: O3_23  and  C14_24 
REMARK   10  A    between atoms: C21_31  and  N5_32 
REMARK   11  A    between atoms: N5_32  and  C22_34 
ROOT
HETATM    1  N2  UNL     1      16.970  12.920  34.710  1.00  0.00    -0.226 N 
ATOM      2  H2  UNL     1      16.885  11.993  35.127  1.00  0.00     0.177 HD
HETATM    3  C8  UNL     1      16.047  13.767  34.921  1.00  0.00     0.679 A 
HETATM    4  N3  UNL     1      14.973  13.423  35.694  1.00  0.00    -0.195 N 
ATOM      5  H3  UNL     1      14.919  12.487  36.096  1.00  0.00     0.184 HD
HETATM    6  C9  UNL     1      13.989  14.301  35.929  1.00  0.00     0.034 A 
HETATM    7  C20 UNL     1      14.039  15.572  35.396  1.00  0.00     0.074 A 
HETATM    8  C21 UNL     1      15.113  15.934  34.618  1.00  0.00     0.120 A 
HETATM    9  N7  UNL     1      16.077  14.991  34.420  1.00  0.00    -0.177 N 
ATOM     10  H7  UNL     1      16.879  15.247  33.844  1.00  0.00     0.185 HD
ENDROOT
BRANCH   6  11
HETATM   11  C10 UNL     1      12.835  13.866  36.780  1.00  0.00     0.039 C 
HETATM   12  C11 UNL     1      12.576  12.413  36.426  1.00  0.00     0.030 C 
HETATM   13  C12 UNL     1      11.434  11.958  37.324  1.00  0.00     0.129 C 
HETATM   14  N4  UNL     1      11.921  12.081  38.688  1.00  0.00    -0.328 N 
HETATM   15  C13 UNL     1      11.101  11.544  39.741  1.00  0.00     0.363 C 
HETATM   16  C18 UNL     1      13.176  12.721  38.933  1.00  0.00     0.129 C 
HETATM   17  O2  UNL     1      10.003  10.988  39.489  1.00  0.00    -0.238 OA
HETATM   18  C19 UNL     1      13.170  14.059  38.224  1.00  0.00     0.030 C 
BRANCH  15  19
HETATM   19  O3  UNL     1      11.507  11.630  41.045  1.00  0.00    -0.294 OA
BRANCH  19  20
HETATM   20  C14 UNL     1      11.235  12.688  41.920  1.00  0.00     0.061 C 
HETATM   21  C15 UNL     1      12.582  13.204  42.422  1.00  0.00     0.046 C 
HETATM   22  C16 UNL     1      10.437  12.171  43.075  1.00  0.00     0.046 C 
HETATM   23  C17 UNL     1      10.551  13.849  41.233  1.00  0.00     0.046 C 
ENDBRANCH  19  20
ENDBRANCH  15  19
ENDBRANCH   6  11
BRANCH   8  24
HETATM   24  N5  UNL     1      15.211  17.098  34.099  1.00  0.00    -0.348 N 
ATOM     25  H5  UNL     1      15.908  17.747  34.462  1.00  0.00     0.163 HD
BRANCH  24  26
HETATM   26  C22 UNL     1      14.370  17.508  33.025  1.00  0.00     0.285 C 
HETATM   27  C23 UNL     1      15.002  17.014  31.719  1.00  0.00     0.054 C 
HETATM   28  C24 UNL     1      14.002  17.125  30.591  1.00  0.00     0.005 C 
HETATM   29  C25 UNL     1      13.125  18.331  30.914  1.00  0.00     0.028 C 
HETATM   30  C26 UNL     1      13.968  19.370  31.605  1.00  0.00     0.235 C 
HETATM   31  N6  UNL     1      14.230  18.964  32.970  1.00  0.00    -0.054 N 
ATOM     32  H62 UNL     1      13.522  19.308  33.618  1.00  0.00     0.279 HD
ATOM     33  H61 UNL     1      15.037  19.445  33.367  1.00  0.00     0.279 HD
ENDBRANCH  24  26
ENDBRANCH   8  24
BRANCH   1  34
HETATM   34  C7  UNL     1      18.112  13.204  33.923  1.00  0.00     0.138 C 
BRANCH  34  35
HETATM   35  C6  UNL     1      17.935  12.845  32.460  1.00  0.00     0.022 C 
BRANCH  35  36
HETATM   36  C5  UNL     1      17.930  14.124  31.624  1.00  0.00     0.021 C 
BRANCH  36  37
HETATM   37  C4  UNL     1      19.199  14.889  31.867  1.00  0.00     0.122 C 
BRANCH  37  38
HETATM   38  N1  UNL     1      19.028  16.262  31.476  1.00  0.00    -0.361 N 
HETATM   39  C3  UNL     1      18.565  17.302  32.316  1.00  0.00     0.217 C 
HETATM   40  O1  UNL     1      18.269  17.062  33.505  1.00  0.00    -0.274 OA
ATOM     41  H1  UNL     1      19.260  16.506  30.513  1.00  0.00     0.162 HD
BRANCH  39  42
HETATM   42  C2  UNL     1      18.426  18.680  31.802  1.00  0.00     0.098 C 
HETATM   43  C1  UNL     1      17.806  19.554  32.868  1.00  0.00     0.014 C 
ENDBRANCH  39  42
ENDBRANCH  37  38
ENDBRANCH  36  37
ENDBRANCH  35  36
ENDBRANCH  34  35
ENDBRANCH   1  34
TORSDOF 11
ENDMDL
MODEL 5
REMARK VINA RESULT: -8.149187192      2.830      5.145
REMARK  11 active torsions:
REMARK  status: ('A' for Active; 'I' for Inactive)
REMARK    1  A    between atoms: C2_2  and  C3_3 
REMARK       I    between atoms: C3_3  and  N1_5 
REMARK    2  A    between atoms: N1_5  and  C4_7 
REMARK    3  A    between atoms: C4_7  and  C5_8 
REMARK    4  A    between atoms: C5_8  and  C6_9 
REMARK    5  A    between atoms: C6_9  and  C7_10 
REMARK    6  A    between atoms: C7_10  and  N2_11 
REMARK    7  A    between atoms: C9_16  and  C10_17 
REMARK       I    between atoms: N4_20  and  C13_21 
REMARK    8  A    between atoms: C13_21  and  O3_23 
REMARK    9  A    between atoms: O3_23  and  C14_24 
REMARK   10  A    between atoms: C21_31  and  N5_32 
REMARK   11  A    between atoms: N5_32  and  C22_34 
ROOT
HETATM    1  N2  UNL     1      16.780  12.627  34.861  1.00  0.00    -0.226 N 
ATOM      2  H2  UNL     1      16.651  11.725  35.317  1.00  0.00     0.177 HD
HETATM    3  C8  UNL     1      15.907  13.532  35.047  1.00  0.00     0.679 A 
HETATM    4  N3  UNL     1      14.827  13.279  35.847  1.00  0.00    -0.195 N 
ATOM      5  H3  UNL     1      14.729  12.365  36.288  1.00  0.00     0.184 HD
HETATM    6  C9  UNL     1      13.896  14.219  36.056  1.00  0.00     0.034 A 
HETATM    7  C20 UNL     1      14.006  15.462  35.470  1.00  0.00     0.074 A 
HETATM    8  C21 UNL     1      15.087  15.732  34.664  1.00  0.00     0.120 A 
HETATM    9  N7  UNL     1      15.996  14.731  34.494  1.00  0.00    -0.177 N 
ATOM     10  H7  UNL     1      16.802  14.918  33.898  1.00  0.00     0.185 HD
ENDROOT
BRANCH   6  11
HETATM   11  C10 UNL     1      12.733  13.883  36.940  1.00  0.00     0.039 C 
HETATM   12  C11 UNL     1      12.274  12.498  36.522  1.00  0.00     0.030 C 
HETATM   13  C12 UNL     1      11.122  12.139  37.450  1.00  0.00     0.129 C 
HETATM   14  N4  UNL     1      11.678  12.119  38.793  1.00  0.00    -0.328 N 
HETATM   15  C13 UNL     1      10.841  11.628  39.855  1.00  0.00     0.363 C 
HETATM   16  C18 UNL     1      13.014  12.580  39.009  1.00  0.00     0.129 C 
HETATM   17  O2  UNL     1       9.671  11.231  39.629  1.00  0.00    -0.238 OA
HETATM   18  C19 UNL     1      13.150  13.948  38.374  1.00  0.00     0.030 C 
BRANCH  15  19
HETATM   19  O3  UNL     1      11.310  11.586  41.140  1.00  0.00    -0.294 OA
BRANCH  19  20
HETATM   20  C14 UNL     1      11.221  12.619  42.080  1.00  0.00     0.061 C 
HETATM   21  C15 UNL     1      12.647  12.940  42.521  1.00  0.00     0.046 C 
HETATM   22  C16 UNL     1      10.430  12.141  43.256  1.00  0.00     0.046 C 
HETATM   23  C17 UNL     1      10.649  13.890  41.493  1.00  0.00     0.046 C 
ENDBRANCH  19  20
ENDBRANCH  15  19
ENDBRANCH   6  11
BRANCH   8  24
HETATM   24  N5  UNL     1      15.241  16.866  34.094  1.00  0.00    -0.348 N 
ATOM     25  H5  UNL     1      15.980  17.490  34.419  1.00  0.00     0.163 HD
BRANCH  24  26
HETATM   26  C22 UNL     1      14.404  17.280  33.019  1.00  0.00     0.285 C 
HETATM   27  C23 UNL     1      15.110  16.916  31.709  1.00  0.00     0.054 C 
HETATM   28  C24 UNL     1      14.139  17.024  30.555  1.00  0.00     0.005 C 
HETATM   29  C25 UNL     1      13.163  18.139  30.919  1.00  0.00     0.028 C 
HETATM   30  C26 UNL     1      13.903  19.192  31.701  1.00  0.00     0.235 C 
HETATM   31  N6  UNL     1      14.154  18.721  33.047  1.00  0.00    -0.054 N 
ATOM     32  H62 UNL     1      13.403  18.971  33.690  1.00  0.00     0.279 HD
ATOM     33  H61 UNL     1      14.909  19.235  33.500  1.00  0.00     0.279 HD
ENDBRANCH  24  26
ENDBRANCH   8  24
BRANCH   1  34
HETATM   34  C7  UNL     1      17.923  12.816  34.048  1.00  0.00     0.138 C 
BRANCH  34  35
HETATM   35  C6  UNL     1      19.061  11.871  34.386  1.00  0.00     0.022 C 
BRANCH  35  36
HETATM   36  C5  UNL     1      18.632  10.436  34.081  1.00  0.00     0.021 C 
BRANCH  36  37
HETATM   37  C4  UNL     1      18.410   9.694  35.367  1.00  0.00     0.122 C 
BRANCH  37  38
HETATM   38  N1  UNL     1      17.260   8.838  35.248  1.00  0.00    -0.361 N 
HETATM   39  C3  UNL     1      15.943   9.176  35.642  1.00  0.00     0.217 C 
HETATM   40  O1  UNL     1      15.705  10.297  36.136  1.00  0.00    -0.274 OA
ATOM     41  H1  UNL     1      17.405   7.912  34.847  1.00  0.00     0.162 HD
BRANCH  39  42
HETATM   42  C2  UNL     1      14.837   8.211  35.474  1.00  0.00     0.098 C 
HETATM   43  C1  UNL     1      13.523   8.957  35.430  1.00  0.00     0.014 C 
ENDBRANCH  39  42
ENDBRANCH  37  38
ENDBRANCH  36  37
ENDBRANCH  35  36
ENDBRANCH  34  35
ENDBRANCH   1  34
TORSDOF 11
ENDMDL
