MODEL 1
REMARK VINA RESULT: -10.305423715      0.000      0.000
REMARK  11 active torsions:
REMARK  status: ('A' for Active; 'I' for Inactive)
REMARK    1  A    between atoms: C2_2  and  C4_4 
REMARK    2  A    between atoms: C4_4  and  C5_5 
REMARK    3  A    between atoms: C5_5  and  C6_6 
REMARK    4  A    between atoms: C5_5  and  C26_30 
REMARK    5  A    between atoms: C6_6  and  C7_7 
REMARK    6  A    between atoms: C7_7  and  C8_8 
REMARK    7  A    between atoms: C8_8  and  C10_10 
REMARK    8  A    between atoms: C15_15  and  O1_16 
REMARK    9  A    between atoms: C18_20  and  O2_21 
REMARK   10  A    between atoms: C26_30  and  O4_32 
REMARK   11  A    between atoms: O4_32  and  S1_33 
ROOT
HETATM    1  C10 UNL     1      15.993  18.022  32.262  1.00  0.00    -0.002 C 
HETATM    2  C11 UNL     1      14.681  18.455  32.937  1.00  0.00     0.006 C 
HETATM    3  C12 UNL     1      14.281  17.252  33.830  1.00  0.00     0.006 C 
HETATM    4  C13 UNL     1      15.637  16.856  34.214  1.00  0.00     0.001 C 
HETATM    5  C14 UNL     1      15.990  15.699  34.995  1.00  0.00     0.024 C 
HETATM    6  C15 UNL     1      14.927  14.713  35.306  1.00  0.00     0.123 C 
HETATM    7  C16 UNL     1      15.235  13.276  35.148  1.00  0.00     0.039 C 
HETATM    8  C17 UNL     1      16.695  12.986  35.116  1.00  0.00     0.021 C 
HETATM    9  C18 UNL     1      17.041  11.590  34.719  1.00  0.00     0.122 C 
HETATM   10  C19 UNL     1      18.480  11.735  34.232  1.00  0.00     0.032 C 
HETATM   11  C20 UNL     1      18.641  13.199  33.843  1.00  0.00     0.008 C 
HETATM   12  C21 UNL     1      17.223  13.777  33.909  1.00  0.00    -0.003 C 
HETATM   13  C22 UNL     1      17.234  15.201  34.318  1.00  0.00    -0.002 C 
HETATM   14  C23 UNL     1      17.526  16.158  33.145  1.00  0.00     0.015 C 
HETATM   15  C24 UNL     1      16.239  16.708  32.801  1.00  0.00    -0.036 C 
HETATM   16  C25 UNL     1      15.478  15.682  31.991  1.00  0.00     0.016 C 
ENDROOT
BRANCH   1  17
HETATM   17  C8  UNL     1      17.005  19.082  32.201  1.00  0.00    -0.014 C 
HETATM   18  C9  UNL     1      17.154  20.060  33.284  1.00  0.00     0.010 C 
BRANCH  17  19
HETATM   19  C7  UNL     1      16.701  19.878  30.922  1.00  0.00     0.005 C 
BRANCH  19  20
HETATM   20  C6  UNL     1      15.947  21.140  31.172  1.00  0.00     0.015 C 
BRANCH  20  21
HETATM   21  C5  UNL     1      14.778  21.114  30.174  1.00  0.00     0.087 C 
BRANCH  21  22
HETATM   22  C4  UNL     1      15.053  20.151  29.048  1.00  0.00     0.018 C 
BRANCH  22  23
HETATM   23  C2  UNL     1      13.854  19.226  28.966  1.00  0.00    -0.022 C 
HETATM   24  C1  UNL     1      14.300  17.788  29.142  1.00  0.00     0.009 C 
HETATM   25  C3  UNL     1      12.850  19.572  30.055  1.00  0.00     0.009 C 
ENDBRANCH  22  23
ENDBRANCH  21  22
BRANCH  21  26
HETATM   26  C26 UNL     1      14.508  22.476  29.677  1.00  0.00     0.280 C 
HETATM   27  O3  UNL     1      14.722  23.445  30.445  1.00  0.00    -0.264 OA
BRANCH  26  28
HETATM   28  O4  UNL     1      14.030  22.749  28.407  1.00  0.00    -0.177 OA
BRANCH  28  29
HETATM   29  S1  UNL     1      15.038  23.234  27.131  1.00  0.00     0.259 S 
HETATM   30  O5  UNL     1      16.455  23.457  27.578  1.00  0.00    -0.572 OA
HETATM   31  O6  UNL     1      15.046  22.139  26.102  1.00  0.00    -0.572 OA
HETATM   32  O7  UNL     1      14.501  24.640  26.401  1.00  0.00    -0.572 OA
ENDBRANCH  28  29
ENDBRANCH  26  28
ENDBRANCH  21  26
ENDBRANCH  20  21
ENDBRANCH  19  20
ENDBRANCH  17  19
ENDBRANCH   1  17
BRANCH   6  33
HETATM   33  O1  UNL     1      14.456  14.846  36.646  1.00  0.00    -0.395 OA
ATOM     34  H1  UNL     1      13.796  14.195  36.855  1.00  0.00     0.210 HD
ENDBRANCH   6  33
BRANCH   9  35
HETATM   35  O2  UNL     1      16.917  10.659  35.726  1.00  0.00    -0.395 OA
ATOM     36  H2  UNL     1      16.305   9.957  35.544  1.00  0.00     0.210 HD
ENDBRANCH   9  35
TORSDOF 11
ENDMDL
MODEL 2
REMARK VINA RESULT: -9.771115131      0.974      1.749
REMARK  11 active torsions:
REMARK  status: ('A' for Active; 'I' for Inactive)
REMARK    1  A    between atoms: C2_2  and  C4_4 
REMARK    2  A    between atoms: C4_4  and  C5_5 
REMARK    3  A    between atoms: C5_5  and  C6_6 
REMARK    4  A    between atoms: C5_5  and  C26_30 
REMARK    5  A    between atoms: C6_6  and  C7_7 
REMARK    6  A    between atoms: C7_7  and  C8_8 
REMARK    7  A    between atoms: C8_8  and  C10_10 
REMARK    8  A    between atoms: C15_15  and  O1_16 
REMARK    9  A    between atoms: C18_20  and  O2_21 
REMARK   10  A    between atoms: C26_30  and  O4_32 
REMARK   11  A    between atoms: O4_32  and  S1_33 
ROOT
HETATM    1  C10 UNL     1      16.036  17.879  32.402  1.00  0.00    -0.002 C 
HETATM    2  C11 UNL     1      14.797  18.381  33.163  1.00  0.00     0.006 C 
HETATM    3  C12 UNL     1      14.395  17.199  34.084  1.00  0.00     0.006 C 
HETATM    4  C13 UNL     1      15.751  16.731  34.376  1.00  0.00     0.001 C 
HETATM    5  C14 UNL     1      16.094  15.555  35.135  1.00  0.00     0.024 C 
HETATM    6  C15 UNL     1      15.003  14.628  35.518  1.00  0.00     0.123 C 
HETATM    7  C16 UNL     1      15.224  13.176  35.343  1.00  0.00     0.039 C 
HETATM    8  C17 UNL     1      16.660  12.809  35.213  1.00  0.00     0.021 C 
HETATM    9  C18 UNL     1      16.904  11.397  34.797  1.00  0.00     0.122 C 
HETATM   10  C19 UNL     1      18.312  11.466  34.214  1.00  0.00     0.032 C 
HETATM   11  C20 UNL     1      18.525  12.920  33.812  1.00  0.00     0.008 C 
HETATM   12  C21 UNL     1      17.146  13.572  33.971  1.00  0.00    -0.003 C 
HETATM   13  C22 UNL     1      17.261  14.993  34.376  1.00  0.00    -0.002 C 
HETATM   14  C23 UNL     1      17.524  15.935  33.184  1.00  0.00     0.015 C 
HETATM   15  C24 UNL     1      16.247  16.553  32.926  1.00  0.00    -0.036 C 
HETATM   16  C25 UNL     1      15.380  15.571  32.171  1.00  0.00     0.016 C 
ENDROOT
BRANCH   1  17
HETATM   17  C8  UNL     1      17.097  18.883  32.270  1.00  0.00    -0.014 C 
HETATM   18  C9  UNL     1      17.222  19.992  33.223  1.00  0.00     0.010 C 
BRANCH  17  19
HETATM   19  C7  UNL     1      16.908  19.512  30.880  1.00  0.00     0.005 C 
BRANCH  19  20
HETATM   20  C6  UNL     1      15.864  18.834  30.059  1.00  0.00     0.015 C 
BRANCH  20  21
HETATM   21  C5  UNL     1      14.813  19.919  29.770  1.00  0.00     0.087 C 
BRANCH  21  22
HETATM   22  C4  UNL     1      13.469  19.529  30.331  1.00  0.00     0.018 C 
BRANCH  22  23
HETATM   23  C2  UNL     1      12.878  20.781  30.948  1.00  0.00    -0.022 C 
HETATM   24  C1  UNL     1      11.947  20.406  32.085  1.00  0.00     0.009 C 
HETATM   25  C3  UNL     1      13.985  21.675  31.486  1.00  0.00     0.009 C 
ENDBRANCH  22  23
ENDBRANCH  21  22
BRANCH  21  26
HETATM   26  C26 UNL     1      14.746  20.184  28.322  1.00  0.00     0.280 C 
HETATM   27  O3  UNL     1      13.793  19.695  27.668  1.00  0.00    -0.264 OA
BRANCH  26  28
HETATM   28  O4  UNL     1      15.677  20.946  27.637  1.00  0.00    -0.177 OA
BRANCH  28  29
HETATM   29  S1  UNL     1      15.380  22.546  27.155  1.00  0.00     0.259 S 
HETATM   30  O5  UNL     1      14.121  23.098  27.760  1.00  0.00    -0.572 OA
HETATM   31  O6  UNL     1      16.528  23.394  27.624  1.00  0.00    -0.572 OA
HETATM   32  O7  UNL     1      15.261  22.692  25.492  1.00  0.00    -0.572 OA
ENDBRANCH  28  29
ENDBRANCH  26  28
ENDBRANCH  21  26
ENDBRANCH  20  21
ENDBRANCH  19  20
ENDBRANCH  17  19
ENDBRANCH   1  17
BRANCH   6  33
HETATM   33  O1  UNL     1      14.632  14.784  36.887  1.00  0.00    -0.395 OA
ATOM     34  H1  UNL     1      14.148  14.032  37.210  1.00  0.00     0.210 HD
ENDBRANCH   6  33
BRANCH   9  35
HETATM   35  O2  UNL     1      16.799  10.473  35.812  1.00  0.00    -0.395 OA
ATOM     36  H2  UNL     1      16.363   9.665  35.569  1.00  0.00     0.210 HD
ENDBRANCH   9  35
TORSDOF 11
ENDMDL
MODEL 3
REMARK VINA RESULT: -9.448287411      0.930      1.245
REMARK  11 active torsions:
REMARK  status: ('A' for Active; 'I' for Inactive)
REMARK    1  A    between atoms: C2_2  and  C4_4 
REMARK    2  A    between atoms: C4_4  and  C5_5 
REMARK    3  A    between atoms: C5_5  and  C6_6 
REMARK    4  A    between atoms: C5_5  and  C26_30 
REMARK    5  A    between atoms: C6_6  and  C7_7 
REMARK    6  A    between atoms: C7_7  and  C8_8 
REMARK    7  A    between atoms: C8_8  and  C10_10 
REMARK    8  A    between atoms: C15_15  and  O1_16 
REMARK    9  A    between atoms: C18_20  and  O2_21 
REMARK   10  A    between atoms: C26_30  and  O4_32 
REMARK   11  A    between atoms: O4_32  and  S1_33 
ROOT
HETATM    1  C10 UNL     1      16.001  17.702  32.756  1.00  0.00    -0.002 C 
HETATM    2  C11 UNL     1      14.689  18.121  33.439  1.00  0.00     0.006 C 
HETATM    3  C12 UNL     1      14.260  16.880  34.265  1.00  0.00     0.006 C 
HETATM    4  C13 UNL     1      15.606  16.443  34.641  1.00  0.00     0.001 C 
HETATM    5  C14 UNL     1      15.932  15.241  35.365  1.00  0.00     0.024 C 
HETATM    6  C15 UNL     1      14.850  14.259  35.614  1.00  0.00     0.123 C 
HETATM    7  C16 UNL     1      15.138  12.826  35.385  1.00  0.00     0.039 C 
HETATM    8  C17 UNL     1      16.592  12.515  35.351  1.00  0.00     0.021 C 
HETATM    9  C18 UNL     1      16.920  11.136  34.887  1.00  0.00     0.122 C 
HETATM   10  C19 UNL     1      18.367  11.282  34.422  1.00  0.00     0.032 C 
HETATM   11  C20 UNL     1      18.555  12.761  34.111  1.00  0.00     0.008 C 
HETATM   12  C21 UNL     1      17.145  13.358  34.192  1.00  0.00    -0.003 C 
HETATM   13  C22 UNL     1      17.175  14.758  34.674  1.00  0.00    -0.002 C 
HETATM   14  C23 UNL     1      17.495  15.770  33.556  1.00  0.00     0.015 C 
HETATM   15  C24 UNL     1      16.220  16.358  33.228  1.00  0.00    -0.036 C 
HETATM   16  C25 UNL     1      15.452  15.388  32.358  1.00  0.00     0.016 C 
ENDROOT
BRANCH   1  17
HETATM   17  C8  UNL     1      17.031  18.747  32.759  1.00  0.00    -0.014 C 
HETATM   18  C9  UNL     1      16.970  19.876  33.693  1.00  0.00     0.010 C 
BRANCH  17  19
HETATM   19  C7  UNL     1      17.028  19.341  31.342  1.00  0.00     0.005 C 
BRANCH  19  20
HETATM   20  C6  UNL     1      15.991  20.393  31.140  1.00  0.00     0.015 C 
BRANCH  20  21
HETATM   21  C5  UNL     1      14.985  19.782  30.150  1.00  0.00     0.087 C 
BRANCH  21  22
HETATM   22  C4  UNL     1      15.603  18.631  29.398  1.00  0.00     0.018 C 
BRANCH  22  23
HETATM   23  C2  UNL     1      14.518  17.584  29.241  1.00  0.00    -0.022 C 
HETATM   24  C1  UNL     1      15.124  16.197  29.325  1.00  0.00     0.009 C 
HETATM   25  C3  UNL     1      13.476  17.739  30.338  1.00  0.00     0.009 C 
ENDBRANCH  22  23
ENDBRANCH  21  22
BRANCH  21  26
HETATM   26  C26 UNL     1      14.478  20.823  29.238  1.00  0.00     0.280 C 
HETATM   27  O3  UNL     1      13.281  21.184  29.350  1.00  0.00    -0.264 OA
BRANCH  26  28
HETATM   28  O4  UNL     1      15.248  21.429  28.261  1.00  0.00    -0.177 OA
BRANCH  28  29
HETATM   29  S1  UNL     1      15.341  23.114  28.077  1.00  0.00     0.259 S 
HETATM   30  O5  UNL     1      16.606  23.543  27.390  1.00  0.00    -0.572 OA
HETATM   31  O6  UNL     1      14.183  23.554  27.228  1.00  0.00    -0.572 OA
HETATM   32  O7  UNL     1      15.253  23.915  29.544  1.00  0.00    -0.572 OA
ENDBRANCH  28  29
ENDBRANCH  26  28
ENDBRANCH  21  26
ENDBRANCH  20  21
ENDBRANCH  19  20
ENDBRANCH  17  19
ENDBRANCH   1  17
BRANCH   6  33
HETATM   33  O1  UNL     1      14.367  14.330  36.955  1.00  0.00    -0.395 OA
ATOM     34  H1  UNL     1      15.060  14.179  37.588  1.00  0.00     0.210 HD
ENDBRANCH   6  33
BRANCH   9  35
HETATM   35  O2  UNL     1      16.771  10.156  35.843  1.00  0.00    -0.395 OA
ATOM     36  H2  UNL     1      15.871   9.946  36.058  1.00  0.00     0.210 HD
ENDBRANCH   9  35
TORSDOF 11
ENDMDL
MODEL 4
REMARK VINA RESULT: -9.352137021      2.167      3.672
REMARK  11 active torsions:
REMARK  status: ('A' for Active; 'I' for Inactive)
REMARK    1  A    between atoms: C2_2  and  C4_4 
REMARK    2  A    between atoms: C4_4  and  C5_5 
REMARK    3  A    between atoms: C5_5  and  C6_6 
REMARK    4  A    between atoms: C5_5  and  C26_30 
REMARK    5  A    between atoms: C6_6  and  C7_7 
REMARK    6  A    between atoms: C7_7  and  C8_8 
REMARK    7  A    between atoms: C8_8  and  C10_10 
REMARK    8  A    between atoms: C15_15  and  O1_16 
REMARK    9  A    between atoms: C18_20  and  O2_21 
REMARK   10  A    between atoms: C26_30  and  O4_32 
REMARK   11  A    between atoms: O4_32  and  S1_33 
ROOT
HETATM    1  C10 UNL     1      13.609  17.482  32.053  1.00  0.00    -0.002 C 
HETATM    2  C11 UNL     1      13.247  17.005  33.469  1.00  0.00     0.006 C 
HETATM    3  C12 UNL     1      14.495  16.221  33.952  1.00  0.00     0.006 C 
HETATM    4  C13 UNL     1      15.499  17.062  33.297  1.00  0.00     0.001 C 
HETATM    5  C14 UNL     1      16.918  16.816  33.269  1.00  0.00     0.024 C 
HETATM    6  C15 UNL     1      17.415  15.521  33.792  1.00  0.00     0.123 C 
HETATM    7  C16 UNL     1      18.436  14.794  33.007  1.00  0.00     0.039 C 
HETATM    8  C17 UNL     1      19.146  15.654  32.022  1.00  0.00     0.021 C 
HETATM    9  C18 UNL     1      20.004  14.910  31.055  1.00  0.00     0.122 C 
HETATM   10  C19 UNL     1      20.122  15.896  29.896  1.00  0.00     0.032 C 
HETATM   11  C20 UNL     1      18.917  16.819  30.011  1.00  0.00     0.008 C 
HETATM   12  C21 UNL     1      18.039  16.179  31.094  1.00  0.00    -0.003 C 
HETATM   13  C22 UNL     1      17.299  17.202  31.868  1.00  0.00    -0.002 C 
HETATM   14  C23 UNL     1      16.012  17.673  31.161  1.00  0.00     0.015 C 
HETATM   15  C24 UNL     1      14.949  16.990  31.857  1.00  0.00    -0.036 C 
HETATM   16  C25 UNL     1      14.894  15.560  31.367  1.00  0.00     0.016 C 
ENDROOT
BRANCH   1  17
HETATM   17  C8  UNL     1      13.195  18.859  31.768  1.00  0.00    -0.014 C 
HETATM   18  C9  UNL     1      12.083  19.488  32.489  1.00  0.00     0.010 C 
BRANCH  17  19
HETATM   19  C7  UNL     1      12.828  18.885  30.275  1.00  0.00     0.005 C 
BRANCH  19  20
HETATM   20  C6  UNL     1      12.891  20.247  29.671  1.00  0.00     0.015 C 
BRANCH  20  21
HETATM   21  C5  UNL     1      14.379  20.634  29.707  1.00  0.00     0.087 C 
BRANCH  21  22
HETATM   22  C4  UNL     1      14.672  21.535  30.878  1.00  0.00     0.018 C 
BRANCH  22  23
HETATM   23  C2  UNL     1      16.182  21.639  30.978  1.00  0.00    -0.022 C 
HETATM   24  C1  UNL     1      16.582  23.073  31.263  1.00  0.00     0.009 C 
HETATM   25  C3  UNL     1      16.696  20.746  32.097  1.00  0.00     0.009 C 
ENDBRANCH  22  23
ENDBRANCH  21  22
BRANCH  21  26
HETATM   26  C26 UNL     1      14.770  21.253  28.427  1.00  0.00     0.280 C 
HETATM   27  O3  UNL     1      15.549  20.623  27.671  1.00  0.00    -0.264 OA
BRANCH  26  28
HETATM   28  O4  UNL     1      14.326  22.495  28.008  1.00  0.00    -0.177 OA
BRANCH  28  29
HETATM   29  S1  UNL     1      15.093  23.379  26.779  1.00  0.00     0.259 S 
HETATM   30  O5  UNL     1      14.331  24.620  26.409  1.00  0.00    -0.572 OA
HETATM   31  O6  UNL     1      16.444  23.800  27.283  1.00  0.00    -0.572 OA
HETATM   32  O7  UNL     1      15.308  22.472  25.389  1.00  0.00    -0.572 OA
ENDBRANCH  28  29
ENDBRANCH  26  28
ENDBRANCH  21  26
ENDBRANCH  20  21
ENDBRANCH  19  20
ENDBRANCH  17  19
ENDBRANCH   1  17
BRANCH   6  33
HETATM   33  O1  UNL     1      17.977  15.657  35.096  1.00  0.00    -0.395 OA
ATOM     34  H1  UNL     1      17.318  15.876  35.744  1.00  0.00     0.210 HD
ENDBRANCH   6  33
BRANCH   9  35
HETATM   35  O2  UNL     1      21.231  14.530  31.550  1.00  0.00    -0.395 OA
ATOM     36  H2  UNL     1      21.312  13.603  31.740  1.00  0.00     0.210 HD
ENDBRANCH   9  35
TORSDOF 11
ENDMDL
MODEL 5
REMARK VINA RESULT: -9.207389856      1.950      3.437
REMARK  11 active torsions:
REMARK  status: ('A' for Active; 'I' for Inactive)
REMARK    1  A    between atoms: C2_2  and  C4_4 
REMARK    2  A    between atoms: C4_4  and  C5_5 
REMARK    3  A    between atoms: C5_5  and  C6_6 
REMARK    4  A    between atoms: C5_5  and  C26_30 
REMARK    5  A    between atoms: C6_6  and  C7_7 
REMARK    6  A    between atoms: C7_7  and  C8_8 
REMARK    7  A    between atoms: C8_8  and  C10_10 
REMARK    8  A    between atoms: C15_15  and  O1_16 
REMARK    9  A    between atoms: C18_20  and  O2_21 
REMARK   10  A    between atoms: C26_30  and  O4_32 
REMARK   11  A    between atoms: O4_32  and  S1_33 
ROOT
HETATM    1  C10 UNL     1      16.183  18.491  31.401  1.00  0.00    -0.002 C 
HETATM    2  C11 UNL     1      17.372  18.922  30.526  1.00  0.00     0.006 C 
HETATM    3  C12 UNL     1      18.462  17.849  30.785  1.00  0.00     0.006 C 
HETATM    4  C13 UNL     1      17.557  16.706  30.927  1.00  0.00     0.001 C 
HETATM    5  C14 UNL     1      17.941  15.365  31.286  1.00  0.00     0.024 C 
HETATM    6  C15 UNL     1      19.338  15.130  31.722  1.00  0.00     0.123 C 
HETATM    7  C16 UNL     1      19.567  14.284  32.913  1.00  0.00     0.039 C 
HETATM    8  C17 UNL     1      18.401  13.430  33.264  1.00  0.00     0.021 C 
HETATM    9  C18 UNL     1      18.506  12.750  34.588  1.00  0.00     0.122 C 
HETATM   10  C19 UNL     1      17.047  12.452  34.921  1.00  0.00     0.032 C 
HETATM   11  C20 UNL     1      16.225  13.448  34.112  1.00  0.00     0.008 C 
HETATM   12  C21 UNL     1      17.257  14.421  33.530  1.00  0.00    -0.003 C 
HETATM   13  C22 UNL     1      16.835  14.933  32.206  1.00  0.00    -0.002 C 
HETATM   14  C23 UNL     1      15.843  16.109  32.307  1.00  0.00     0.015 C 
HETATM   15  C24 UNL     1      16.642  17.278  32.030  1.00  0.00    -0.036 C 
HETATM   16  C25 UNL     1      17.435  17.623  33.270  1.00  0.00     0.016 C 
ENDROOT
BRANCH   1  17
HETATM   17  C8  UNL     1      14.881  18.625  30.740  1.00  0.00    -0.014 C 
HETATM   18  C9  UNL     1      13.896  17.539  30.766  1.00  0.00     0.010 C 
BRANCH  17  19
HETATM   19  C7  UNL     1      15.190  18.910  29.261  1.00  0.00     0.005 C 
BRANCH  19  20
HETATM   20  C6  UNL     1      14.250  19.883  28.634  1.00  0.00     0.015 C 
BRANCH  20  21
HETATM   21  C5  UNL     1      14.994  21.229  28.655  1.00  0.00     0.087 C 
BRANCH  21  22
HETATM   22  C4  UNL     1      14.154  22.298  29.307  1.00  0.00     0.018 C 
BRANCH  22  23
HETATM   23  C2  UNL     1      14.856  22.670  30.598  1.00  0.00    -0.022 C 
HETATM   24  C1  UNL     1      14.251  21.898  31.755  1.00  0.00     0.009 C 
HETATM   25  C3  UNL     1      16.338  22.345  30.504  1.00  0.00     0.009 C 
ENDBRANCH  22  23
ENDBRANCH  21  22
BRANCH  21  26
HETATM   26  C26 UNL     1      15.393  21.606  27.287  1.00  0.00     0.280 C 
HETATM   27  O3  UNL     1      16.431  21.090  26.804  1.00  0.00    -0.264 OA
BRANCH  26  28
HETATM   28  O4  UNL     1      14.688  22.499  26.499  1.00  0.00    -0.177 OA
BRANCH  28  29
HETATM   29  S1  UNL     1      15.230  24.078  26.191  1.00  0.00     0.259 S 
HETATM   30  O5  UNL     1      16.199  24.561  27.232  1.00  0.00    -0.572 OA
HETATM   31  O6  UNL     1      15.938  24.076  24.866  1.00  0.00    -0.572 OA
HETATM   32  O7  UNL     1      13.968  25.175  26.113  1.00  0.00    -0.572 OA
ENDBRANCH  28  29
ENDBRANCH  26  28
ENDBRANCH  21  26
ENDBRANCH  20  21
ENDBRANCH  19  20
ENDBRANCH  17  19
ENDBRANCH   1  17
BRANCH   6  33
HETATM   33  O1  UNL     1      20.122  14.535  30.689  1.00  0.00    -0.395 OA
ATOM     34  H1  UNL     1      20.240  13.602  30.828  1.00  0.00     0.210 HD
ENDBRANCH   6  33
BRANCH   9  35
HETATM   35  O2  UNL     1      19.288  11.617  34.591  1.00  0.00    -0.395 OA
ATOM     36  H2  UNL     1      18.979  10.924  35.162  1.00  0.00     0.210 HD
ENDBRANCH   9  35
TORSDOF 11
ENDMDL
