MODEL 1
REMARK VINA RESULT: -7.369434572      0.000      0.000
REMARK  6 active torsions:
REMARK  status: ('A' for Active; 'I' for Inactive)
REMARK    1  A    between atoms: C4_9  and  N4_10 
REMARK    2  A    between atoms: C5_15  and  C6_16 
REMARK    3  A    between atoms: C6_16  and  N6_17 
REMARK    4  A    between atoms: N6_17  and  C7_19 
REMARK    5  A    between atoms: C8_22  and  O1_23 
REMARK    6  A    between atoms: O1_23  and  C9_24 
ROOT
HETATM    1  C9  UNL     1      14.900  48.612 -55.755  1.00  0.00     0.302 C 
HETATM    2  C10 UNL     1      16.246  48.123 -56.009  1.00  0.00     0.085 C 
HETATM    3  N8  UNL     1      17.325  47.736 -56.214  1.00  0.00    -0.195 NA
ENDROOT
BRANCH   1   4
HETATM    4  O1  UNL     1      14.264  47.688 -54.896  1.00  0.00    -0.306 OA
BRANCH   4   5
HETATM    5  C8  UNL     1      13.803  48.071 -53.639  1.00  0.00     0.254 A 
HETATM    6  N7  UNL     1      14.405  47.873 -52.454  1.00  0.00    -0.152 N 
HETATM    7  C7  UNL     1      13.653  48.385 -51.467  1.00  0.00     0.696 A 
ATOM      8  H7  UNL     1      15.301  47.404 -52.324  1.00  0.00     0.188 HD
HETATM    9  N10 UNL     1      12.565  48.908 -52.073  1.00  0.00    -0.129 N 
HETATM   10  N9  UNL     1      12.661  48.715 -53.389  1.00  0.00    -0.250 N 
ATOM     11  H10 UNL     1      11.792  49.376 -51.599  1.00  0.00     0.205 HD
ATOM     12  H9  UNL     1      11.978  49.009 -54.087  1.00  0.00     0.191 HD
BRANCH   7  13
HETATM   13  N6  UNL     1      13.902  48.387 -50.193  1.00  0.00    -0.219 N 
ATOM     14  H6  UNL     1      13.841  47.520 -49.659  1.00  0.00     0.178 HD
BRANCH  13  15
HETATM   15  C6  UNL     1      14.274  49.650 -49.518  1.00  0.00     0.198 C 
BRANCH  15  16
HETATM   16  C5  UNL     1      13.154  50.209 -48.780  1.00  0.00     0.075 A 
HETATM   17  N5  UNL     1      12.681  49.594 -47.674  1.00  0.00    -0.192 N 
HETATM   18  C4  UNL     1      11.655  50.046 -46.938  1.00  0.00     0.677 A 
ATOM     19  H5  UNL     1      13.134  48.729 -47.379  1.00  0.00     0.184 HD
HETATM   20  N3  UNL     1      11.066  51.185 -47.336  1.00  0.00    -0.174 N 
HETATM   21  C3  UNL     1      11.460  51.874 -48.421  1.00  0.00     0.151 A 
ATOM     22  H3  UNL     1      10.283  51.544 -46.790  1.00  0.00     0.186 HD
HETATM   23  N2  UNL     1      11.071  52.999 -49.033  1.00  0.00    -0.336 N 
HETATM   24  C11 UNL     1      12.544  51.371 -49.175  1.00  0.00     0.105 A 
HETATM   25  C2  UNL     1      11.850  53.193 -50.092  1.00  0.00     0.184 A 
ATOM     26  H2  UNL     1      10.306  53.606 -48.736  1.00  0.00     0.168 HD
HETATM   27  N1  UNL     1      12.779  52.188 -50.202  1.00  0.00    -0.343 N 
HETATM   28  C1  UNL     1      13.788  52.080 -51.244  1.00  0.00     0.157 C 
BRANCH  18  29
HETATM   29  N4  UNL     1      11.236  49.412 -45.875  1.00  0.00    -0.234 N 
ATOM     30  H42 UNL     1      10.600  49.845 -45.206  1.00  0.00     0.174 HD
ATOM     31  H41 UNL     1      11.538  48.456 -45.685  1.00  0.00     0.174 HD
ENDBRANCH  18  29
ENDBRANCH  15  16
ENDBRANCH  13  15
ENDBRANCH   7  13
ENDBRANCH   4   5
ENDBRANCH   1   4
TORSDOF 6
ENDMDL
MODEL 2
REMARK VINA RESULT: -7.310183767      1.238      2.604
REMARK  6 active torsions:
REMARK  status: ('A' for Active; 'I' for Inactive)
REMARK    1  A    between atoms: C4_9  and  N4_10 
REMARK    2  A    between atoms: C5_15  and  C6_16 
REMARK    3  A    between atoms: C6_16  and  N6_17 
REMARK    4  A    between atoms: N6_17  and  C7_19 
REMARK    5  A    between atoms: C8_22  and  O1_23 
REMARK    6  A    between atoms: O1_23  and  C9_24 
ROOT
HETATM    1  C9  UNL     1      14.953  48.124 -56.025  1.00  0.00     0.302 C 
HETATM    2  C10 UNL     1      16.399  48.074 -56.168  1.00  0.00     0.085 C 
HETATM    3  N8  UNL     1      17.557  48.039 -56.287  1.00  0.00    -0.195 NA
ENDROOT
BRANCH   1   4
HETATM    4  O1  UNL     1      14.620  47.455 -54.825  1.00  0.00    -0.306 OA
BRANCH   4   5
HETATM    5  C8  UNL     1      13.970  48.118 -53.786  1.00  0.00     0.254 A 
HETATM    6  N7  UNL     1      13.923  49.443 -53.568  1.00  0.00    -0.152 N 
HETATM    7  C7  UNL     1      13.199  49.700 -52.468  1.00  0.00     0.696 A 
ATOM      8  H7  UNL     1      14.370  50.149 -54.153  1.00  0.00     0.188 HD
HETATM    9  N10 UNL     1      12.797  48.496 -52.007  1.00  0.00    -0.129 N 
HETATM   10  N9  UNL     1      13.267  47.541 -52.811  1.00  0.00    -0.250 N 
ATOM     11  H10 UNL     1      12.225  48.342 -51.177  1.00  0.00     0.205 HD
ATOM     12  H9  UNL     1      13.115  46.538 -52.698  1.00  0.00     0.191 HD
BRANCH   7  13
HETATM   13  N6  UNL     1      12.931  50.856 -51.941  1.00  0.00    -0.219 N 
ATOM     14  H6  UNL     1      12.139  51.402 -52.280  1.00  0.00     0.178 HD
BRANCH  13  15
HETATM   15  C6  UNL     1      13.779  51.380 -50.847  1.00  0.00     0.198 C 
BRANCH  15  16
HETATM   16  C5  UNL     1      13.131  51.234 -49.554  1.00  0.00     0.075 A 
HETATM   17  N5  UNL     1      12.026  51.950 -49.252  1.00  0.00    -0.192 N 
HETATM   18  C4  UNL     1      11.371  51.871 -48.085  1.00  0.00     0.677 A 
ATOM     19  H5  UNL     1      11.667  52.593 -49.958  1.00  0.00     0.184 HD
HETATM   20  N3  UNL     1      11.853  51.022 -47.163  1.00  0.00    -0.174 N 
HETATM   21  C3  UNL     1      12.944  50.265 -47.365  1.00  0.00     0.151 A 
ATOM     22  H3  UNL     1      11.368  50.949 -46.269  1.00  0.00     0.186 HD
HETATM   23  N2  UNL     1      13.628  49.363 -46.649  1.00  0.00    -0.336 N 
HETATM   24  C11 UNL     1      13.613  50.371 -48.605  1.00  0.00     0.105 A 
HETATM   25  C2  UNL     1      14.650  48.932 -47.382  1.00  0.00     0.184 A 
ATOM     26  H2  UNL     1      13.403  49.057 -45.703  1.00  0.00     0.168 HD
HETATM   27  N1  UNL     1      14.662  49.548 -48.609  1.00  0.00    -0.343 N 
HETATM   28  C1  UNL     1      15.639  49.318 -49.661  1.00  0.00     0.157 C 
BRANCH  18  29
HETATM   29  N4  UNL     1      10.305  52.587 -47.842  1.00  0.00    -0.234 N 
ATOM     30  H42 UNL     1      10.139  53.014 -46.931  1.00  0.00     0.174 HD
ATOM     31  H41 UNL     1       9.602  52.740 -48.566  1.00  0.00     0.174 HD
ENDBRANCH  18  29
ENDBRANCH  15  16
ENDBRANCH  13  15
ENDBRANCH   7  13
ENDBRANCH   4   5
ENDBRANCH   1   4
TORSDOF 6
ENDMDL
MODEL 3
REMARK VINA RESULT: -7.301183297      1.570      3.100
REMARK  6 active torsions:
REMARK  status: ('A' for Active; 'I' for Inactive)
REMARK    1  A    between atoms: C4_9  and  N4_10 
REMARK    2  A    between atoms: C5_15  and  C6_16 
REMARK    3  A    between atoms: C6_16  and  N6_17 
REMARK    4  A    between atoms: N6_17  and  C7_19 
REMARK    5  A    between atoms: C8_22  and  O1_23 
REMARK    6  A    between atoms: O1_23  and  C9_24 
ROOT
HETATM    1  C9  UNL     1      17.042  49.123 -56.058  1.00  0.00     0.302 C 
HETATM    2  C10 UNL     1      16.560  49.399 -57.401  1.00  0.00     0.085 C 
HETATM    3  N8  UNL     1      16.178  49.624 -58.478  1.00  0.00    -0.195 NA
ENDROOT
BRANCH   1   4
HETATM    4  O1  UNL     1      16.355  47.983 -55.583  1.00  0.00    -0.306 OA
BRANCH   4   5
HETATM    5  C8  UNL     1      15.177  48.104 -54.850  1.00  0.00     0.254 A 
HETATM    6  N7  UNL     1      15.053  48.213 -53.517  1.00  0.00    -0.152 N 
HETATM    7  C7  UNL     1      13.757  48.312 -53.184  1.00  0.00     0.696 A 
ATOM      8  H7  UNL     1      15.830  48.221 -52.856  1.00  0.00     0.188 HD
HETATM    9  N10 UNL     1      13.077  48.261 -54.349  1.00  0.00    -0.129 N 
HETATM   10  N9  UNL     1      13.943  48.135 -55.356  1.00  0.00    -0.250 N 
ATOM     11  H10 UNL     1      12.062  48.310 -54.444  1.00  0.00     0.205 HD
ATOM     12  H9  UNL     1      13.702  48.073 -56.346  1.00  0.00     0.191 HD
BRANCH   7  13
HETATM   13  N6  UNL     1      13.245  48.431 -51.997  1.00  0.00    -0.219 N 
ATOM     14  H6  UNL     1      12.367  47.963 -51.769  1.00  0.00     0.178 HD
BRANCH  13  15
HETATM   15  C6  UNL     1      13.938  49.247 -50.975  1.00  0.00     0.198 C 
BRANCH  15  16
HETATM   16  C5  UNL     1      13.156  50.415 -50.606  1.00  0.00     0.075 A 
HETATM   17  N5  UNL     1      12.785  51.318 -51.540  1.00  0.00    -0.192 N 
HETATM   18  C4  UNL     1      12.063  52.418 -51.280  1.00  0.00     0.677 A 
ATOM     19  H5  UNL     1      13.072  51.153 -52.504  1.00  0.00     0.184 HD
HETATM   20  N3  UNL     1      11.691  52.626 -50.007  1.00  0.00    -0.174 N 
HETATM   21  C3  UNL     1      12.008  51.788 -49.005  1.00  0.00     0.151 A 
ATOM     22  H3  UNL     1      11.142  53.458 -49.790  1.00  0.00     0.186 HD
HETATM   23  N2  UNL     1      11.781  51.745 -47.686  1.00  0.00    -0.336 N 
HETATM   24  C11 UNL     1      12.770  50.638 -49.311  1.00  0.00     0.105 A 
HETATM   25  C2  UNL     1      12.355  50.651 -47.197  1.00  0.00     0.184 A 
ATOM     26  H2  UNL     1      11.257  52.434 -47.148  1.00  0.00     0.168 HD
HETATM   27  N1  UNL     1      12.980  49.942 -48.193  1.00  0.00    -0.343 N 
HETATM   28  C1  UNL     1      13.709  48.696 -48.015  1.00  0.00     0.157 C 
BRANCH  18  29
HETATM   29  N4  UNL     1      11.729  53.262 -52.221  1.00  0.00    -0.234 N 
ATOM     30  H42 UNL     1      12.394  53.937 -52.598  1.00  0.00     0.174 HD
ATOM     31  H41 UNL     1      10.785  53.269 -52.605  1.00  0.00     0.174 HD
ENDBRANCH  18  29
ENDBRANCH  15  16
ENDBRANCH  13  15
ENDBRANCH   7  13
ENDBRANCH   4   5
ENDBRANCH   1   4
TORSDOF 6
ENDMDL
MODEL 4
REMARK VINA RESULT: -7.255022353      1.196      1.725
REMARK  6 active torsions:
REMARK  status: ('A' for Active; 'I' for Inactive)
REMARK    1  A    between atoms: C4_9  and  N4_10 
REMARK    2  A    between atoms: C5_15  and  C6_16 
REMARK    3  A    between atoms: C6_16  and  N6_17 
REMARK    4  A    between atoms: N6_17  and  C7_19 
REMARK    5  A    between atoms: C8_22  and  O1_23 
REMARK    6  A    between atoms: O1_23  and  C9_24 
ROOT
HETATM    1  C9  UNL     1      14.815  48.446 -56.255  1.00  0.00     0.302 C 
HETATM    2  C10 UNL     1      16.203  48.482 -56.686  1.00  0.00     0.085 C 
HETATM    3  N8  UNL     1      17.313  48.516 -57.035  1.00  0.00    -0.195 NA
ENDROOT
BRANCH   1   4
HETATM    4  O1  UNL     1      14.741  47.602 -55.124  1.00  0.00    -0.306 OA
BRANCH   4   5
HETATM    5  C8  UNL     1      14.091  48.009 -53.961  1.00  0.00     0.254 A 
HETATM    6  N7  UNL     1      14.625  48.154 -52.737  1.00  0.00    -0.152 N 
HETATM    7  C7  UNL     1      13.685  48.565 -51.873  1.00  0.00     0.696 A 
ATOM      8  H7  UNL     1      15.602  47.978 -52.500  1.00  0.00     0.188 HD
HETATM    9  N10 UNL     1      12.549  48.672 -52.595  1.00  0.00    -0.129 N 
HETATM   10  N9  UNL     1      12.801  48.335 -53.861  1.00  0.00    -0.250 N 
ATOM     11  H10 UNL     1      11.643  48.965 -52.231  1.00  0.00     0.205 HD
ATOM     12  H9  UNL     1      12.123  48.326 -54.622  1.00  0.00     0.191 HD
BRANCH   7  13
HETATM   13  N6  UNL     1      13.819  48.812 -50.605  1.00  0.00    -0.219 N 
ATOM     14  H6  UNL     1      13.559  48.107 -49.916  1.00  0.00     0.178 HD
BRANCH  13  15
HETATM   15  C6  UNL     1      14.350  50.121 -50.164  1.00  0.00     0.198 C 
BRANCH  15  16
HETATM   16  C5  UNL     1      13.283  51.088 -49.962  1.00  0.00     0.075 A 
HETATM   17  N5  UNL     1      12.492  51.023 -48.868  1.00  0.00    -0.192 N 
HETATM   18  C4  UNL     1      11.491  51.877 -48.610  1.00  0.00     0.677 A 
ATOM     19  H5  UNL     1      12.668  50.276 -48.196  1.00  0.00     0.184 HD
HETATM   20  N3  UNL     1      11.268  52.855 -49.502  1.00  0.00    -0.174 N 
HETATM   21  C3  UNL     1      11.998  53.007 -50.620  1.00  0.00     0.151 A 
ATOM     22  H3  UNL     1      10.510  53.513 -49.322  1.00  0.00     0.186 HD
HETATM   23  N2  UNL     1      12.001  53.860 -51.652  1.00  0.00    -0.336 N 
HETATM   24  C11 UNL     1      13.046  52.091 -50.864  1.00  0.00     0.105 A 
HETATM   25  C2  UNL     1      12.976  53.510 -52.484  1.00  0.00     0.184 A 
ATOM     26  H2  UNL     1      11.363  54.645 -51.778  1.00  0.00     0.168 HD
HETATM   27  N1  UNL     1      13.644  52.407 -52.013  1.00  0.00    -0.343 N 
HETATM   28  C1  UNL     1      14.765  51.753 -52.670  1.00  0.00     0.157 C 
BRANCH  18  29
HETATM   29  N4  UNL     1      10.754  51.770 -47.536  1.00  0.00    -0.234 N 
ATOM     30  H42 UNL     1      10.042  52.461 -47.301  1.00  0.00     0.174 HD
ATOM     31  H41 UNL     1      10.873  50.984 -46.896  1.00  0.00     0.174 HD
ENDBRANCH  18  29
ENDBRANCH  15  16
ENDBRANCH  13  15
ENDBRANCH   7  13
ENDBRANCH   4   5
ENDBRANCH   1   4
TORSDOF 6
ENDMDL
MODEL 5
REMARK VINA RESULT: -7.222311546      2.293      3.119
REMARK  6 active torsions:
REMARK  status: ('A' for Active; 'I' for Inactive)
REMARK    1  A    between atoms: C4_9  and  N4_10 
REMARK    2  A    between atoms: C5_15  and  C6_16 
REMARK    3  A    between atoms: C6_16  and  N6_17 
REMARK    4  A    between atoms: N6_17  and  C7_19 
REMARK    5  A    between atoms: C8_22  and  O1_23 
REMARK    6  A    between atoms: O1_23  and  C9_24 
ROOT
HETATM    1  C9  UNL     1      16.470  50.501 -57.863  1.00  0.00     0.302 C 
HETATM    2  C10 UNL     1      15.698  50.859 -59.041  1.00  0.00     0.085 C 
HETATM    3  N8  UNL     1      15.082  51.151 -59.986  1.00  0.00    -0.195 NA
ENDROOT
BRANCH   1   4
HETATM    4  O1  UNL     1      16.113  49.182 -57.503  1.00  0.00    -0.306 OA
BRANCH   4   5
HETATM    5  C8  UNL     1      15.397  48.921 -56.337  1.00  0.00     0.254 A 
HETATM    6  N7  UNL     1      15.664  49.368 -55.098  1.00  0.00    -0.152 N 
HETATM    7  C7  UNL     1      14.747  48.904 -54.236  1.00  0.00     0.696 A 
ATOM      8  H7  UNL     1      16.449  49.971 -54.851  1.00  0.00     0.188 HD
HETATM    9  N10 UNL     1      13.900  48.154 -54.974  1.00  0.00    -0.129 N 
HETATM   10  N9  UNL     1      14.299  48.169 -56.247  1.00  0.00    -0.250 N 
ATOM     11  H10 UNL     1      13.085  47.657 -54.615  1.00  0.00     0.205 HD
ATOM     12  H9  UNL     1      13.841  47.686 -57.021  1.00  0.00     0.191 HD
BRANCH   7  13
HETATM   13  N6  UNL     1      14.673  49.118 -52.957  1.00  0.00    -0.219 N 
ATOM     14  H6  UNL     1      15.467  48.898 -52.355  1.00  0.00     0.178 HD
BRANCH  13  15
HETATM   15  C6  UNL     1      13.434  49.681 -52.377  1.00  0.00     0.198 C 
BRANCH  15  16
HETATM   16  C5  UNL     1      13.456  49.630 -50.924  1.00  0.00     0.075 A 
HETATM   17  N5  UNL     1      13.989  48.570 -50.280  1.00  0.00    -0.192 N 
HETATM   18  C4  UNL     1      14.049  48.449 -48.945  1.00  0.00     0.677 A 
ATOM     19  H5  UNL     1      14.372  47.811 -50.844  1.00  0.00     0.184 HD
HETATM   20  N3  UNL     1      13.542  49.453 -48.212  1.00  0.00    -0.174 N 
HETATM   21  C3  UNL     1      12.990  50.551 -48.755  1.00  0.00     0.151 A 
ATOM     22  H3  UNL     1      13.578  49.378 -47.196  1.00  0.00     0.186 HD
HETATM   23  N2  UNL     1      12.425  51.670 -48.286  1.00  0.00    -0.336 N 
HETATM   24  C11 UNL     1      12.943  50.649 -50.165  1.00  0.00     0.105 A 
HETATM   25  C2  UNL     1      12.050  52.417 -49.319  1.00  0.00     0.184 A 
ATOM     26  H2  UNL     1      12.304  51.910 -47.302  1.00  0.00     0.168 HD
HETATM   27  N1  UNL     1      12.362  51.800 -50.504  1.00  0.00    -0.343 N 
HETATM   28  C1  UNL     1      12.094  52.331 -51.831  1.00  0.00     0.157 C 
BRANCH  18  29
HETATM   29  N4  UNL     1      14.576  47.400 -48.370  1.00  0.00    -0.234 N 
ATOM     30  H42 UNL     1      15.585  47.297 -48.260  1.00  0.00     0.174 HD
ATOM     31  H41 UNL     1      13.986  46.649 -48.013  1.00  0.00     0.174 HD
ENDBRANCH  18  29
ENDBRANCH  15  16
ENDBRANCH  13  15
ENDBRANCH   7  13
ENDBRANCH   4   5
ENDBRANCH   1   4
TORSDOF 6
ENDMDL
