MODEL 1
REMARK VINA RESULT: -7.696609661      0.000      0.000
REMARK  7 active torsions:
REMARK  status: ('A' for Active; 'I' for Inactive)
REMARK    1  A    between atoms: O1_2  and  C2_3 
REMARK    2  A    between atoms: C2_3  and  C3_5 
REMARK    3  A    between atoms: C3_5  and  N1_6 
REMARK       I    between atoms: N1_6  and  C4_8 
REMARK    4  A    between atoms: C4_8  and  C5_10 
REMARK    5  A    between atoms: C5_10  and  O5_12 
REMARK    6  A    between atoms: O5_12  and  C6_13 
REMARK    7  A    between atoms: C11_23  and  N6_24 
ROOT
HETATM    1  C6  UNL     1      16.954  49.167 -56.391  1.00  0.00     0.148 A 
HETATM    2  C7  UNL     1      18.046  49.144 -55.550  1.00  0.00     0.154 A 
HETATM    3  N2  UNL     1      19.284  49.603 -56.037  1.00  0.00    -0.080 NA
HETATM    4  N3  UNL     1      17.910  48.681 -54.274  1.00  0.00    -0.330 N 
ATOM      5  H3  UNL     1      18.722  48.665 -53.656  1.00  0.00     0.168 HD
HETATM    6  C8  UNL     1      16.724  48.245 -53.818  1.00  0.00     0.141 A 
HETATM    7  N4  UNL     1      16.584  47.762 -52.487  1.00  0.00    -0.081 NA
HETATM    8  C9  UNL     1      15.607  48.251 -54.626  1.00  0.00     0.114 A 
HETATM    9  C10 UNL     1      14.345  47.786 -54.136  1.00  0.00     0.105 C 
HETATM   10  N5  UNL     1      13.320  47.418 -53.737  1.00  0.00    -0.191 NA
HETATM   11  C11 UNL     1      15.732  48.723 -55.937  1.00  0.00     0.088 A 
ENDROOT
BRANCH  11  12
HETATM   12  N6  UNL     1      14.702  48.734 -56.695  1.00  0.00    -0.395 N 
ATOM     13  H62 UNL     1      14.178  47.870 -56.836  1.00  0.00     0.156 HD
ATOM     14  H61 UNL     1      14.398  49.591 -57.159  1.00  0.00     0.156 HD
ENDBRANCH  11  12
BRANCH   1  15
HETATM   15  O5  UNL     1      17.083  49.643 -57.710  1.00  0.00    -0.265 OA
BRANCH  15  16
HETATM   16  C5  UNL     1      16.768  50.956 -58.027  1.00  0.00     0.356 C 
HETATM   17  O4  UNL     1      17.278  51.856 -57.282  1.00  0.00    -0.253 OA
BRANCH  16  18
HETATM   18  C4  UNL     1      15.905  51.292 -59.145  1.00  0.00     0.317 C 
HETATM   19  N1  UNL     1      16.459  51.838 -60.329  1.00  0.00    -0.343 N 
ATOM     20  H1  UNL     1      17.464  51.998 -60.401  1.00  0.00     0.163 HD
HETATM   21  O3  UNL     1      14.675  51.085 -59.026  1.00  0.00    -0.262 OA
BRANCH  19  22
HETATM   22  C3  UNL     1      15.573  52.172 -61.450  1.00  0.00     0.234 C 
BRANCH  22  23
HETATM   23  C2  UNL     1      16.404  52.370 -62.668  1.00  0.00     0.276 C 
HETATM   24  O2  UNL     1      16.640  51.406 -63.467  1.00  0.00    -0.263 OA
BRANCH  23  25
HETATM   25  O1  UNL     1      16.923  53.631 -62.927  1.00  0.00    -0.325 OA
HETATM   26  C1  UNL     1      17.305  53.936 -64.257  1.00  0.00     0.213 C 
ENDBRANCH  23  25
ENDBRANCH  22  23
ENDBRANCH  19  22
ENDBRANCH  16  18
ENDBRANCH  15  16
ENDBRANCH   1  15
TORSDOF 7
ENDMDL
MODEL 2
REMARK VINA RESULT: -7.560526233      2.096      3.217
REMARK  7 active torsions:
REMARK  status: ('A' for Active; 'I' for Inactive)
REMARK    1  A    between atoms: O1_2  and  C2_3 
REMARK    2  A    between atoms: C2_3  and  C3_5 
REMARK    3  A    between atoms: C3_5  and  N1_6 
REMARK       I    between atoms: N1_6  and  C4_8 
REMARK    4  A    between atoms: C4_8  and  C5_10 
REMARK    5  A    between atoms: C5_10  and  O5_12 
REMARK    6  A    between atoms: O5_12  and  C6_13 
REMARK    7  A    between atoms: C11_23  and  N6_24 
ROOT
HETATM    1  C6  UNL     1      16.277  48.335 -53.961  1.00  0.00     0.148 A 
HETATM    2  C7  UNL     1      17.389  49.051 -53.574  1.00  0.00     0.154 A 
HETATM    3  N2  UNL     1      18.479  49.137 -54.460  1.00  0.00    -0.080 NA
HETATM    4  N3  UNL     1      17.416  49.655 -52.352  1.00  0.00    -0.330 N 
ATOM      5  H3  UNL     1      18.242  50.182 -52.070  1.00  0.00     0.168 HD
HETATM    6  C8  UNL     1      16.371  49.567 -51.512  1.00  0.00     0.141 A 
HETATM    7  N4  UNL     1      16.401  50.199 -50.237  1.00  0.00    -0.081 NA
HETATM    8  C9  UNL     1      15.239  48.862 -51.860  1.00  0.00     0.114 A 
HETATM    9  C10 UNL     1      14.127  48.770 -50.962  1.00  0.00     0.105 C 
HETATM   10  N5  UNL     1      13.222  48.704 -50.240  1.00  0.00    -0.191 NA
HETATM   11  C11 UNL     1      15.197  48.236 -53.110  1.00  0.00     0.088 A 
ENDROOT
BRANCH  11  12
HETATM   12  N6  UNL     1      14.151  47.579 -53.443  1.00  0.00    -0.395 N 
ATOM     13  H62 UNL     1      13.747  47.725 -54.368  1.00  0.00     0.156 HD
ATOM     14  H61 UNL     1      13.719  46.915 -52.800  1.00  0.00     0.156 HD
ENDBRANCH  11  12
BRANCH   1  15
HETATM   15  O5  UNL     1      16.238  47.706 -55.220  1.00  0.00    -0.265 OA
BRANCH  15  16
HETATM   16  C5  UNL     1      15.616  48.314 -56.300  1.00  0.00     0.356 C 
HETATM   17  O4  UNL     1      14.370  48.081 -56.441  1.00  0.00    -0.253 OA
BRANCH  16  18
HETATM   18  C4  UNL     1      16.339  49.170 -57.224  1.00  0.00     0.317 C 
HETATM   19  N1  UNL     1      15.898  50.496 -57.454  1.00  0.00    -0.343 N 
ATOM     20  H1  UNL     1      15.072  50.855 -56.975  1.00  0.00     0.163 HD
HETATM   21  O3  UNL     1      17.348  48.701 -57.799  1.00  0.00    -0.262 OA
BRANCH  19  22
HETATM   22  C3  UNL     1      16.640  51.349 -58.390  1.00  0.00     0.234 C 
BRANCH  22  23
HETATM   23  C2  UNL     1      15.914  51.372 -59.688  1.00  0.00     0.276 C 
HETATM   24  O2  UNL     1      14.653  51.199 -59.740  1.00  0.00    -0.263 OA
BRANCH  23  25
HETATM   25  O1  UNL     1      16.636  51.588 -60.854  1.00  0.00    -0.325 OA
HETATM   26  C1  UNL     1      16.036  52.365 -61.876  1.00  0.00     0.213 C 
ENDBRANCH  23  25
ENDBRANCH  22  23
ENDBRANCH  19  22
ENDBRANCH  16  18
ENDBRANCH  15  16
ENDBRANCH   1  15
TORSDOF 7
ENDMDL
MODEL 3
REMARK VINA RESULT: -7.524465000      2.285      4.112
REMARK  7 active torsions:
REMARK  status: ('A' for Active; 'I' for Inactive)
REMARK    1  A    between atoms: O1_2  and  C2_3 
REMARK    2  A    between atoms: C2_3  and  C3_5 
REMARK    3  A    between atoms: C3_5  and  N1_6 
REMARK       I    between atoms: N1_6  and  C4_8 
REMARK    4  A    between atoms: C4_8  and  C5_10 
REMARK    5  A    between atoms: C5_10  and  O5_12 
REMARK    6  A    between atoms: O5_12  and  C6_13 
REMARK    7  A    between atoms: C11_23  and  N6_24 
ROOT
HETATM    1  C6  UNL     1      15.529  48.143 -54.341  1.00  0.00     0.148 A 
HETATM    2  C7  UNL     1      14.459  48.252 -55.203  1.00  0.00     0.154 A 
HETATM    3  N2  UNL     1      14.689  48.123 -56.586  1.00  0.00    -0.080 NA
HETATM    4  N3  UNL     1      13.210  48.483 -54.708  1.00  0.00    -0.330 N 
ATOM      5  H3  UNL     1      12.422  48.564 -55.350  1.00  0.00     0.168 HD
HETATM    6  C8  UNL     1      13.000  48.606 -53.386  1.00  0.00     0.141 A 
HETATM    7  N4  UNL     1      11.696  48.847 -52.871  1.00  0.00    -0.081 NA
HETATM    8  C9  UNL     1      14.042  48.503 -52.490  1.00  0.00     0.114 A 
HETATM    9  C10 UNL     1      13.814  48.634 -51.083  1.00  0.00     0.105 C 
HETATM   10  N5  UNL     1      13.630  48.730 -49.941  1.00  0.00    -0.191 NA
HETATM   11  C11 UNL     1      15.329  48.267 -52.984  1.00  0.00     0.088 A 
ENDROOT
BRANCH  11  12
HETATM   12  N6  UNL     1      16.304  48.169 -52.161  1.00  0.00    -0.395 N 
ATOM     13  H62 UNL     1      17.256  48.314 -52.498  1.00  0.00     0.156 HD
ATOM     14  H61 UNL     1      16.143  47.949 -51.177  1.00  0.00     0.156 HD
ENDBRANCH  11  12
BRANCH   1  15
HETATM   15  O5  UNL     1      16.824  47.905 -54.842  1.00  0.00    -0.265 OA
BRANCH  15  16
HETATM   16  C5  UNL     1      17.754  48.931 -54.927  1.00  0.00     0.356 C 
HETATM   17  O4  UNL     1      18.550  49.057 -53.940  1.00  0.00    -0.253 OA
BRANCH  16  18
HETATM   18  C4  UNL     1      17.820  49.816 -56.077  1.00  0.00     0.317 C 
HETATM   19  N1  UNL     1      16.701  50.613 -56.423  1.00  0.00    -0.343 N 
ATOM     20  H1  UNL     1      15.847  50.569 -55.868  1.00  0.00     0.163 HD
HETATM   21  O3  UNL     1      18.883  49.846 -56.740  1.00  0.00    -0.262 OA
BRANCH  19  22
HETATM   22  C3  UNL     1      16.784  51.502 -57.587  1.00  0.00     0.234 C 
BRANCH  22  23
HETATM   23  C2  UNL     1      15.934  50.944 -58.672  1.00  0.00     0.276 C 
HETATM   24  O2  UNL     1      15.896  49.691 -58.900  1.00  0.00    -0.263 OA
BRANCH  23  25
HETATM   25  O1  UNL     1      15.172  51.814 -59.441  1.00  0.00    -0.325 OA
HETATM   26  C1  UNL     1      15.794  52.448 -60.545  1.00  0.00     0.213 C 
ENDBRANCH  23  25
ENDBRANCH  22  23
ENDBRANCH  19  22
ENDBRANCH  16  18
ENDBRANCH  15  16
ENDBRANCH   1  15
TORSDOF 7
ENDMDL
MODEL 4
REMARK VINA RESULT: -7.499459797      2.704      4.320
REMARK  7 active torsions:
REMARK  status: ('A' for Active; 'I' for Inactive)
REMARK    1  A    between atoms: O1_2  and  C2_3 
REMARK    2  A    between atoms: C2_3  and  C3_5 
REMARK    3  A    between atoms: C3_5  and  N1_6 
REMARK       I    between atoms: N1_6  and  C4_8 
REMARK    4  A    between atoms: C4_8  and  C5_10 
REMARK    5  A    between atoms: C5_10  and  O5_12 
REMARK    6  A    between atoms: O5_12  and  C6_13 
REMARK    7  A    between atoms: C11_23  and  N6_24 
ROOT
HETATM    1  C6  UNL     1      14.862  48.791 -53.667  1.00  0.00     0.148 A 
HETATM    2  C7  UNL     1      13.843  48.056 -53.100  1.00  0.00     0.154 A 
HETATM    3  N2  UNL     1      13.648  46.729 -53.528  1.00  0.00    -0.080 NA
HETATM    4  N3  UNL     1      13.048  48.620 -52.147  1.00  0.00    -0.330 N 
ATOM      5  H3  UNL     1      12.295  48.072 -51.731  1.00  0.00     0.168 HD
HETATM    6  C8  UNL     1      13.241  49.888 -51.745  1.00  0.00     0.141 A 
HETATM    7  N4  UNL     1      12.411  50.475 -50.750  1.00  0.00    -0.081 NA
HETATM    8  C9  UNL     1      14.249  50.658 -52.286  1.00  0.00     0.114 A 
HETATM    9  C10 UNL     1      14.451  52.008 -51.855  1.00  0.00     0.105 C 
HETATM   10  N5  UNL     1      14.623  53.099 -51.500  1.00  0.00    -0.191 NA
HETATM   11  C11 UNL     1      15.072  50.092 -53.265  1.00  0.00     0.088 A 
ENDROOT
BRANCH  11  12
HETATM   12  N6  UNL     1      16.010  50.797 -53.773  1.00  0.00    -0.395 N 
ATOM     13  H62 UNL     1      16.881  50.912 -53.255  1.00  0.00     0.156 HD
ATOM     14  H61 UNL     1      15.900  51.243 -54.685  1.00  0.00     0.156 HD
ENDBRANCH  11  12
BRANCH   1  15
HETATM   15  O5  UNL     1      15.688  48.218 -54.653  1.00  0.00    -0.265 OA
BRANCH  15  16
HETATM   16  C5  UNL     1      15.377  48.336 -55.999  1.00  0.00     0.356 C 
HETATM   17  O4  UNL     1      14.323  47.736 -56.392  1.00  0.00    -0.253 OA
BRANCH  16  18
HETATM   18  C4  UNL     1      16.205  49.100 -56.916  1.00  0.00     0.317 C 
HETATM   19  N1  UNL     1      15.818  50.409 -57.297  1.00  0.00    -0.343 N 
ATOM     20  H1  UNL     1      14.959  50.819 -56.930  1.00  0.00     0.163 HD
HETATM   21  O3  UNL     1      17.252  48.569 -57.351  1.00  0.00    -0.262 OA
BRANCH  19  22
HETATM   22  C3  UNL     1      16.665  51.168 -58.224  1.00  0.00     0.234 C 
BRANCH  22  23
HETATM   23  C2  UNL     1      15.938  51.321 -59.513  1.00  0.00     0.276 C 
HETATM   24  O2  UNL     1      14.668  51.243 -59.565  1.00  0.00    -0.263 OA
BRANCH  23  25
HETATM   25  O1  UNL     1      16.670  51.554 -60.669  1.00  0.00    -0.325 OA
HETATM   26  C1  UNL     1      16.044  52.267 -61.723  1.00  0.00     0.213 C 
ENDBRANCH  23  25
ENDBRANCH  22  23
ENDBRANCH  19  22
ENDBRANCH  16  18
ENDBRANCH  15  16
ENDBRANCH   1  15
TORSDOF 7
ENDMDL
MODEL 5
REMARK VINA RESULT: -7.472260142      1.714      3.376
REMARK  7 active torsions:
REMARK  status: ('A' for Active; 'I' for Inactive)
REMARK    1  A    between atoms: O1_2  and  C2_3 
REMARK    2  A    between atoms: C2_3  and  C3_5 
REMARK    3  A    between atoms: C3_5  and  N1_6 
REMARK       I    between atoms: N1_6  and  C4_8 
REMARK    4  A    between atoms: C4_8  and  C5_10 
REMARK    5  A    between atoms: C5_10  and  O5_12 
REMARK    6  A    between atoms: O5_12  and  C6_13 
REMARK    7  A    between atoms: C11_23  and  N6_24 
ROOT
HETATM    1  C6  UNL     1      16.455  48.181 -54.946  1.00  0.00     0.148 A 
HETATM    2  C7  UNL     1      15.114  48.229 -55.259  1.00  0.00     0.154 A 
HETATM    3  N2  UNL     1      14.736  48.260 -56.614  1.00  0.00    -0.080 NA
HETATM    4  N3  UNL     1      14.184  48.247 -54.261  1.00  0.00    -0.330 N 
ATOM      5  H3  UNL     1      13.193  48.283 -54.498  1.00  0.00     0.168 HD
HETATM    6  C8  UNL     1      14.554  48.217 -52.969  1.00  0.00     0.141 A 
HETATM    7  N4  UNL     1      13.582  48.236 -51.929  1.00  0.00    -0.081 NA
HETATM    8  C9  UNL     1      15.884  48.169 -52.613  1.00  0.00     0.114 A 
HETATM    9  C10 UNL     1      16.273  48.138 -51.235  1.00  0.00     0.105 C 
HETATM   10  N5  UNL     1      16.590  48.102 -50.120  1.00  0.00    -0.191 NA
HETATM   11  C11 UNL     1      16.848  48.150 -53.626  1.00  0.00     0.088 A 
ENDROOT
BRANCH  11  12
HETATM   12  N6  UNL     1      18.086  48.105 -53.306  1.00  0.00    -0.395 N 
ATOM     13  H62 UNL     1      18.577  48.973 -53.094  1.00  0.00     0.156 HD
ATOM     14  H61 UNL     1      18.586  47.216 -53.262  1.00  0.00     0.156 HD
ENDBRANCH  11  12
BRANCH   1  15
HETATM   15  O5  UNL     1      17.423  48.162 -55.968  1.00  0.00    -0.265 OA
BRANCH  15  16
HETATM   16  C5  UNL     1      18.226  49.267 -56.209  1.00  0.00     0.356 C 
HETATM   17  O4  UNL     1      19.448  49.167 -55.859  1.00  0.00    -0.253 OA
BRANCH  16  18
HETATM   18  C4  UNL     1      17.707  50.476 -56.825  1.00  0.00     0.317 C 
HETATM   19  N1  UNL     1      16.769  50.384 -57.883  1.00  0.00    -0.343 N 
ATOM     20  H1  UNL     1      16.455  49.473 -58.216  1.00  0.00     0.163 HD
HETATM   21  O3  UNL     1      18.112  51.580 -56.396  1.00  0.00    -0.262 OA
BRANCH  19  22
HETATM   22  C3  UNL     1      16.253  51.614 -58.495  1.00  0.00     0.234 C 
BRANCH  22  23
HETATM   23  C2  UNL     1      15.820  51.307 -59.885  1.00  0.00     0.276 C 
HETATM   24  O2  UNL     1      14.684  50.780 -60.118  1.00  0.00    -0.263 OA
BRANCH  23  25
HETATM   25  O1  UNL     1      16.677  51.607 -60.935  1.00  0.00    -0.325 OA
HETATM   26  C1  UNL     1      16.154  52.322 -62.040  1.00  0.00     0.213 C 
ENDBRANCH  23  25
ENDBRANCH  22  23
ENDBRANCH  19  22
ENDBRANCH  16  18
ENDBRANCH  15  16
ENDBRANCH   1  15
TORSDOF 7
ENDMDL
