MODEL 1
REMARK VINA RESULT: -7.671792807      0.000      0.000
REMARK  4 active torsions:
REMARK  status: ('A' for Active; 'I' for Inactive)
REMARK    1  A    between atoms: C2_3  and  C3_4 
REMARK    2  A    between atoms: C4_7  and  N3_8 
REMARK       I    between atoms: N3_8  and  C5_10 
REMARK    3  A    between atoms: C9_22  and  C10_23 
REMARK    4  A    between atoms: C10_23  and  N8_24 
ROOT
HETATM    1  C1  UNL     1      15.031  54.480 -50.573  1.00  0.00     0.159 C 
HETATM    2  N1  UNL     1      13.827  54.530 -51.356  1.00  0.00    -0.324 N 
HETATM    3  C2  UNL     1      12.824  53.636 -51.389  1.00  0.00     0.154 A 
HETATM    4  N7  UNL     1      11.945  54.109 -52.249  1.00  0.00    -0.339 N 
ATOM      5  H7  UNL     1      11.070  53.643 -52.484  1.00  0.00     0.167 HD
HETATM    6  C9  UNL     1      12.340  55.276 -52.776  1.00  0.00     0.074 A 
HETATM    7  C11 UNL     1      13.543  55.555 -52.210  1.00  0.00     0.141 A 
HETATM    8  C12 UNL     1      14.354  56.721 -52.477  1.00  0.00     0.120 C 
HETATM    9  N9  UNL     1      15.019  57.645 -52.697  1.00  0.00    -0.190 NA
ENDROOT
BRANCH   6  10
HETATM   10  C10 UNL     1      11.666  56.149 -53.773  1.00  0.00     0.289 C 
BRANCH  10  11
HETATM   11  N8  UNL     1      10.900  57.190 -53.129  1.00  0.00    -0.074 N 
ATOM     12  H83 UNL     1      10.026  57.371 -53.623  1.00  0.00     0.274 HD
ATOM     13  H82 UNL     1      10.515  56.874 -52.238  1.00  0.00     0.274 HD
ATOM     14  H81 UNL     1      11.451  58.041 -53.017  1.00  0.00     0.274 HD
ENDBRANCH  10  11
ENDBRANCH   6  10
BRANCH   3  15
HETATM   15  C3  UNL     1      12.796  52.395 -50.585  1.00  0.00     0.157 A 
HETATM   16  N2  UNL     1      12.133  52.394 -49.400  1.00  0.00    -0.325 N 
HETATM   17  C4  UNL     1      12.091  51.285 -48.653  1.00  0.00     0.114 A 
ATOM     18  H2  UNL     1      11.665  53.241 -49.079  1.00  0.00     0.169 HD
HETATM   19  C6  UNL     1      12.713  50.117 -49.054  1.00  0.00     0.123 A 
HETATM   20  C7  UNL     1      13.383  50.124 -50.254  1.00  0.00     0.252 A 
HETATM   21  O1  UNL     1      13.978  49.095 -50.694  1.00  0.00    -0.268 OA
HETATM   22  N6  UNL     1      13.404  51.268 -50.989  1.00  0.00    -0.301 N 
HETATM   23  C8  UNL     1      14.110  51.286 -52.260  1.00  0.00     0.161 C 
BRANCH  17  24
HETATM   24  N3  UNL     1      11.399  51.248 -47.392  1.00  0.00    -0.317 N 
HETATM   25  C5  UNL     1      10.686  50.096 -46.973  1.00  0.00     0.187 C 
HETATM   26  N4  UNL     1      11.213  49.370 -46.050  1.00  0.00    -0.373 N 
HETATM   27  N5  UNL     1       9.434  49.720 -47.524  1.00  0.00    -0.064 NA
ATOM     28  H42 UNL     1      12.113  49.640 -45.654  1.00  0.00     0.158 HD
ATOM     29  H41 UNL     1      10.700  48.541 -45.748  1.00  0.00     0.158 HD
ATOM     30  H3  UNL     1      11.421  52.068 -46.786  1.00  0.00     0.170 HD
ENDBRANCH  17  24
ENDBRANCH   3  15
TORSDOF 4
ENDMDL
MODEL 2
REMARK VINA RESULT: -7.575433245      3.373      6.946
REMARK  4 active torsions:
REMARK  status: ('A' for Active; 'I' for Inactive)
REMARK    1  A    between atoms: C2_3  and  C3_4 
REMARK    2  A    between atoms: C4_7  and  N3_8 
REMARK       I    between atoms: N3_8  and  C5_10 
REMARK    3  A    between atoms: C9_22  and  C10_23 
REMARK    4  A    between atoms: C10_23  and  N8_24 
ROOT
HETATM    1  C1  UNL     1      13.156  49.610 -51.425  1.00  0.00     0.159 C 
HETATM    2  N1  UNL     1      14.054  49.710 -52.542  1.00  0.00    -0.324 N 
HETATM    3  C2  UNL     1      14.786  50.770 -52.924  1.00  0.00     0.154 A 
HETATM    4  N7  UNL     1      15.450  50.386 -53.995  1.00  0.00    -0.339 N 
ATOM      5  H7  UNL     1      16.094  50.984 -54.512  1.00  0.00     0.167 HD
HETATM    6  C9  UNL     1      15.176  49.117 -54.324  1.00  0.00     0.074 A 
HETATM    7  C11 UNL     1      14.284  48.674 -53.399  1.00  0.00     0.141 A 
HETATM    8  C12 UNL     1      13.700  47.352 -53.351  1.00  0.00     0.120 C 
HETATM    9  N9  UNL     1      13.214  46.301 -53.314  1.00  0.00    -0.190 NA
ENDROOT
BRANCH   6  10
HETATM   10  C10 UNL     1      15.693  48.288 -55.445  1.00  0.00     0.289 C 
BRANCH  10  11
HETATM   11  N8  UNL     1      14.841  48.383 -56.606  1.00  0.00    -0.074 N 
ATOM     12  H83 UNL     1      14.039  48.988 -56.433  1.00  0.00     0.274 HD
ATOM     13  H82 UNL     1      15.284  48.919 -57.353  1.00  0.00     0.274 HD
ATOM     14  H81 UNL     1      14.551  47.460 -56.931  1.00  0.00     0.274 HD
ENDBRANCH  10  11
ENDBRANCH   6  10
BRANCH   3  15
HETATM   15  C3  UNL     1      14.785  52.071 -52.221  1.00  0.00     0.157 A 
HETATM   16  N2  UNL     1      13.775  52.947 -52.460  1.00  0.00    -0.325 N 
HETATM   17  C4  UNL     1      13.749  54.131 -51.838  1.00  0.00     0.114 A 
ATOM     18  H2  UNL     1      13.033  52.701 -53.116  1.00  0.00     0.169 HD
HETATM   19  C6  UNL     1      14.735  54.501 -50.943  1.00  0.00     0.123 A 
HETATM   20  C7  UNL     1      15.755  53.611 -50.704  1.00  0.00     0.252 A 
HETATM   21  O1  UNL     1      16.697  53.872 -49.897  1.00  0.00    -0.268 OA
HETATM   22  N6  UNL     1      15.750  52.415 -51.353  1.00  0.00    -0.301 N 
HETATM   23  C8  UNL     1      16.824  51.466 -51.109  1.00  0.00     0.161 C 
BRANCH  17  24
HETATM   24  N3  UNL     1      12.695  55.083 -52.068  1.00  0.00    -0.317 N 
HETATM   25  C5  UNL     1      12.823  56.108 -53.041  1.00  0.00     0.187 C 
HETATM   26  N4  UNL     1      12.161  55.977 -54.137  1.00  0.00    -0.373 N 
HETATM   27  N5  UNL     1      13.639  57.253 -52.853  1.00  0.00    -0.064 NA
ATOM     28  H42 UNL     1      11.574  55.154 -54.272  1.00  0.00     0.158 HD
ATOM     29  H41 UNL     1      12.252  56.714 -54.836  1.00  0.00     0.158 HD
ATOM     30  H3  UNL     1      11.837  55.020 -51.520  1.00  0.00     0.170 HD
ENDBRANCH  17  24
ENDBRANCH   3  15
TORSDOF 4
ENDMDL
MODEL 3
REMARK VINA RESULT: -7.435753145      4.688      7.973
REMARK  4 active torsions:
REMARK  status: ('A' for Active; 'I' for Inactive)
REMARK    1  A    between atoms: C2_3  and  C3_4 
REMARK    2  A    between atoms: C4_7  and  N3_8 
REMARK       I    between atoms: N3_8  and  C5_10 
REMARK    3  A    between atoms: C9_22  and  C10_23 
REMARK    4  A    between atoms: C10_23  and  N8_24 
ROOT
HETATM    1  C1  UNL     1      14.993  51.538 -52.525  1.00  0.00     0.159 C 
HETATM    2  N1  UNL     1      14.936  50.341 -51.731  1.00  0.00    -0.324 N 
HETATM    3  C2  UNL     1      15.290  49.095 -52.086  1.00  0.00     0.154 A 
HETATM    4  N7  UNL     1      15.061  48.338 -51.032  1.00  0.00    -0.339 N 
ATOM      5  H7  UNL     1      15.236  47.334 -51.001  1.00  0.00     0.167 HD
HETATM    6  C9  UNL     1      14.570  49.047 -50.006  1.00  0.00     0.074 A 
HETATM    7  C11 UNL     1      14.487  50.331 -50.443  1.00  0.00     0.141 A 
HETATM    8  C12 UNL     1      14.009  51.457 -49.674  1.00  0.00     0.120 C 
HETATM    9  N9  UNL     1      13.611  52.364 -49.070  1.00  0.00    -0.190 NA
ENDROOT
BRANCH   6  10
HETATM   10  C10 UNL     1      14.174  48.604 -48.643  1.00  0.00     0.289 C 
BRANCH  10  11
HETATM   11  N8  UNL     1      14.787  47.343 -48.301  1.00  0.00    -0.074 N 
ATOM     12  H83 UNL     1      14.090  46.651 -48.024  1.00  0.00     0.274 HD
ATOM     13  H82 UNL     1      15.158  46.871 -49.126  1.00  0.00     0.274 HD
ATOM     14  H81 UNL     1      15.503  47.460 -47.584  1.00  0.00     0.274 HD
ENDBRANCH  10  11
ENDBRANCH   6  10
BRANCH   3  15
HETATM   15  C3  UNL     1      15.823  48.734 -53.418  1.00  0.00     0.157 A 
HETATM   16  N2  UNL     1      17.168  48.729 -53.608  1.00  0.00    -0.325 N 
HETATM   17  C4  UNL     1      17.678  48.407 -54.802  1.00  0.00     0.114 A 
ATOM     18  H2  UNL     1      17.791  48.972 -52.838  1.00  0.00     0.169 HD
HETATM   19  C6  UNL     1      16.866  48.073 -55.870  1.00  0.00     0.123 A 
HETATM   20  C7  UNL     1      15.506  48.080 -55.672  1.00  0.00     0.252 A 
HETATM   21  O1  UNL     1      14.693  47.785 -56.599  1.00  0.00    -0.268 OA
HETATM   22  N6  UNL     1      15.021  48.411 -54.445  1.00  0.00    -0.301 N 
HETATM   23  C8  UNL     1      13.584  48.421 -54.224  1.00  0.00     0.161 C 
BRANCH  17  24
HETATM   24  N3  UNL     1      19.097  48.393 -55.039  1.00  0.00    -0.317 N 
HETATM   25  C5  UNL     1      20.026  48.437 -53.969  1.00  0.00     0.187 C 
HETATM   26  N4  UNL     1      20.646  47.349 -53.671  1.00  0.00    -0.373 N 
HETATM   27  N5  UNL     1      20.294  49.616 -53.227  1.00  0.00    -0.064 NA
ATOM     28  H42 UNL     1      20.454  46.500 -54.204  1.00  0.00     0.158 HD
ATOM     29  H41 UNL     1      21.315  47.380 -52.900  1.00  0.00     0.158 HD
ATOM     30  H3  UNL     1      19.442  48.349 -55.998  1.00  0.00     0.170 HD
ENDBRANCH  17  24
ENDBRANCH   3  15
TORSDOF 4
ENDMDL
MODEL 4
REMARK VINA RESULT: -7.376557185      4.726      8.162
REMARK  4 active torsions:
REMARK  status: ('A' for Active; 'I' for Inactive)
REMARK    1  A    between atoms: C2_3  and  C3_4 
REMARK    2  A    between atoms: C4_7  and  N3_8 
REMARK       I    between atoms: N3_8  and  C5_10 
REMARK    3  A    between atoms: C9_22  and  C10_23 
REMARK    4  A    between atoms: C10_23  and  N8_24 
ROOT
HETATM    1  C1  UNL     1      14.981  51.576 -52.548  1.00  0.00     0.159 C 
HETATM    2  N1  UNL     1      14.939  50.376 -51.759  1.00  0.00    -0.324 N 
HETATM    3  C2  UNL     1      15.306  49.135 -52.121  1.00  0.00     0.154 A 
HETATM    4  N7  UNL     1      15.088  48.372 -51.069  1.00  0.00    -0.339 N 
ATOM      5  H7  UNL     1      15.275  47.370 -51.043  1.00  0.00     0.167 HD
HETATM    6  C9  UNL     1      14.592  49.070 -50.039  1.00  0.00     0.074 A 
HETATM    7  C11 UNL     1      14.494  50.355 -50.470  1.00  0.00     0.141 A 
HETATM    8  C12 UNL     1      14.006  51.473 -49.695  1.00  0.00     0.120 C 
HETATM    9  N9  UNL     1      13.600  52.372 -49.086  1.00  0.00    -0.190 NA
ENDROOT
BRANCH   6  10
HETATM   10  C10 UNL     1      14.205  48.617 -48.677  1.00  0.00     0.289 C 
BRANCH  10  11
HETATM   11  N8  UNL     1      14.813  47.349 -48.352  1.00  0.00    -0.074 N 
ATOM     12  H83 UNL     1      15.608  47.465 -47.722  1.00  0.00     0.274 HD
ATOM     13  H82 UNL     1      14.212  46.791 -47.745  1.00  0.00     0.274 HD
ATOM     14  H81 UNL     1      15.074  46.835 -49.193  1.00  0.00     0.274 HD
ENDBRANCH  10  11
ENDBRANCH   6  10
BRANCH   3  15
HETATM   15  C3  UNL     1      15.840  48.786 -53.455  1.00  0.00     0.157 A 
HETATM   16  N2  UNL     1      17.182  48.828 -53.658  1.00  0.00    -0.325 N 
HETATM   17  C4  UNL     1      17.692  48.518 -54.855  1.00  0.00     0.114 A 
ATOM     18  H2  UNL     1      17.803  49.097 -52.895  1.00  0.00     0.169 HD
HETATM   19  C6  UNL     1      16.883  48.148 -55.914  1.00  0.00     0.123 A 
HETATM   20  C7  UNL     1      15.525  48.107 -55.703  1.00  0.00     0.252 A 
HETATM   21  O1  UNL     1      14.715  47.778 -56.620  1.00  0.00    -0.268 OA
HETATM   22  N6  UNL     1      15.040  48.428 -54.473  1.00  0.00    -0.301 N 
HETATM   23  C8  UNL     1      13.606  48.388 -54.239  1.00  0.00     0.161 C 
BRANCH  17  24
HETATM   24  N3  UNL     1      19.108  48.553 -55.106  1.00  0.00    -0.317 N 
HETATM   25  C5  UNL     1      19.752  49.737 -55.547  1.00  0.00     0.187 C 
HETATM   26  N4  UNL     1      20.470  50.380 -54.694  1.00  0.00    -0.373 N 
HETATM   27  N5  UNL     1      19.638  50.230 -56.873  1.00  0.00    -0.064 NA
ATOM     28  H42 UNL     1      20.553  50.025 -53.741  1.00  0.00     0.158 HD
ATOM     29  H41 UNL     1      20.934  51.232 -55.012  1.00  0.00     0.158 HD
ATOM     30  H3  UNL     1      19.661  47.708 -54.963  1.00  0.00     0.170 HD
ENDBRANCH  17  24
ENDBRANCH   3  15
TORSDOF 4
ENDMDL
MODEL 5
REMARK VINA RESULT: -7.334151462      2.108      3.808
REMARK  4 active torsions:
REMARK  status: ('A' for Active; 'I' for Inactive)
REMARK    1  A    between atoms: C2_3  and  C3_4 
REMARK    2  A    between atoms: C4_7  and  N3_8 
REMARK       I    between atoms: N3_8  and  C5_10 
REMARK    3  A    between atoms: C9_22  and  C10_23 
REMARK    4  A    between atoms: C10_23  and  N8_24 
ROOT
HETATM    1  C1  UNL     1      15.226  54.278 -51.291  1.00  0.00     0.159 C 
HETATM    2  N1  UNL     1      13.951  54.436 -51.934  1.00  0.00    -0.324 N 
HETATM    3  C2  UNL     1      13.013  53.499 -52.152  1.00  0.00     0.154 A 
HETATM    4  N7  UNL     1      12.023  54.112 -52.769  1.00  0.00    -0.339 N 
ATOM      5  H7  UNL     1      11.163  53.653 -53.064  1.00  0.00     0.167 HD
HETATM    6  C9  UNL     1      12.284  55.413 -52.960  1.00  0.00     0.074 A 
HETATM    7  C11 UNL     1      13.515  55.630 -52.429  1.00  0.00     0.141 A 
HETATM    8  C12 UNL     1      14.215  56.895 -52.403  1.00  0.00     0.120 C 
HETATM    9  N9  UNL     1      14.791  57.901 -52.393  1.00  0.00    -0.190 NA
ENDROOT
BRANCH   6  10
HETATM   10  C10 UNL     1      11.458  56.467 -53.607  1.00  0.00     0.289 C 
BRANCH  10  11
HETATM   11  N8  UNL     1      10.909  57.378 -52.630  1.00  0.00    -0.074 N 
ATOM     12  H83 UNL     1      10.858  56.949 -51.706  1.00  0.00     0.274 HD
ATOM     13  H82 UNL     1      11.560  58.134 -52.417  1.00  0.00     0.274 HD
ATOM     14  H81 UNL     1      10.002  57.738 -52.926  1.00  0.00     0.274 HD
ENDBRANCH  10  11
ENDBRANCH   6  10
BRANCH   3  15
HETATM   15  C3  UNL     1      13.148  52.084 -51.746  1.00  0.00     0.157 A 
HETATM   16  N2  UNL     1      13.805  51.224 -52.566  1.00  0.00    -0.325 N 
HETATM   17  C4  UNL     1      13.942  49.938 -52.223  1.00  0.00     0.114 A 
ATOM     18  H2  UNL     1      14.195  51.559 -53.447  1.00  0.00     0.169 HD
HETATM   19  C6  UNL     1      13.428  49.445 -51.038  1.00  0.00     0.123 A 
HETATM   20  C7  UNL     1      12.763  50.320 -50.212  1.00  0.00     0.252 A 
HETATM   21  O1  UNL     1      12.263  49.948 -49.108  1.00  0.00    -0.268 OA
HETATM   22  N6  UNL     1      12.643  51.620 -50.591  1.00  0.00    -0.301 N 
HETATM   23  C8  UNL     1      11.942  52.554 -49.724  1.00  0.00     0.161 C 
BRANCH  17  24
HETATM   24  N3  UNL     1      14.632  48.999 -53.068  1.00  0.00    -0.317 N 
HETATM   25  C5  UNL     1      13.923  48.074 -53.878  1.00  0.00     0.187 C 
HETATM   26  N4  UNL     1      13.878  48.302 -55.144  1.00  0.00    -0.373 N 
HETATM   27  N5  UNL     1      13.275  46.927 -53.353  1.00  0.00    -0.064 NA
ATOM     28  H42 UNL     1      14.344  49.127 -55.522  1.00  0.00     0.158 HD
ATOM     29  H41 UNL     1      13.369  47.636 -55.727  1.00  0.00     0.158 HD
ATOM     30  H3  UNL     1      15.651  48.998 -53.086  1.00  0.00     0.170 HD
ENDBRANCH  17  24
ENDBRANCH   3  15
TORSDOF 4
ENDMDL
