MODEL 1
REMARK VINA RESULT: -8.157441418      0.000      0.000
REMARK  6 active torsions:
REMARK  status: ('A' for Active; 'I' for Inactive)
REMARK       I    between atoms: C1_4  and  N2_5 
REMARK       I    between atoms: C1_4  and  N10_30 
REMARK    1  A    between atoms: C4_9  and  O1_10 
REMARK    2  A    between atoms: O1_10  and  C5_11 
REMARK    3  A    between atoms: C5_11  and  C6_12 
REMARK    4  A    between atoms: C6_12  and  N3_13 
REMARK       I    between atoms: N3_13  and  C7_15 
REMARK    5  A    between atoms: C7_15  and  C8_17 
REMARK    6  A    between atoms: N10_30  and  N11_32 
ROOT
HETATM    1  N1  UNL     1      16.497  49.533 -57.099  1.00  0.00    -0.233 N 
ATOM      2  H11 UNL     1      17.425  49.853 -57.377  1.00  0.00     0.174 HD
ATOM      3  H12 UNL     1      15.697  50.075 -57.425  1.00  0.00     0.174 HD
HETATM    4  C1  UNL     1      16.322  48.490 -56.366  1.00  0.00     0.696 C 
HETATM    5  N2  UNL     1      15.028  48.043 -55.978  1.00  0.00    -0.178 N 
ATOM      6  H2  UNL     1      14.515  47.402 -56.583  1.00  0.00     0.185 HD
HETATM    7  C2  UNL     1      14.494  48.438 -54.867  1.00  0.00     0.119 A 
HETATM    8  C3  UNL     1      15.051  49.356 -53.849  1.00  0.00     0.164 A 
HETATM    9  C4  UNL     1      13.981  49.411 -52.833  1.00  0.00     0.139 A 
HETATM   10  N8  UNL     1      13.019  48.679 -53.196  1.00  0.00    -0.282 N 
ATOM     11  H8  UNL     1      12.170  48.567 -52.643  1.00  0.00     0.189 HD
HETATM   12  N9  UNL     1      13.211  48.044 -54.402  1.00  0.00    -0.286 N 
ATOM     13  H9  UNL     1      12.560  47.414 -54.870  1.00  0.00     0.188 HD
HETATM   14  N10 UNL     1      17.435  47.735 -55.912  1.00  0.00    -0.072 N 
ATOM     15  H10 UNL     1      17.515  46.752 -56.171  1.00  0.00     0.212 HD
ENDROOT
BRANCH   9  16
HETATM   16  O1  UNL     1      13.990  50.138 -51.651  1.00  0.00    -0.336 OA
BRANCH  16  17
HETATM   17  C5  UNL     1      13.745  51.531 -51.603  1.00  0.00     0.197 C 
BRANCH  17  18
HETATM   18  C6  UNL     1      12.508  51.892 -50.873  1.00  0.00     0.149 C 
BRANCH  18  19
HETATM   19  N3  UNL     1      12.413  51.152 -49.638  1.00  0.00    -0.352 N 
HETATM   20  C7  UNL     1      11.613  51.545 -48.545  1.00  0.00     0.288 C 
HETATM   21  O2  UNL     1      10.926  52.583 -48.615  1.00  0.00    -0.264 OA
ATOM     22  H3  UNL     1      12.957  50.294 -49.550  1.00  0.00     0.162 HD
BRANCH  20  23
HETATM   23  C8  UNL     1      11.566  50.754 -47.310  1.00  0.00     0.206 A 
HETATM   24  N4  UNL     1      12.549  50.625 -46.404  1.00  0.00    -0.264 N 
HETATM   25  N5  UNL     1      12.126  49.841 -45.447  1.00  0.00    -0.226 N 
ATOM     26  H4  UNL     1      13.468  51.062 -46.454  1.00  0.00     0.190 HD
HETATM   27  N6  UNL     1      10.904  49.467 -45.712  1.00  0.00    -0.226 N 
ATOM     28  H5  UNL     1      12.663  49.566 -44.625  1.00  0.00     0.210 HD
HETATM   29  N7  UNL     1      10.535  50.016 -46.854  1.00  0.00    -0.264 N 
ATOM     30  H6  UNL     1      10.330  48.854 -45.133  1.00  0.00     0.210 HD
ATOM     31  H7  UNL     1       9.630  49.902 -47.312  1.00  0.00     0.190 HD
ENDBRANCH  20  23
ENDBRANCH  18  19
ENDBRANCH  17  18
ENDBRANCH  16  17
ENDBRANCH   9  16
BRANCH  14  32
HETATM   32  N11 UNL     1      18.423  48.319 -55.114  1.00  0.00    -0.024 N 
HETATM   33  O3  UNL     1      18.415  48.114 -53.878  1.00  0.00    -0.516 OA
HETATM   34  O4  UNL     1      19.365  49.097 -55.719  1.00  0.00    -0.516 OA
ENDBRANCH  14  32
TORSDOF 6
ENDMDL
MODEL 2
REMARK VINA RESULT: -8.039949020      1.762      2.074
REMARK  6 active torsions:
REMARK  status: ('A' for Active; 'I' for Inactive)
REMARK       I    between atoms: C1_4  and  N2_5 
REMARK       I    between atoms: C1_4  and  N10_30 
REMARK    1  A    between atoms: C4_9  and  O1_10 
REMARK    2  A    between atoms: O1_10  and  C5_11 
REMARK    3  A    between atoms: C5_11  and  C6_12 
REMARK    4  A    between atoms: C6_12  and  N3_13 
REMARK       I    between atoms: N3_13  and  C7_15 
REMARK    5  A    between atoms: C7_15  and  C8_17 
REMARK    6  A    between atoms: N10_30  and  N11_32 
ROOT
HETATM    1  N1  UNL     1      15.521  50.387 -57.801  1.00  0.00    -0.233 N 
ATOM      2  H11 UNL     1      16.210  50.996 -58.241  1.00  0.00     0.174 HD
ATOM      3  H12 UNL     1      14.547  50.688 -57.824  1.00  0.00     0.174 HD
HETATM    4  C1  UNL     1      15.847  49.278 -57.235  1.00  0.00     0.696 C 
HETATM    5  N2  UNL     1      14.885  48.428 -56.621  1.00  0.00    -0.178 N 
ATOM      6  H2  UNL     1      14.411  47.719 -57.180  1.00  0.00     0.185 HD
HETATM    7  C2  UNL     1      14.604  48.542 -55.362  1.00  0.00     0.119 A 
HETATM    8  C3  UNL     1      15.162  49.490 -54.374  1.00  0.00     0.164 A 
HETATM    9  C4  UNL     1      14.451  49.127 -53.131  1.00  0.00     0.139 A 
HETATM   10  N8  UNL     1      13.658  48.174 -53.364  1.00  0.00    -0.282 N 
ATOM     11  H8  UNL     1      13.063  47.761 -52.646  1.00  0.00     0.189 HD
HETATM   12  N9  UNL     1      13.661  47.737 -54.669  1.00  0.00    -0.286 N 
ATOM     13  H9  UNL     1      13.096  46.984 -55.062  1.00  0.00     0.188 HD
HETATM   14  N10 UNL     1      17.202  48.858 -57.202  1.00  0.00    -0.072 N 
ATOM     15  H10 UNL     1      17.464  47.973 -57.636  1.00  0.00     0.212 HD
ENDROOT
BRANCH   9  16
HETATM   16  O1  UNL     1      14.602  49.714 -51.882  1.00  0.00    -0.336 OA
BRANCH  16  17
HETATM   17  C5  UNL     1      14.490  48.989 -50.673  1.00  0.00     0.197 C 
BRANCH  17  18
HETATM   18  C6  UNL     1      14.574  49.836 -49.461  1.00  0.00     0.149 C 
BRANCH  18  19
HETATM   19  N3  UNL     1      13.271  50.344 -49.106  1.00  0.00    -0.352 N 
HETATM   20  C7  UNL     1      12.647  50.109 -47.864  1.00  0.00     0.288 C 
HETATM   21  O2  UNL     1      13.227  49.434 -46.992  1.00  0.00    -0.264 OA
ATOM     22  H3  UNL     1      12.772  50.906 -49.795  1.00  0.00     0.162 HD
BRANCH  20  23
HETATM   23  C8  UNL     1      11.314  50.645 -47.565  1.00  0.00     0.206 A 
HETATM   24  N4  UNL     1      10.316  50.004 -46.935  1.00  0.00    -0.264 N 
HETATM   25  N5  UNL     1       9.291  50.812 -46.859  1.00  0.00    -0.226 N 
ATOM     26  H4  UNL     1      10.351  49.050 -46.577  1.00  0.00     0.190 HD
HETATM   27  N6  UNL     1       9.603  51.948 -47.420  1.00  0.00    -0.226 N 
ATOM     28  H5  UNL     1       8.392  50.590 -46.431  1.00  0.00     0.210 HD
HETATM   29  N7  UNL     1      10.843  51.872 -47.863  1.00  0.00    -0.264 N 
ATOM     30  H6  UNL     1       8.990  52.760 -47.501  1.00  0.00     0.210 HD
ATOM     31  H7  UNL     1      11.356  52.611 -48.345  1.00  0.00     0.190 HD
ENDBRANCH  20  23
ENDBRANCH  18  19
ENDBRANCH  17  18
ENDBRANCH  16  17
ENDBRANCH   9  16
BRANCH  14  32
HETATM   32  N11 UNL     1      18.183  49.640 -56.586  1.00  0.00    -0.024 N 
HETATM   33  O3  UNL     1      19.045  49.087 -55.864  1.00  0.00    -0.516 OA
HETATM   34  O4  UNL     1      18.162  50.987 -56.797  1.00  0.00    -0.516 OA
ENDBRANCH  14  32
TORSDOF 6
ENDMDL
MODEL 3
REMARK VINA RESULT: -8.036655391      3.189      7.920
REMARK  6 active torsions:
REMARK  status: ('A' for Active; 'I' for Inactive)
REMARK       I    between atoms: C1_4  and  N2_5 
REMARK       I    between atoms: C1_4  and  N10_30 
REMARK    1  A    between atoms: C4_9  and  O1_10 
REMARK    2  A    between atoms: O1_10  and  C5_11 
REMARK    3  A    between atoms: C5_11  and  C6_12 
REMARK    4  A    between atoms: C6_12  and  N3_13 
REMARK       I    between atoms: N3_13  and  C7_15 
REMARK    5  A    between atoms: C7_15  and  C8_17 
REMARK    6  A    between atoms: N10_30  and  N11_32 
ROOT
HETATM    1  N1  UNL     1      13.496  50.429 -51.223  1.00  0.00    -0.233 N 
ATOM      2  H11 UNL     1      13.101  50.838 -52.070  1.00  0.00     0.174 HD
ATOM      3  H12 UNL     1      13.863  51.071 -50.521  1.00  0.00     0.174 HD
HETATM    4  C1  UNL     1      13.539  49.158 -51.029  1.00  0.00     0.696 C 
HETATM    5  N2  UNL     1      14.090  48.588 -49.848  1.00  0.00    -0.178 N 
ATOM      6  H2  UNL     1      13.493  48.444 -49.033  1.00  0.00     0.185 HD
HETATM    7  C2  UNL     1      15.338  48.249 -49.792  1.00  0.00     0.119 A 
HETATM    8  C3  UNL     1      16.374  48.368 -50.842  1.00  0.00     0.164 A 
HETATM    9  C4  UNL     1      17.577  47.821 -50.181  1.00  0.00     0.139 A 
HETATM   10  N8  UNL     1      17.285  47.466 -49.005  1.00  0.00    -0.282 N 
ATOM     11  H8  UNL     1      17.967  47.059 -48.366  1.00  0.00     0.189 HD
HETATM   12  N9  UNL     1      15.970  47.675 -48.658  1.00  0.00    -0.286 N 
ATOM     13  H9  UNL     1      15.534  47.460 -47.761  1.00  0.00     0.188 HD
HETATM   14  N10 UNL     1      13.029  48.264 -52.006  1.00  0.00    -0.072 N 
ATOM     15  H10 UNL     1      12.269  47.630 -51.759  1.00  0.00     0.212 HD
ENDROOT
BRANCH   9  16
HETATM   16  O1  UNL     1      18.846  47.697 -50.728  1.00  0.00    -0.336 OA
BRANCH  16  17
HETATM   17  C5  UNL     1      19.360  48.598 -51.691  1.00  0.00     0.197 C 
BRANCH  17  18
HETATM   18  C6  UNL     1      19.552  47.992 -53.029  1.00  0.00     0.149 C 
BRANCH  18  19
HETATM   19  N3  UNL     1      18.330  48.057 -53.794  1.00  0.00    -0.352 N 
HETATM   20  C7  UNL     1      18.263  48.492 -55.134  1.00  0.00     0.288 C 
HETATM   21  O2  UNL     1      19.301  48.842 -55.729  1.00  0.00    -0.264 OA
ATOM     22  H3  UNL     1      17.463  47.771 -53.339  1.00  0.00     0.162 HD
BRANCH  20  23
HETATM   23  C8  UNL     1      16.987  48.545 -55.858  1.00  0.00     0.206 A 
HETATM   24  N4  UNL     1      16.660  49.399 -56.841  1.00  0.00    -0.264 N 
HETATM   25  N5  UNL     1      15.441  49.130 -57.231  1.00  0.00    -0.226 N 
ATOM     26  H4  UNL     1      17.260  50.131 -57.221  1.00  0.00     0.190 HD
HETATM   27  N6  UNL     1      14.980  48.133 -56.527  1.00  0.00    -0.226 N 
ATOM     28  H5  UNL     1      14.932  49.621 -57.966  1.00  0.00     0.210 HD
HETATM   29  N7  UNL     1      15.913  47.753 -55.674  1.00  0.00    -0.264 N 
ATOM     30  H6  UNL     1      14.054  47.716 -56.621  1.00  0.00     0.210 HD
ATOM     31  H7  UNL     1      15.835  46.995 -54.996  1.00  0.00     0.190 HD
ENDBRANCH  20  23
ENDBRANCH  18  19
ENDBRANCH  17  18
ENDBRANCH  16  17
ENDBRANCH   9  16
BRANCH  14  32
HETATM   32  N11 UNL     1      13.551  48.240 -53.302  1.00  0.00    -0.024 N 
HETATM   33  O3  UNL     1      13.317  47.255 -54.041  1.00  0.00    -0.516 OA
HETATM   34  O4  UNL     1      14.302  49.300 -53.715  1.00  0.00    -0.516 OA
ENDBRANCH  14  32
TORSDOF 6
ENDMDL
MODEL 4
REMARK VINA RESULT: -8.034749805      3.129      4.644
REMARK  6 active torsions:
REMARK  status: ('A' for Active; 'I' for Inactive)
REMARK       I    between atoms: C1_4  and  N2_5 
REMARK       I    between atoms: C1_4  and  N10_30 
REMARK    1  A    between atoms: C4_9  and  O1_10 
REMARK    2  A    between atoms: O1_10  and  C5_11 
REMARK    3  A    between atoms: C5_11  and  C6_12 
REMARK    4  A    between atoms: C6_12  and  N3_13 
REMARK       I    between atoms: N3_13  and  C7_15 
REMARK    5  A    between atoms: C7_15  and  C8_17 
REMARK    6  A    between atoms: N10_30  and  N11_32 
ROOT
HETATM    1  N1  UNL     1      17.178  48.921 -48.727  1.00  0.00    -0.233 N 
ATOM      2  H11 UNL     1      17.166  48.917 -47.707  1.00  0.00     0.174 HD
ATOM      3  H12 UNL     1      17.939  49.422 -49.185  1.00  0.00     0.174 HD
HETATM    4  C1  UNL     1      16.277  48.325 -49.427  1.00  0.00     0.696 C 
HETATM    5  N2  UNL     1      16.294  48.331 -50.849  1.00  0.00    -0.178 N 
ATOM      6  H2  UNL     1      16.811  47.608 -51.349  1.00  0.00     0.185 HD
HETATM    7  C2  UNL     1      15.660  49.241 -51.518  1.00  0.00     0.119 A 
HETATM    8  C3  UNL     1      14.857  50.372 -51.005  1.00  0.00     0.164 A 
HETATM    9  C4  UNL     1      14.402  51.041 -52.241  1.00  0.00     0.139 A 
HETATM   10  N8  UNL     1      14.853  50.421 -53.244  1.00  0.00    -0.282 N 
ATOM     11  H8  UNL     1      14.662  50.709 -54.203  1.00  0.00     0.189 HD
HETATM   12  N9  UNL     1      15.623  49.322 -52.935  1.00  0.00    -0.286 N 
ATOM     13  H9  UNL     1      16.078  48.691 -53.594  1.00  0.00     0.188 HD
HETATM   14  N10 UNL     1      15.217  47.628 -48.791  1.00  0.00    -0.072 N 
ATOM     15  H10 UNL     1      15.099  46.629 -48.961  1.00  0.00     0.212 HD
ENDROOT
BRANCH   9  16
HETATM   16  O1  UNL     1      13.606  52.173 -52.332  1.00  0.00    -0.336 OA
BRANCH  16  17
HETATM   17  C5  UNL     1      12.275  52.218 -51.856  1.00  0.00     0.197 C 
BRANCH  17  18
HETATM   18  C6  UNL     1      12.129  52.925 -50.563  1.00  0.00     0.149 C 
BRANCH  18  19
HETATM   19  N3  UNL     1      12.212  51.994 -49.463  1.00  0.00    -0.352 N 
HETATM   20  C7  UNL     1      11.257  51.909 -48.430  1.00  0.00     0.288 C 
HETATM   21  O2  UNL     1      10.263  52.661 -48.436  1.00  0.00    -0.264 OA
ATOM     22  H3  UNL     1      13.010  51.359 -49.432  1.00  0.00     0.162 HD
BRANCH  20  23
HETATM   23  C8  UNL     1      11.402  50.946 -47.332  1.00  0.00     0.206 A 
HETATM   24  N4  UNL     1      10.500  50.027 -46.949  1.00  0.00    -0.264 N 
HETATM   25  N5  UNL     1      10.995  49.362 -45.938  1.00  0.00    -0.226 N 
ATOM     26  H4  UNL     1       9.586  49.874 -47.374  1.00  0.00     0.190 HD
HETATM   27  N6  UNL     1      12.183  49.826 -45.664  1.00  0.00    -0.226 N 
ATOM     28  H5  UNL     1      10.527  48.602 -45.443  1.00  0.00     0.210 HD
HETATM   29  N7  UNL     1      12.458  50.803 -46.508  1.00  0.00    -0.264 N 
ATOM     30  H6  UNL     1      12.797  49.490 -44.922  1.00  0.00     0.210 HD
ATOM     31  H7  UNL     1      13.317  51.351 -46.533  1.00  0.00     0.190 HD
ENDBRANCH  20  23
ENDBRANCH  18  19
ENDBRANCH  17  18
ENDBRANCH  16  17
ENDBRANCH   9  16
BRANCH  14  32
HETATM   32  N11 UNL     1      14.333  48.290 -47.934  1.00  0.00    -0.024 N 
HETATM   33  O3  UNL     1      13.124  48.383 -48.251  1.00  0.00    -0.516 OA
HETATM   34  O4  UNL     1      14.826  48.813 -46.775  1.00  0.00    -0.516 OA
ENDBRANCH  14  32
TORSDOF 6
ENDMDL
MODEL 5
REMARK VINA RESULT: -8.009182682      1.851      2.198
REMARK  6 active torsions:
REMARK  status: ('A' for Active; 'I' for Inactive)
REMARK       I    between atoms: C1_4  and  N2_5 
REMARK       I    between atoms: C1_4  and  N10_30 
REMARK    1  A    between atoms: C4_9  and  O1_10 
REMARK    2  A    between atoms: O1_10  and  C5_11 
REMARK    3  A    between atoms: C5_11  and  C6_12 
REMARK    4  A    between atoms: C6_12  and  N3_13 
REMARK       I    between atoms: N3_13  and  C7_15 
REMARK    5  A    between atoms: C7_15  and  C8_17 
REMARK    6  A    between atoms: N10_30  and  N11_32 
ROOT
HETATM    1  N1  UNL     1      15.737  49.567 -56.531  1.00  0.00    -0.233 N 
ATOM      2  H11 UNL     1      16.555  49.996 -56.966  1.00  0.00     0.174 HD
ATOM      3  H12 UNL     1      14.853  50.072 -56.598  1.00  0.00     0.174 HD
HETATM    4  C1  UNL     1      15.798  48.438 -55.918  1.00  0.00     0.696 C 
HETATM    5  N2  UNL     1      14.658  47.840 -55.313  1.00  0.00    -0.178 N 
ATOM      6  H2  UNL     1      14.057  47.229 -55.866  1.00  0.00     0.185 HD
HETATM    7  C2  UNL     1      14.373  48.061 -54.069  1.00  0.00     0.119 A 
HETATM    8  C3  UNL     1      15.096  48.904 -53.092  1.00  0.00     0.164 A 
HETATM    9  C4  UNL     1      14.289  48.753 -51.864  1.00  0.00     0.139 A 
HETATM   10  N8  UNL     1      13.314  47.985 -52.095  1.00  0.00    -0.282 N 
ATOM     11  H8  UNL     1      12.624  47.739 -51.386  1.00  0.00     0.189 HD
HETATM   12  N9  UNL     1      13.258  47.508 -53.385  1.00  0.00    -0.286 N 
ATOM     13  H9  UNL     1      12.555  46.880 -53.774  1.00  0.00     0.188 HD
HETATM   14  N10 UNL     1      17.028  47.736 -55.824  1.00  0.00    -0.072 N 
ATOM     15  H10 UNL     1      17.103  46.799 -56.220  1.00  0.00     0.212 HD
ENDROOT
BRANCH   9  16
HETATM   16  O1  UNL     1      14.529  49.341 -50.631  1.00  0.00    -0.336 OA
BRANCH  16  17
HETATM   17  C5  UNL     1      15.362  48.757 -49.649  1.00  0.00     0.197 C 
BRANCH  17  18
HETATM   18  C6  UNL     1      14.673  48.490 -48.365  1.00  0.00     0.149 C 
BRANCH  18  19
HETATM   19  N3  UNL     1      13.385  49.141 -48.337  1.00  0.00    -0.352 N 
HETATM   20  C7  UNL     1      12.825  49.727 -47.183  1.00  0.00     0.288 C 
HETATM   21  O2  UNL     1      13.453  49.709 -46.107  1.00  0.00    -0.264 OA
ATOM     22  H3  UNL     1      12.848  49.179 -49.203  1.00  0.00     0.162 HD
BRANCH  20  23
HETATM   23  C8  UNL     1      11.505  50.367 -47.215  1.00  0.00     0.206 A 
HETATM   24  N4  UNL     1      10.350  49.841 -46.776  1.00  0.00    -0.264 N 
HETATM   25  N5  UNL     1       9.397  50.714 -46.976  1.00  0.00    -0.226 N 
ATOM     26  H4  UNL     1      10.234  48.918 -46.358  1.00  0.00     0.190 HD
HETATM   27  N6  UNL     1       9.908  51.781 -47.528  1.00  0.00    -0.226 N 
ATOM     28  H5  UNL     1       8.414  50.584 -46.738  1.00  0.00     0.210 HD
HETATM   29  N7  UNL     1      11.205  51.593 -47.686  1.00  0.00    -0.264 N 
ATOM     30  H6  UNL     1       9.391  52.620 -47.793  1.00  0.00     0.210 HD
ATOM     31  H7  UNL     1      11.863  52.257 -48.092  1.00  0.00     0.190 HD
ENDBRANCH  20  23
ENDBRANCH  18  19
ENDBRANCH  17  18
ENDBRANCH  16  17
ENDBRANCH   9  16
BRANCH  14  32
HETATM   32  N11 UNL     1      18.138  48.310 -55.198  1.00  0.00    -0.024 N 
HETATM   33  O3  UNL     1      18.369  48.047 -53.995  1.00  0.00    -0.516 OA
HETATM   34  O4  UNL     1      18.933  49.142 -55.930  1.00  0.00    -0.516 OA
ENDBRANCH  14  32
TORSDOF 6
ENDMDL
