MODEL 1
REMARK VINA RESULT: -6.724352834      0.000      0.000
REMARK  6 active torsions:
REMARK  status: ('A' for Active; 'I' for Inactive)
REMARK    1  A    between atoms: O1_1  and  C1_3 
REMARK    2  A    between atoms: C1_3  and  C2_4 
REMARK    3  A    between atoms: N1_8  and  C6_9 
REMARK    4  A    between atoms: C6_9  and  C7_10 
REMARK    5  A    between atoms: C7_10  and  N2_11 
REMARK    6  A    between atoms: N2_11  and  C8_13 
ROOT
HETATM    1  C6  UNL     1       2.144   3.341  27.218  1.00  0.00     0.147 C 
ENDROOT
BRANCH   1   2
HETATM    2  N1  UNL     1       2.580   1.982  27.255  1.00  0.00    -0.364 N 
HETATM    3  C5  UNL     1       2.477   1.184  28.328  1.00  0.00     0.090 A 
HETATM    4  C4  UNL     1       2.899  -0.119  28.355  1.00  0.00     0.018 A 
HETATM    5  C3  UNL     1       3.467  -0.676  27.231  1.00  0.00     0.012 A 
HETATM    6  C2  UNL     1       3.580   0.136  26.121  1.00  0.00    -0.019 A 
HETATM    7  C11 UNL     1       3.138   1.449  26.144  1.00  0.00     0.099 A 
BRANCH   6   8
HETATM    8  C1  UNL     1       4.186  -0.433  24.902  1.00  0.00     0.204 C 
BRANCH   8   9
HETATM    9  O1  UNL     1       3.525   0.024  23.759  1.00  0.00    -0.396 OA
ATOM     10  H1  UNL     1       3.585  -0.613  23.057  1.00  0.00     0.209 HD
ENDBRANCH   8   9
ENDBRANCH   6   8
ENDBRANCH   1   2
BRANCH   1  11
HETATM   11  C7  UNL     1       0.648   3.504  27.177  1.00  0.00     0.158 C 
BRANCH  11  12
HETATM   12  N2  UNL     1       0.123   3.538  25.853  1.00  0.00    -0.224 N 
ATOM     13  H2  UNL     1       0.212   4.409  25.330  1.00  0.00     0.177 HD
BRANCH  12  14
HETATM   14  C8  UNL     1      -0.455   2.543  25.269  1.00  0.00     0.677 A 
HETATM   15  N3  UNL     1      -0.306   1.255  25.625  1.00  0.00    -0.201 N 
HETATM   16  C9  UNL     1      -1.027   0.460  24.837  1.00  0.00     0.123 A 
ATOM     17  H3  UNL     1       0.280   0.931  26.394  1.00  0.00     0.183 HD
HETATM   18  C10 UNL     1      -1.669   1.284  23.933  1.00  0.00     0.123 A 
HETATM   19  N4  UNL     1      -1.297   2.542  24.226  1.00  0.00    -0.201 N 
ATOM     20  H4  UNL     1      -1.611   3.375  23.726  1.00  0.00     0.183 HD
ENDBRANCH  12  14
ENDBRANCH  11  12
ENDBRANCH   1  11
TORSDOF 6
ENDMDL
MODEL 2
REMARK VINA RESULT: -6.603207382      3.953      6.833
REMARK  6 active torsions:
REMARK  status: ('A' for Active; 'I' for Inactive)
REMARK    1  A    between atoms: O1_1  and  C1_3 
REMARK    2  A    between atoms: C1_3  and  C2_4 
REMARK    3  A    between atoms: N1_8  and  C6_9 
REMARK    4  A    between atoms: C6_9  and  C7_10 
REMARK    5  A    between atoms: C7_10  and  N2_11 
REMARK    6  A    between atoms: N2_11  and  C8_13 
ROOT
HETATM    1  C6  UNL     1       2.477  -0.322  29.303  1.00  0.00     0.147 C 
ENDROOT
BRANCH   1   2
HETATM    2  N1  UNL     1       2.529  -0.277  27.876  1.00  0.00    -0.364 N 
HETATM    3  C5  UNL     1       3.648  -0.442  27.156  1.00  0.00     0.090 A 
HETATM    4  C4  UNL     1       3.689  -0.395  25.787  1.00  0.00     0.018 A 
HETATM    5  C3  UNL     1       2.531  -0.169  25.076  1.00  0.00     0.012 A 
HETATM    6  C2  UNL     1       1.374   0.003  25.808  1.00  0.00    -0.019 A 
HETATM    7  C11 UNL     1       1.384  -0.053  27.192  1.00  0.00     0.099 A 
BRANCH   6   8
HETATM    8  C1  UNL     1       0.117   0.248  25.074  1.00  0.00     0.204 C 
BRANCH   8   9
HETATM    9  O1  UNL     1       0.373   0.514  23.727  1.00  0.00    -0.396 OA
ATOM     10  H1  UNL     1      -0.037  -0.138  23.170  1.00  0.00     0.209 HD
ENDBRANCH   8   9
ENDBRANCH   6   8
ENDBRANCH   1   2
BRANCH   1  11
HETATM   11  C7  UNL     1       2.809  -1.670  29.886  1.00  0.00     0.158 C 
BRANCH  11  12
HETATM   12  N2  UNL     1       3.643  -1.592  31.039  1.00  0.00    -0.224 N 
ATOM     13  H2  UNL     1       3.480  -0.823  31.690  1.00  0.00     0.177 HD
BRANCH  12  14
HETATM   14  C8  UNL     1       4.588  -2.425  31.317  1.00  0.00     0.677 A 
HETATM   15  N3  UNL     1       5.350  -3.050  30.402  1.00  0.00    -0.201 N 
HETATM   16  C9  UNL     1       6.239  -3.847  30.992  1.00  0.00     0.123 A 
ATOM     17  H3  UNL     1       5.260  -2.929  29.393  1.00  0.00     0.183 HD
HETATM   18  C10 UNL     1       6.032  -3.723  32.352  1.00  0.00     0.123 A 
HETATM   19  N4  UNL     1       5.022  -2.851  32.511  1.00  0.00    -0.201 N 
ATOM     20  H4  UNL     1       4.640  -2.558  33.411  1.00  0.00     0.183 HD
ENDBRANCH  12  14
ENDBRANCH  11  12
ENDBRANCH   1  11
TORSDOF 6
ENDMDL
MODEL 3
REMARK VINA RESULT: -6.512966497      3.621      4.370
REMARK  6 active torsions:
REMARK  status: ('A' for Active; 'I' for Inactive)
REMARK    1  A    between atoms: O1_1  and  C1_3 
REMARK    2  A    between atoms: C1_3  and  C2_4 
REMARK    3  A    between atoms: N1_8  and  C6_9 
REMARK    4  A    between atoms: C6_9  and  C7_10 
REMARK    5  A    between atoms: C7_10  and  N2_11 
REMARK    6  A    between atoms: N2_11  and  C8_13 
ROOT
HETATM    1  C6  UNL     1      -0.200   0.341  27.238  1.00  0.00     0.147 C 
ENDROOT
BRANCH   1   2
HETATM    2  N1  UNL     1       1.188   0.008  27.204  1.00  0.00    -0.364 N 
HETATM    3  C5  UNL     1       1.925  -0.270  28.289  1.00  0.00     0.090 A 
HETATM    4  C4  UNL     1       3.258  -0.587  28.246  1.00  0.00     0.018 A 
HETATM    5  C3  UNL     1       3.911  -0.633  27.035  1.00  0.00     0.012 A 
HETATM    6  C2  UNL     1       3.161  -0.349  25.911  1.00  0.00    -0.019 A 
HETATM    7  C11 UNL     1       1.816  -0.033  26.007  1.00  0.00     0.099 A 
BRANCH   6   8
HETATM    8  C1  UNL     1       3.834  -0.390  24.598  1.00  0.00     0.204 C 
BRANCH   8   9
HETATM    9  O1  UNL     1       3.076   0.274  23.632  1.00  0.00    -0.396 OA
ATOM     10  H1  UNL     1       2.663  -0.345  23.042  1.00  0.00     0.209 HD
ENDBRANCH   8   9
ENDBRANCH   6   8
ENDBRANCH   1   2
BRANCH   1  11
HETATM   11  C7  UNL     1      -0.719   0.670  28.612  1.00  0.00     0.158 C 
BRANCH  11  12
HETATM   12  N2  UNL     1      -1.876  -0.080  28.970  1.00  0.00    -0.224 N 
ATOM     13  H2  UNL     1      -2.782   0.268  28.658  1.00  0.00     0.177 HD
BRANCH  12  14
HETATM   14  C8  UNL     1      -1.857  -1.170  29.661  1.00  0.00     0.677 A 
HETATM   15  N3  UNL     1      -2.500  -2.301  29.322  1.00  0.00    -0.201 N 
HETATM   16  C9  UNL     1      -2.294  -3.253  30.231  1.00  0.00     0.123 A 
ATOM     17  H3  UNL     1      -3.069  -2.415  28.483  1.00  0.00     0.183 HD
HETATM   18  C10 UNL     1      -1.477  -2.699  31.197  1.00  0.00     0.123 A 
HETATM   19  N4  UNL     1      -1.233  -1.433  30.818  1.00  0.00    -0.201 N 
ATOM     20  H4  UNL     1      -0.657  -0.769  31.336  1.00  0.00     0.183 HD
ENDBRANCH  12  14
ENDBRANCH  11  12
ENDBRANCH   1  11
TORSDOF 6
ENDMDL
MODEL 4
REMARK VINA RESULT: -6.487622272      3.978      6.766
REMARK  6 active torsions:
REMARK  status: ('A' for Active; 'I' for Inactive)
REMARK    1  A    between atoms: O1_1  and  C1_3 
REMARK    2  A    between atoms: C1_3  and  C2_4 
REMARK    3  A    between atoms: N1_8  and  C6_9 
REMARK    4  A    between atoms: C6_9  and  C7_10 
REMARK    5  A    between atoms: C7_10  and  N2_11 
REMARK    6  A    between atoms: N2_11  and  C8_13 
ROOT
HETATM    1  C6  UNL     1       2.241  -0.513  29.321  1.00  0.00     0.147 C 
ENDROOT
BRANCH   1   2
HETATM    2  N1  UNL     1       1.906  -0.253  27.957  1.00  0.00    -0.364 N 
HETATM    3  C5  UNL     1       0.674   0.057  27.528  1.00  0.00     0.090 A 
HETATM    4  C4  UNL     1       0.362   0.304  26.217  1.00  0.00     0.018 A 
HETATM    5  C3  UNL     1       1.346   0.240  25.256  1.00  0.00     0.012 A 
HETATM    6  C2  UNL     1       2.618  -0.078  25.688  1.00  0.00    -0.019 A 
HETATM    7  C11 UNL     1       2.884  -0.320  27.025  1.00  0.00     0.099 A 
BRANCH   6   8
HETATM    8  C1  UNL     1       3.695  -0.155  24.681  1.00  0.00     0.204 C 
BRANCH   8   9
HETATM    9  O1  UNL     1       3.235   0.262  23.430  1.00  0.00    -0.396 OA
ATOM     10  H1  UNL     1       3.821  -0.028  22.741  1.00  0.00     0.209 HD
ENDBRANCH   8   9
ENDBRANCH   6   8
ENDBRANCH   1   2
BRANCH   1  11
HETATM   11  C7  UNL     1       3.368  -1.494  29.500  1.00  0.00     0.158 C 
BRANCH  11  12
HETATM   12  N2  UNL     1       3.557  -1.890  30.856  1.00  0.00    -0.224 N 
ATOM     13  H2  UNL     1       2.875  -1.569  31.543  1.00  0.00     0.177 HD
BRANCH  12  14
HETATM   14  C8  UNL     1       4.531  -2.626  31.275  1.00  0.00     0.677 A 
HETATM   15  N3  UNL     1       4.944  -2.691  32.553  1.00  0.00    -0.201 N 
HETATM   16  C9  UNL     1       5.967  -3.536  32.677  1.00  0.00     0.123 A 
ATOM     17  H3  UNL     1       4.531  -2.166  33.323  1.00  0.00     0.183 HD
HETATM   18  C10 UNL     1       6.217  -4.033  31.413  1.00  0.00     0.123 A 
HETATM   19  N4  UNL     1       5.325  -3.459  30.588  1.00  0.00    -0.201 N 
ATOM     20  H4  UNL     1       5.263  -3.631  29.584  1.00  0.00     0.183 HD
ENDBRANCH  12  14
ENDBRANCH  11  12
ENDBRANCH   1  11
TORSDOF 6
ENDMDL
MODEL 5
REMARK VINA RESULT: -6.409217266      1.546      3.258
REMARK  6 active torsions:
REMARK  status: ('A' for Active; 'I' for Inactive)
REMARK    1  A    between atoms: O1_1  and  C1_3 
REMARK    2  A    between atoms: C1_3  and  C2_4 
REMARK    3  A    between atoms: N1_8  and  C6_9 
REMARK    4  A    between atoms: C6_9  and  C7_10 
REMARK    5  A    between atoms: C7_10  and  N2_11 
REMARK    6  A    between atoms: N2_11  and  C8_13 
ROOT
HETATM    1  C6  UNL     1       0.251   1.356  27.279  1.00  0.00     0.147 C 
ENDROOT
BRANCH   1   2
HETATM    2  N1  UNL     1       1.476   0.623  27.231  1.00  0.00    -0.364 N 
HETATM    3  C5  UNL     1       2.082   0.093  28.303  1.00  0.00     0.090 A 
HETATM    4  C4  UNL     1       3.258  -0.608  28.247  1.00  0.00     0.018 A 
HETATM    5  C3  UNL     1       3.882  -0.800  27.035  1.00  0.00     0.012 A 
HETATM    6  C2  UNL     1       3.267  -0.259  25.924  1.00  0.00    -0.019 A 
HETATM    7  C11 UNL     1       2.078   0.443  26.033  1.00  0.00     0.099 A 
BRANCH   6   8
HETATM    8  C1  UNL     1       3.912  -0.447  24.611  1.00  0.00     0.204 C 
BRANCH   8   9
HETATM    9  O1  UNL     1       3.235   0.264  23.618  1.00  0.00    -0.396 OA
ATOM     10  H1  UNL     1       3.848   0.715  23.049  1.00  0.00     0.209 HD
ENDBRANCH   8   9
ENDBRANCH   6   8
ENDBRANCH   1   2
BRANCH   1  11
HETATM   11  C7  UNL     1      -0.016   2.185  26.051  1.00  0.00     0.158 C 
BRANCH  11  12
HETATM   12  N2  UNL     1       0.481   3.517  26.155  1.00  0.00    -0.224 N 
ATOM     13  H2  UNL     1       0.336   4.140  25.361  1.00  0.00     0.177 HD
BRANCH  12  14
HETATM   14  C8  UNL     1       1.100   3.990  27.184  1.00  0.00     0.677 A 
HETATM   15  N3  UNL     1       0.560   4.833  28.081  1.00  0.00    -0.201 N 
HETATM   16  C9  UNL     1       1.443   5.145  29.029  1.00  0.00     0.123 A 
ATOM     17  H3  UNL     1      -0.396   5.186  28.041  1.00  0.00     0.183 HD
HETATM   18  C10 UNL     1       2.604   4.464  28.718  1.00  0.00     0.123 A 
HETATM   19  N4  UNL     1       2.359   3.773  27.592  1.00  0.00    -0.201 N 
ATOM     20  H4  UNL     1       3.033   3.173  27.117  1.00  0.00     0.183 HD
ENDBRANCH  12  14
ENDBRANCH  11  12
ENDBRANCH   1  11
TORSDOF 6
ENDMDL
