MODEL 1
REMARK VINA RESULT: -6.413130218      0.000      0.000
REMARK  8 active torsions:
REMARK  status: ('A' for Active; 'I' for Inactive)
REMARK    1  A    between atoms: C1_4  and  C2_5 
REMARK    2  A    between atoms: C5_10  and  C6_11 
REMARK    3  A    between atoms: C7_12  and  C8_13 
REMARK    4  A    between atoms: C9_14  and  C10_15 
REMARK    5  A    between atoms: C10_15  and  O1_16 
REMARK    6  A    between atoms: O1_16  and  C11_17 
REMARK    7  A    between atoms: C11_17  and  C12_18 
REMARK    8  A    between atoms: C12_18  and  N3_19 
ROOT
HETATM    1  C6  UNL     1       1.726   0.763  28.217  1.00  0.00    -0.051 C 
HETATM    2  C7  UNL     1       2.164  -0.116  28.913  1.00  0.00    -0.009 C 
ENDROOT
BRANCH   1   3
HETATM    3  C5  UNL     1       1.197   1.832  27.415  1.00  0.00     0.048 A 
HETATM    4  C2  UNL     1       0.433   1.752  26.293  1.00  0.00     0.066 A 
HETATM    5  N2  UNL     1       0.161   3.021  25.865  1.00  0.00    -0.364 N 
HETATM    6  C3  UNL     1       0.751   3.876  26.714  1.00  0.00     0.090 A 
ATOM      7  H2  UNL     1      -0.393   3.273  25.046  1.00  0.00     0.165 HD
HETATM    8  C4  UNL     1       1.402   3.163  27.687  1.00  0.00     0.040 A 
BRANCH   4   9
HETATM    9  C1  UNL     1      -0.061   0.593  25.594  1.00  0.00     0.111 C 
HETATM   10  N1  UNL     1       0.324   0.218  24.469  1.00  0.00    -0.406 N 
ATOM     11  H12 UNL     1       1.044   0.787  24.023  1.00  0.00     0.155 HD
ATOM     12  H11 UNL     1      -0.026  -0.603  23.974  1.00  0.00     0.155 HD
ENDBRANCH   4   9
ENDBRANCH   1   3
BRANCH   2  13
HETATM   13  C8  UNL     1       2.672  -1.161  29.725  1.00  0.00    -0.013 C 
HETATM   14  C9  UNL     1       3.098  -2.042  30.434  1.00  0.00    -0.066 C 
BRANCH  14  15
HETATM   15  C10 UNL     1       3.614  -3.113  31.329  1.00  0.00     0.262 C 
BRANCH  15  16
HETATM   16  O1  UNL     1       3.572  -2.700  32.640  1.00  0.00    -0.378 OA
BRANCH  16  17
HETATM   17  C11 UNL     1       2.293  -2.540  33.112  1.00  0.00     0.196 C 
BRANCH  17  18
HETATM   18  C12 UNL     1       2.202  -2.348  34.606  1.00  0.00     0.255 C 
BRANCH  18  19
HETATM   19  N3  UNL     1       2.369  -0.958  34.984  1.00  0.00    -0.077 N 
ATOM     20  H33 UNL     1       3.308  -0.781  35.340  1.00  0.00     0.274 HD
ATOM     21  H32 UNL     1       2.390  -0.351  34.165  1.00  0.00     0.274 HD
ATOM     22  H31 UNL     1       1.657  -0.658  35.651  1.00  0.00     0.274 HD
ENDBRANCH  18  19
ENDBRANCH  17  18
ENDBRANCH  16  17
ENDBRANCH  15  16
ENDBRANCH  14  15
ENDBRANCH   2  13
TORSDOF 8
ENDMDL
MODEL 2
REMARK VINA RESULT: -6.309160415      1.984      2.220
REMARK  8 active torsions:
REMARK  status: ('A' for Active; 'I' for Inactive)
REMARK    1  A    between atoms: C1_4  and  C2_5 
REMARK    2  A    between atoms: C5_10  and  C6_11 
REMARK    3  A    between atoms: C7_12  and  C8_13 
REMARK    4  A    between atoms: C9_14  and  C10_15 
REMARK    5  A    between atoms: C10_15  and  O1_16 
REMARK    6  A    between atoms: O1_16  and  C11_17 
REMARK    7  A    between atoms: C11_17  and  C12_18 
REMARK    8  A    between atoms: C12_18  and  N3_19 
ROOT
HETATM    1  C6  UNL     1       1.858   0.758  28.206  1.00  0.00    -0.051 C 
HETATM    2  C7  UNL     1       2.336  -0.150  28.835  1.00  0.00    -0.009 C 
ENDROOT
BRANCH   1   3
HETATM    3  C5  UNL     1       1.316   1.863  27.464  1.00  0.00     0.048 A 
HETATM    4  C2  UNL     1       0.508   1.835  26.371  1.00  0.00     0.066 A 
HETATM    5  N2  UNL     1       0.240   3.122  25.998  1.00  0.00    -0.364 N 
HETATM    6  C3  UNL     1       0.877   3.937  26.854  1.00  0.00     0.090 A 
ATOM      7  H2  UNL     1      -0.340   3.412  25.211  1.00  0.00     0.165 HD
HETATM    8  C4  UNL     1       1.553   3.180  27.774  1.00  0.00     0.040 A 
BRANCH   4   9
HETATM    9  C1  UNL     1      -0.032   0.709  25.651  1.00  0.00     0.111 C 
HETATM   10  N1  UNL     1       0.365   0.316  24.536  1.00  0.00    -0.406 N 
ATOM     11  H12 UNL     1       1.131   0.843  24.115  1.00  0.00     0.155 HD
ATOM     12  H11 UNL     1      -0.017  -0.482  24.027  1.00  0.00     0.155 HD
ENDBRANCH   4   9
ENDBRANCH   1   3
BRANCH   2  13
HETATM   13  C8  UNL     1       2.886  -1.223  29.581  1.00  0.00    -0.013 C 
HETATM   14  C9  UNL     1       3.348  -2.128  30.234  1.00  0.00    -0.066 C 
BRANCH  14  15
HETATM   15  C10 UNL     1       3.909  -3.230  31.062  1.00  0.00     0.262 C 
BRANCH  15  16
HETATM   16  O1  UNL     1       4.968  -3.822  30.414  1.00  0.00    -0.378 OA
BRANCH  16  17
HETATM   17  C11 UNL     1       6.003  -4.142  31.257  1.00  0.00     0.196 C 
BRANCH  17  18
HETATM   18  C12 UNL     1       5.994  -3.389  32.565  1.00  0.00     0.255 C 
BRANCH  18  19
HETATM   19  N3  UNL     1       6.720  -4.097  33.601  1.00  0.00    -0.077 N 
ATOM     20  H33 UNL     1       7.695  -3.801  33.640  1.00  0.00     0.274 HD
ATOM     21  H32 UNL     1       6.424  -3.800  34.531  1.00  0.00     0.274 HD
ATOM     22  H31 UNL     1       6.645  -5.109  33.494  1.00  0.00     0.274 HD
ENDBRANCH  18  19
ENDBRANCH  17  18
ENDBRANCH  16  17
ENDBRANCH  15  16
ENDBRANCH  14  15
ENDBRANCH   2  13
TORSDOF 8
ENDMDL
MODEL 3
REMARK VINA RESULT: -6.290935137      2.032      2.250
REMARK  8 active torsions:
REMARK  status: ('A' for Active; 'I' for Inactive)
REMARK    1  A    between atoms: C1_4  and  C2_5 
REMARK    2  A    between atoms: C5_10  and  C6_11 
REMARK    3  A    between atoms: C7_12  and  C8_13 
REMARK    4  A    between atoms: C9_14  and  C10_15 
REMARK    5  A    between atoms: C10_15  and  O1_16 
REMARK    6  A    between atoms: O1_16  and  C11_17 
REMARK    7  A    between atoms: C11_17  and  C12_18 
REMARK    8  A    between atoms: C12_18  and  N3_19 
ROOT
HETATM    1  C6  UNL     1       1.186   0.894  28.200  1.00  0.00    -0.051 C 
HETATM    2  C7  UNL     1       1.499  -0.031  28.904  1.00  0.00    -0.009 C 
ENDROOT
BRANCH   1   3
HETATM    3  C5  UNL     1       0.840   2.016  27.371  1.00  0.00     0.048 A 
HETATM    4  C2  UNL     1       0.168   2.023  26.190  1.00  0.00     0.066 A 
HETATM    5  N2  UNL     1       0.067   3.315  25.757  1.00  0.00    -0.364 N 
HETATM    6  C3  UNL     1       0.671   4.099  26.664  1.00  0.00     0.090 A 
ATOM      7  H2  UNL     1      -0.386   3.628  24.899  1.00  0.00     0.165 HD
HETATM    8  C4  UNL     1       1.161   3.317  27.677  1.00  0.00     0.040 A 
BRANCH   4   9
HETATM    9  C1  UNL     1      -0.385   0.925  25.437  1.00  0.00     0.111 C 
HETATM   10  N1  UNL     1       0.204   0.317  24.522  1.00  0.00    -0.406 N 
ATOM     11  H12 UNL     1       1.149   0.632  24.302  1.00  0.00     0.155 HD
ATOM     12  H11 UNL     1      -0.188  -0.461  23.989  1.00  0.00     0.155 HD
ENDBRANCH   4   9
ENDBRANCH   1   3
BRANCH   2  13
HETATM   13  C8  UNL     1       1.855  -1.121  29.737  1.00  0.00    -0.013 C 
HETATM   14  C9  UNL     1       2.141  -2.061  30.440  1.00  0.00    -0.066 C 
BRANCH  14  15
HETATM   15  C10 UNL     1       2.472  -3.231  31.298  1.00  0.00     0.262 C 
BRANCH  15  16
HETATM   16  O1  UNL     1       3.670  -3.783  30.912  1.00  0.00    -0.378 OA
BRANCH  16  17
HETATM   17  C11 UNL     1       4.734  -2.933  31.090  1.00  0.00     0.196 C 
BRANCH  17  18
HETATM   18  C12 UNL     1       5.771  -3.432  32.066  1.00  0.00     0.255 C 
BRANCH  18  19
HETATM   19  N3  UNL     1       6.474  -4.595  31.561  1.00  0.00    -0.077 N 
ATOM     20  H33 UNL     1       7.466  -4.558  31.793  1.00  0.00     0.274 HD
ATOM     21  H32 UNL     1       6.220  -5.436  32.079  1.00  0.00     0.274 HD
ATOM     22  H31 UNL     1       6.332  -4.719  30.559  1.00  0.00     0.274 HD
ENDBRANCH  18  19
ENDBRANCH  17  18
ENDBRANCH  16  17
ENDBRANCH  15  16
ENDBRANCH  14  15
ENDBRANCH   2  13
TORSDOF 8
ENDMDL
MODEL 4
REMARK VINA RESULT: -6.231324691      2.798      8.167
REMARK  8 active torsions:
REMARK  status: ('A' for Active; 'I' for Inactive)
REMARK    1  A    between atoms: C1_4  and  C2_5 
REMARK    2  A    between atoms: C5_10  and  C6_11 
REMARK    3  A    between atoms: C7_12  and  C8_13 
REMARK    4  A    between atoms: C9_14  and  C10_15 
REMARK    5  A    between atoms: C10_15  and  O1_16 
REMARK    6  A    between atoms: O1_16  and  C11_17 
REMARK    7  A    between atoms: C11_17  and  C12_18 
REMARK    8  A    between atoms: C12_18  and  N3_19 
ROOT
HETATM    1  C6  UNL     1       3.349  -1.511  29.718  1.00  0.00    -0.051 C 
HETATM    2  C7  UNL     1       2.655  -0.767  29.074  1.00  0.00    -0.009 C 
ENDROOT
BRANCH   1   3
HETATM    3  C5  UNL     1       4.166  -2.384  30.515  1.00  0.00     0.048 A 
HETATM    4  C2  UNL     1       3.951  -2.820  31.785  1.00  0.00     0.066 A 
HETATM    5  N2  UNL     1       4.990  -3.634  32.143  1.00  0.00    -0.364 N 
HETATM    6  C3  UNL     1       5.837  -3.698  31.104  1.00  0.00     0.090 A 
ATOM      7  H2  UNL     1       5.101  -4.107  33.040  1.00  0.00     0.165 HD
HETATM    8  C4  UNL     1       5.349  -2.931  30.080  1.00  0.00     0.040 A 
BRANCH   4   9
HETATM    9  C1  UNL     1       2.861  -2.542  32.684  1.00  0.00     0.111 C 
HETATM   10  N1  UNL     1       2.984  -2.252  33.891  1.00  0.00    -0.406 N 
ATOM     11  H12 UNL     1       3.938  -2.214  34.253  1.00  0.00     0.155 HD
ATOM     12  H11 UNL     1       2.212  -2.054  34.528  1.00  0.00     0.155 HD
ENDBRANCH   4   9
ENDBRANCH   1   3
BRANCH   2  13
HETATM   13  C8  UNL     1       1.849   0.112  28.308  1.00  0.00    -0.013 C 
HETATM   14  C9  UNL     1       1.171   0.853  27.638  1.00  0.00    -0.066 C 
BRANCH  14  15
HETATM   15  C10 UNL     1       0.348   1.759  26.790  1.00  0.00     0.262 C 
BRANCH  15  16
HETATM   16  O1  UNL     1      -0.823   1.138  26.427  1.00  0.00    -0.378 OA
BRANCH  16  17
HETATM   17  C11 UNL     1      -0.733   0.482  25.224  1.00  0.00     0.196 C 
BRANCH  17  18
HETATM   18  C12 UNL     1      -1.689   0.982  24.169  1.00  0.00     0.255 C 
BRANCH  18  19
HETATM   19  N3  UNL     1      -1.393   2.346  23.775  1.00  0.00    -0.077 N 
ATOM     20  H33 UNL     1      -1.025   2.386  22.826  1.00  0.00     0.274 HD
ATOM     21  H32 UNL     1      -2.248   2.886  23.639  1.00  0.00     0.274 HD
ATOM     22  H31 UNL     1      -0.766   2.805  24.436  1.00  0.00     0.274 HD
ENDBRANCH  18  19
ENDBRANCH  17  18
ENDBRANCH  16  17
ENDBRANCH  15  16
ENDBRANCH  14  15
ENDBRANCH   2  13
TORSDOF 8
ENDMDL
MODEL 5
REMARK VINA RESULT: -6.164760997      2.159      2.969
REMARK  8 active torsions:
REMARK  status: ('A' for Active; 'I' for Inactive)
REMARK    1  A    between atoms: C1_4  and  C2_5 
REMARK    2  A    between atoms: C5_10  and  C6_11 
REMARK    3  A    between atoms: C7_12  and  C8_13 
REMARK    4  A    between atoms: C9_14  and  C10_15 
REMARK    5  A    between atoms: C10_15  and  O1_16 
REMARK    6  A    between atoms: O1_16  and  C11_17 
REMARK    7  A    between atoms: C11_17  and  C12_18 
REMARK    8  A    between atoms: C12_18  and  N3_19 
ROOT
HETATM    1  C6  UNL     1       1.747   1.313  28.097  1.00  0.00    -0.051 C 
HETATM    2  C7  UNL     1       2.219   0.352  28.649  1.00  0.00    -0.009 C 
ENDROOT
BRANCH   1   3
HETATM    3  C5  UNL     1       1.160   2.438  27.423  1.00  0.00     0.048 A 
HETATM    4  C2  UNL     1       1.342   3.763  27.669  1.00  0.00     0.066 A 
HETATM    5  N2  UNL     1       0.584   4.475  26.782  1.00  0.00    -0.364 N 
HETATM    6  C3  UNL     1      -0.059   3.598  25.996  1.00  0.00     0.090 A 
ATOM      7  H2  UNL     1       0.519   5.492  26.727  1.00  0.00     0.165 HD
HETATM    8  C4  UNL     1       0.282   2.326  26.373  1.00  0.00     0.040 A 
BRANCH   4   9
HETATM    9  C1  UNL     1       2.162   4.413  28.660  1.00  0.00     0.111 C 
HETATM   10  N1  UNL     1       2.038   5.599  29.026  1.00  0.00    -0.406 N 
ATOM     11  H12 UNL     1       1.293   6.136  28.579  1.00  0.00     0.155 HD
ATOM     12  H11 UNL     1       2.618   6.059  29.727  1.00  0.00     0.155 HD
ENDBRANCH   4   9
ENDBRANCH   1   3
BRANCH   2  13
HETATM   13  C8  UNL     1       2.787  -0.774  29.295  1.00  0.00    -0.013 C 
HETATM   14  C9  UNL     1       3.278  -1.722  29.860  1.00  0.00    -0.066 C 
BRANCH  14  15
HETATM   15  C10 UNL     1       3.894  -2.873  30.575  1.00  0.00     0.262 C 
BRANCH  15  16
HETATM   16  O1  UNL     1       2.919  -3.656  31.147  1.00  0.00    -0.378 OA
BRANCH  16  17
HETATM   17  C11 UNL     1       2.278  -3.037  32.192  1.00  0.00     0.196 C 
BRANCH  17  18
HETATM   18  C12 UNL     1       0.773  -3.099  32.122  1.00  0.00     0.255 C 
BRANCH  18  19
HETATM   19  N3  UNL     1       0.316  -3.869  30.982  1.00  0.00    -0.077 N 
ATOM     20  H33 UNL     1       1.038  -4.509  30.654  1.00  0.00     0.274 HD
ATOM     21  H32 UNL     1      -0.391  -4.552  31.255  1.00  0.00     0.274 HD
ATOM     22  H31 UNL     1      -0.019  -3.270  30.227  1.00  0.00     0.274 HD
ENDBRANCH  18  19
ENDBRANCH  17  18
ENDBRANCH  16  17
ENDBRANCH  15  16
ENDBRANCH  14  15
ENDBRANCH   2  13
TORSDOF 8
ENDMDL
