MODEL 1
REMARK VINA RESULT: -5.970767566      0.000      0.000
REMARK  6 active torsions:
REMARK  status: ('A' for Active; 'I' for Inactive)
REMARK    1  A    between atoms: C2_2  and  N1_3 
REMARK    2  A    between atoms: C4_5  and  C5_6 
REMARK    3  A    between atoms: C6_7  and  C7_8 
REMARK    4  A    between atoms: C8_9  and  C9_10 
REMARK    5  A    between atoms: C9_10  and  N2_11 
REMARK    6  A    between atoms: N2_11  and  C10_14 
ROOT
HETATM    1  C5  UNL     1      -0.436  -0.747  29.505  1.00  0.00    -0.032 C 
HETATM    2  C6  UNL     1       0.451  -0.057  29.062  1.00  0.00    -0.008 C 
ENDROOT
BRANCH   2   3
HETATM    3  C7  UNL     1       1.468   0.761  28.524  1.00  0.00    -0.013 C 
HETATM    4  C8  UNL     1       2.332   1.485  28.075  1.00  0.00    -0.065 C 
BRANCH   4   5
HETATM    5  C9  UNL     1       3.358   2.382  27.550  1.00  0.00     0.326 C 
BRANCH   5   6
HETATM    6  N2  UNL     1       2.733   3.514  26.900  1.00  0.00    -0.062 N 
ATOM      7  H22 UNL     1       3.358   4.320  26.870  1.00  0.00     0.278 HD
ATOM      8  H21 UNL     1       2.629   3.358  25.898  1.00  0.00     0.278 HD
BRANCH   6   9
HETATM    9  C10 UNL     1       1.463   3.850  27.521  1.00  0.00     0.179 C 
HETATM   10  C11 UNL     1       0.408   4.136  26.505  1.00  0.00     0.039 C 
HETATM   11  C12 UNL     1       1.602   5.054  28.439  1.00  0.00     0.039 C 
ENDBRANCH   6   9
ENDBRANCH   5   6
ENDBRANCH   4   5
ENDBRANCH   2   3
BRANCH   1  12
HETATM   12  C4  UNL     1      -1.525  -1.567  30.017  1.00  0.00     0.117 A 
HETATM   13  C3  UNL     1      -1.432  -2.803  30.607  1.00  0.00     0.147 A 
HETATM   14  N1  UNL     1      -2.676  -3.197  30.938  1.00  0.00    -0.284 N 
HETATM   15  N4  UNL     1      -3.494  -2.218  30.555  1.00  0.00    -0.020 NA
HETATM   16  N3  UNL     1      -2.806  -1.234  30.001  1.00  0.00    -0.275 N 
ATOM     17  H3  UNL     1      -3.195  -0.370  29.626  1.00  0.00     0.185 HD
BRANCH  14  18
HETATM   18  C2  UNL     1      -3.044  -4.440  31.587  1.00  0.00     0.141 C 
HETATM   19  C1  UNL     1      -4.159  -5.073  30.790  1.00  0.00     0.028 C 
ENDBRANCH  14  18
ENDBRANCH   1  12
TORSDOF 6
ENDMDL
MODEL 2
REMARK VINA RESULT: -5.904064359      0.926      1.207
REMARK  6 active torsions:
REMARK  status: ('A' for Active; 'I' for Inactive)
REMARK    1  A    between atoms: C2_2  and  N1_3 
REMARK    2  A    between atoms: C4_5  and  C5_6 
REMARK    3  A    between atoms: C6_7  and  C7_8 
REMARK    4  A    between atoms: C8_9  and  C9_10 
REMARK    5  A    between atoms: C9_10  and  N2_11 
REMARK    6  A    between atoms: N2_11  and  C10_14 
ROOT
HETATM    1  C5  UNL     1      -0.113  -1.067  29.836  1.00  0.00    -0.032 C 
HETATM    2  C6  UNL     1       0.609  -0.342  29.196  1.00  0.00    -0.008 C 
ENDROOT
BRANCH   2   3
HETATM    3  C7  UNL     1       1.438   0.498  28.421  1.00  0.00    -0.013 C 
HETATM    4  C8  UNL     1       2.130   1.227  27.741  1.00  0.00    -0.065 C 
BRANCH   4   5
HETATM    5  C9  UNL     1       2.936   2.114  26.906  1.00  0.00     0.326 C 
BRANCH   5   6
HETATM    6  N2  UNL     1       3.016   3.423  27.518  1.00  0.00    -0.062 N 
ATOM      7  H22 UNL     1       3.666   3.428  28.304  1.00  0.00     0.278 HD
ATOM      8  H21 UNL     1       3.496   4.089  26.912  1.00  0.00     0.278 HD
BRANCH   6   9
HETATM    9  C10 UNL     1       1.705   3.909  27.910  1.00  0.00     0.179 C 
HETATM   10  C11 UNL     1       0.895   4.332  26.730  1.00  0.00     0.039 C 
HETATM   11  C12 UNL     1       1.818   5.078  28.875  1.00  0.00     0.039 C 
ENDBRANCH   6   9
ENDBRANCH   5   6
ENDBRANCH   4   5
ENDBRANCH   2   3
BRANCH   1  12
HETATM   12  C4  UNL     1      -0.998  -1.950  30.582  1.00  0.00     0.117 A 
HETATM   13  C3  UNL     1      -2.353  -2.108  30.417  1.00  0.00     0.147 A 
HETATM   14  N1  UNL     1      -2.772  -3.027  31.307  1.00  0.00    -0.284 N 
HETATM   15  N4  UNL     1      -1.694  -3.410  31.989  1.00  0.00    -0.020 NA
HETATM   16  N3  UNL     1      -0.624  -2.766  31.556  1.00  0.00    -0.275 N 
ATOM     17  H3  UNL     1       0.326  -2.877  31.911  1.00  0.00     0.185 HD
BRANCH  14  18
HETATM   18  C2  UNL     1      -4.131  -3.504  31.480  1.00  0.00     0.141 C 
HETATM   19  C1  UNL     1      -4.233  -4.869  30.841  1.00  0.00     0.028 C 
ENDBRANCH  14  18
ENDBRANCH   1  12
TORSDOF 6
ENDMDL
MODEL 3
REMARK VINA RESULT: -5.785578910      4.653      5.526
REMARK  6 active torsions:
REMARK  status: ('A' for Active; 'I' for Inactive)
REMARK    1  A    between atoms: C2_2  and  N1_3 
REMARK    2  A    between atoms: C4_5  and  C5_6 
REMARK    3  A    between atoms: C6_7  and  C7_8 
REMARK    4  A    between atoms: C8_9  and  C9_10 
REMARK    5  A    between atoms: C9_10  and  N2_11 
REMARK    6  A    between atoms: N2_11  and  C10_14 
ROOT
HETATM    1  C5  UNL     1       2.715  -1.202  29.766  1.00  0.00    -0.032 C 
HETATM    2  C6  UNL     1       2.052  -0.548  28.999  1.00  0.00    -0.008 C 
ENDROOT
BRANCH   2   3
HETATM    3  C7  UNL     1       1.295   0.211  28.078  1.00  0.00    -0.013 C 
HETATM    4  C8  UNL     1       0.668   0.870  27.276  1.00  0.00    -0.065 C 
BRANCH   4   5
HETATM    5  C9  UNL     1      -0.059   1.672  26.296  1.00  0.00     0.326 C 
BRANCH   5   6
HETATM    6  N2  UNL     1       0.665   2.898  26.033  1.00  0.00    -0.062 N 
ATOM      7  H22 UNL     1       1.249   2.816  25.201  1.00  0.00     0.278 HD
ATOM      8  H21 UNL     1       0.040   3.639  25.715  1.00  0.00     0.278 HD
BRANCH   6   9
HETATM    9  C10 UNL     1       1.442   3.316  27.188  1.00  0.00     0.179 C 
HETATM   10  C11 UNL     1       1.125   4.717  27.591  1.00  0.00     0.039 C 
HETATM   11  C12 UNL     1       2.933   3.207  26.915  1.00  0.00     0.039 C 
ENDBRANCH   6   9
ENDBRANCH   5   6
ENDBRANCH   4   5
ENDBRANCH   2   3
BRANCH   1  12
HETATM   12  C4  UNL     1       3.535  -1.998  30.669  1.00  0.00     0.117 A 
HETATM   13  C3  UNL     1       4.640  -2.748  30.350  1.00  0.00     0.147 A 
HETATM   14  N1  UNL     1       5.096  -3.313  31.483  1.00  0.00    -0.284 N 
HETATM   15  N4  UNL     1       4.283  -2.910  32.458  1.00  0.00    -0.020 NA
HETATM   16  N3  UNL     1       3.342  -2.118  31.973  1.00  0.00    -0.275 N 
ATOM     17  H3  UNL     1       2.597  -1.676  32.511  1.00  0.00     0.185 HD
BRANCH  14  18
HETATM   18  C2  UNL     1       6.250  -4.183  31.610  1.00  0.00     0.141 C 
HETATM   19  C1  UNL     1       6.740  -4.106  33.036  1.00  0.00     0.028 C 
ENDBRANCH  14  18
ENDBRANCH   1  12
TORSDOF 6
ENDMDL
MODEL 4
REMARK VINA RESULT: -5.784372632      0.913      1.131
REMARK  6 active torsions:
REMARK  status: ('A' for Active; 'I' for Inactive)
REMARK    1  A    between atoms: C2_2  and  N1_3 
REMARK    2  A    between atoms: C4_5  and  C5_6 
REMARK    3  A    between atoms: C6_7  and  C7_8 
REMARK    4  A    between atoms: C8_9  and  C9_10 
REMARK    5  A    between atoms: C9_10  and  N2_11 
REMARK    6  A    between atoms: N2_11  and  C10_14 
ROOT
HETATM    1  C5  UNL     1      -0.633  -0.735  29.457  1.00  0.00    -0.032 C 
HETATM    2  C6  UNL     1       0.189  -0.086  28.857  1.00  0.00    -0.008 C 
ENDROOT
BRANCH   2   3
HETATM    3  C7  UNL     1       1.158   0.649  28.139  1.00  0.00    -0.013 C 
HETATM    4  C8  UNL     1       2.007   1.259  27.523  1.00  0.00    -0.065 C 
BRANCH   4   5
HETATM    5  C9  UNL     1       3.047   1.967  26.782  1.00  0.00     0.326 C 
BRANCH   5   6
HETATM    6  N2  UNL     1       2.951   3.388  27.041  1.00  0.00    -0.062 N 
ATOM      7  H22 UNL     1       3.817   3.871  26.799  1.00  0.00     0.278 HD
ATOM      8  H21 UNL     1       2.324   3.846  26.379  1.00  0.00     0.278 HD
BRANCH   6   9
HETATM    9  C10 UNL     1       2.561   3.654  28.415  1.00  0.00     0.179 C 
HETATM   10  C11 UNL     1       1.769   4.914  28.532  1.00  0.00     0.039 C 
HETATM   11  C12 UNL     1       3.777   3.750  29.323  1.00  0.00     0.039 C 
ENDBRANCH   6   9
ENDBRANCH   5   6
ENDBRANCH   4   5
ENDBRANCH   2   3
BRANCH   1  12
HETATM   12  C4  UNL     1      -1.616  -1.544  30.164  1.00  0.00     0.117 A 
HETATM   13  C3  UNL     1      -1.376  -2.579  31.034  1.00  0.00     0.147 A 
HETATM   14  N1  UNL     1      -2.564  -3.042  31.463  1.00  0.00    -0.284 N 
HETATM   15  N4  UNL     1      -3.495  -2.301  30.863  1.00  0.00    -0.020 NA
HETATM   16  N3  UNL     1      -2.929  -1.398  30.081  1.00  0.00    -0.275 N 
ATOM     17  H3  UNL     1      -3.420  -0.708  29.512  1.00  0.00     0.185 HD
BRANCH  14  18
HETATM   18  C2  UNL     1      -2.781  -4.129  32.398  1.00  0.00     0.141 C 
HETATM   19  C1  UNL     1      -3.437  -5.266  31.651  1.00  0.00     0.028 C 
ENDBRANCH  14  18
ENDBRANCH   1  12
TORSDOF 6
ENDMDL
MODEL 5
REMARK VINA RESULT: -5.741065972      4.649      5.721
REMARK  6 active torsions:
REMARK  status: ('A' for Active; 'I' for Inactive)
REMARK    1  A    between atoms: C2_2  and  N1_3 
REMARK    2  A    between atoms: C4_5  and  C5_6 
REMARK    3  A    between atoms: C6_7  and  C7_8 
REMARK    4  A    between atoms: C8_9  and  C9_10 
REMARK    5  A    between atoms: C9_10  and  N2_11 
REMARK    6  A    between atoms: N2_11  and  C10_14 
ROOT
HETATM    1  C5  UNL     1       2.622  -0.999  29.479  1.00  0.00    -0.032 C 
HETATM    2  C6  UNL     1       2.068  -0.105  28.886  1.00  0.00    -0.008 C 
ENDROOT
BRANCH   2   3
HETATM    3  C7  UNL     1       1.441   0.937  28.169  1.00  0.00    -0.013 C 
HETATM    4  C8  UNL     1       0.901   1.818  27.532  1.00  0.00    -0.065 C 
BRANCH   4   5
HETATM    5  C9  UNL     1       0.249   2.857  26.739  1.00  0.00     0.326 C 
BRANCH   5   6
HETATM    6  N2  UNL     1       0.083   2.400  25.376  1.00  0.00    -0.062 N 
ATOM      7  H22 UNL     1      -0.376   3.105  24.799  1.00  0.00     0.278 HD
ATOM      8  H21 UNL     1       0.977   2.353  24.887  1.00  0.00     0.278 HD
BRANCH   6   9
HETATM    9  C10 UNL     1      -0.620   1.129  25.322  1.00  0.00     0.179 C 
HETATM   10  C11 UNL     1       0.265   0.026  24.846  1.00  0.00     0.039 C 
HETATM   11  C12 UNL     1      -1.836   1.213  24.413  1.00  0.00     0.039 C 
ENDBRANCH   6   9
ENDBRANCH   5   6
ENDBRANCH   4   5
ENDBRANCH   2   3
BRANCH   1  12
HETATM   12  C4  UNL     1       3.311  -2.078  30.172  1.00  0.00     0.117 A 
HETATM   13  C3  UNL     1       4.654  -2.366  30.143  1.00  0.00     0.147 A 
HETATM   14  N1  UNL     1       4.863  -3.439  30.928  1.00  0.00    -0.284 N 
HETATM   15  N4  UNL     1       3.673  -3.785  31.416  1.00  0.00    -0.020 NA
HETATM   16  N3  UNL     1       2.736  -2.969  30.965  1.00  0.00    -0.275 N 
ATOM     17  H3  UNL     1       1.742  -3.017  31.188  1.00  0.00     0.185 HD
BRANCH  14  18
HETATM   18  C2  UNL     1       6.136  -4.082  31.191  1.00  0.00     0.141 C 
HETATM   19  C1  UNL     1       6.437  -3.942  32.663  1.00  0.00     0.028 C 
ENDBRANCH  14  18
ENDBRANCH   1  12
TORSDOF 6
ENDMDL
