MODEL 1
REMARK VINA RESULT: -6.034954528      0.000      0.000
REMARK  6 active torsions:
REMARK  status: ('A' for Active; 'I' for Inactive)
REMARK    1  A    between atoms: C2_2  and  C4_4 
REMARK    2  A    between atoms: C4_4  and  C5_5 
REMARK    3  A    between atoms: C5_5  and  N1_6 
REMARK    4  A    between atoms: C5_5  and  C6_10 
REMARK    5  A    between atoms: C6_10  and  N2_11 
REMARK    6  A    between atoms: N2_11  and  C7_13 
ROOT
HETATM    1  C6  UNL     1      -0.368   0.913  25.781  1.00  0.00     0.154 C 
ENDROOT
BRANCH   1   2
HETATM    2  C5  UNL     1      -0.572   2.359  25.785  1.00  0.00     0.201 C 
BRANCH   2   3
HETATM    3  C4  UNL     1       0.410   3.349  26.171  1.00  0.00     0.038 C 
BRANCH   3   4
HETATM    4  C2  UNL     1       1.199   3.338  27.407  1.00  0.00    -0.021 C 
HETATM    5  C1  UNL     1       1.146   4.830  27.911  1.00  0.00     0.009 C 
HETATM    6  C3  UNL     1       2.708   3.184  27.137  1.00  0.00     0.009 C 
ENDBRANCH   3   4
ENDBRANCH   2   3
BRANCH   2   7
HETATM    7  N1  UNL     1      -1.056   2.760  24.435  1.00  0.00    -0.073 N 
ATOM      8  H13 UNL     1      -1.853   3.397  24.461  1.00  0.00     0.274 HD
ATOM      9  H12 UNL     1      -0.416   3.382  23.942  1.00  0.00     0.274 HD
ATOM     10  H11 UNL     1      -1.247   1.892  23.932  1.00  0.00     0.274 HD
ENDBRANCH   2   7
ENDBRANCH   1   2
BRANCH   1  11
HETATM   11  N2  UNL     1       0.599   0.486  24.802  1.00  0.00    -0.373 N 
ATOM     12  H2  UNL     1       0.327   0.433  23.821  1.00  0.00     0.161 HD
BRANCH  11  13
HETATM   13  C7  UNL     1       1.801   0.171  25.141  1.00  0.00     0.116 A 
HETATM   14  C8  UNL     1       2.029  -0.169  26.477  1.00  0.00     0.138 A 
HETATM   15  N3  UNL     1       3.258  -0.511  26.908  1.00  0.00    -0.366 N 
HETATM   16  C9  UNL     1       3.460  -0.860  28.301  1.00  0.00     0.155 C 
HETATM   17  C10 UNL     1       4.268  -0.518  26.027  1.00  0.00     0.107 A 
HETATM   18  C11 UNL     1       4.073  -0.187  24.707  1.00  0.00     0.107 A 
HETATM   19  N4  UNL     1       2.830   0.156  24.280  1.00  0.00    -0.350 N 
ATOM     20  H4  UNL     1       2.678   0.402  23.301  1.00  0.00     0.166 HD
ENDBRANCH  11  13
ENDBRANCH   1  11
TORSDOF 6
ENDMDL
MODEL 2
REMARK VINA RESULT: -5.875186804      3.301      4.907
REMARK  6 active torsions:
REMARK  status: ('A' for Active; 'I' for Inactive)
REMARK    1  A    between atoms: C2_2  and  C4_4 
REMARK    2  A    between atoms: C4_4  and  C5_5 
REMARK    3  A    between atoms: C5_5  and  N1_6 
REMARK    4  A    between atoms: C5_5  and  C6_10 
REMARK    5  A    between atoms: C6_10  and  N2_11 
REMARK    6  A    between atoms: N2_11  and  C7_13 
ROOT
HETATM    1  C6  UNL     1      -0.575   0.384  26.441  1.00  0.00     0.154 C 
ENDROOT
BRANCH   1   2
HETATM    2  C5  UNL     1       0.595   0.543  25.580  1.00  0.00     0.201 C 
BRANCH   2   3
HETATM    3  C4  UNL     1       1.804  -0.249  25.644  1.00  0.00     0.038 C 
BRANCH   3   4
HETATM    4  C2  UNL     1       3.094   0.198  26.181  1.00  0.00    -0.021 C 
HETATM    5  C1  UNL     1       4.157  -0.449  25.214  1.00  0.00     0.009 C 
HETATM    6  C3  UNL     1       3.451  -0.504  27.505  1.00  0.00     0.009 C 
ENDBRANCH   3   4
ENDBRANCH   2   3
BRANCH   2   7
HETATM    7  N1  UNL     1       0.135   0.484  24.165  1.00  0.00    -0.073 N 
ATOM      8  H13 UNL     1       0.830   0.096  23.527  1.00  0.00     0.274 HD
ATOM      9  H12 UNL     1      -0.588  -0.216  24.001  1.00  0.00     0.274 HD
ATOM     10  H11 UNL     1      -0.156   1.431  23.921  1.00  0.00     0.274 HD
ENDBRANCH   2   7
ENDBRANCH   1   2
BRANCH   1  11
HETATM   11  N2  UNL     1      -0.296   0.676  27.824  1.00  0.00    -0.373 N 
ATOM     12  H2  UNL     1       0.247   1.506  28.060  1.00  0.00     0.161 HD
BRANCH  11  13
HETATM   13  C7  UNL     1      -0.719  -0.091  28.769  1.00  0.00     0.116 A 
HETATM   14  C8  UNL     1       0.230  -0.837  29.472  1.00  0.00     0.138 A 
HETATM   15  N3  UNL     1      -0.133  -1.659  30.474  1.00  0.00    -0.366 N 
HETATM   16  C9  UNL     1       0.878  -2.419  31.184  1.00  0.00     0.155 C 
HETATM   17  C10 UNL     1      -1.433  -1.753  30.787  1.00  0.00     0.107 A 
HETATM   18  C11 UNL     1      -2.389  -1.033  30.112  1.00  0.00     0.107 A 
HETATM   19  N4  UNL     1      -2.014  -0.204  29.103  1.00  0.00    -0.350 N 
ATOM     20  H4  UNL     1      -2.718   0.334  28.598  1.00  0.00     0.166 HD
ENDBRANCH  11  13
ENDBRANCH   1  11
TORSDOF 6
ENDMDL
MODEL 3
REMARK VINA RESULT: -5.847821372      1.675      3.485
REMARK  6 active torsions:
REMARK  status: ('A' for Active; 'I' for Inactive)
REMARK    1  A    between atoms: C2_2  and  C4_4 
REMARK    2  A    between atoms: C4_4  and  C5_5 
REMARK    3  A    between atoms: C5_5  and  N1_6 
REMARK    4  A    between atoms: C5_5  and  C6_10 
REMARK    5  A    between atoms: C6_10  and  N2_11 
REMARK    6  A    between atoms: N2_11  and  C7_13 
ROOT
HETATM    1  C6  UNL     1       3.467   0.993  26.708  1.00  0.00     0.154 C 
ENDROOT
BRANCH   1   2
HETATM    2  C5  UNL     1       3.046   2.392  26.715  1.00  0.00     0.201 C 
BRANCH   2   3
HETATM    3  C4  UNL     1       2.616   3.139  27.876  1.00  0.00     0.038 C 
BRANCH   3   4
HETATM    4  C2  UNL     1       1.274   3.691  28.092  1.00  0.00    -0.021 C 
HETATM    5  C1  UNL     1       0.669   3.808  26.642  1.00  0.00     0.009 C 
HETATM    6  C3  UNL     1       1.311   5.175  28.504  1.00  0.00     0.009 C 
ENDBRANCH   3   4
ENDBRANCH   2   3
BRANCH   2   7
HETATM    7  N1  UNL     1       4.125   3.199  26.079  1.00  0.00    -0.073 N 
ATOM      8  H13 UNL     1       4.348   4.053  26.591  1.00  0.00     0.274 HD
ATOM      9  H12 UNL     1       5.047   2.768  26.147  1.00  0.00     0.274 HD
ATOM     10  H11 UNL     1       3.825   3.367  25.119  1.00  0.00     0.274 HD
ENDBRANCH   2   7
ENDBRANCH   1   2
BRANCH   1  11
HETATM   11  N2  UNL     1       2.738   0.193  25.758  1.00  0.00    -0.373 N 
ATOM     12  H2  UNL     1       3.252  -0.402  25.108  1.00  0.00     0.161 HD
BRANCH  11  13
HETATM   13  C7  UNL     1       1.451   0.213  25.712  1.00  0.00     0.116 A 
HETATM   14  C8  UNL     1       0.757   0.053  26.914  1.00  0.00     0.138 A 
HETATM   15  N3  UNL     1      -0.589   0.064  26.948  1.00  0.00    -0.366 N 
HETATM   16  C9  UNL     1      -1.277  -0.105  28.213  1.00  0.00     0.155 C 
HETATM   17  C10 UNL     1      -1.258   0.231  25.799  1.00  0.00     0.107 A 
HETATM   18  C11 UNL     1      -0.602   0.391  24.601  1.00  0.00     0.107 A 
HETATM   19  N4  UNL     1       0.756   0.380  24.576  1.00  0.00    -0.350 N 
ATOM     20  H4  UNL     1       1.249   0.498  23.690  1.00  0.00     0.166 HD
ENDBRANCH  11  13
ENDBRANCH   1  11
TORSDOF 6
ENDMDL
MODEL 4
REMARK VINA RESULT: -5.794648682      1.848      4.244
REMARK  6 active torsions:
REMARK  status: ('A' for Active; 'I' for Inactive)
REMARK    1  A    between atoms: C2_2  and  C4_4 
REMARK    2  A    between atoms: C4_4  and  C5_5 
REMARK    3  A    between atoms: C5_5  and  N1_6 
REMARK    4  A    between atoms: C5_5  and  C6_10 
REMARK    5  A    between atoms: C6_10  and  N2_11 
REMARK    6  A    between atoms: N2_11  and  C7_13 
ROOT
HETATM    1  C6  UNL     1      -0.328   0.406  26.278  1.00  0.00     0.154 C 
ENDROOT
BRANCH   1   2
HETATM    2  C5  UNL     1       0.744   0.558  25.298  1.00  0.00     0.201 C 
BRANCH   2   3
HETATM    3  C4  UNL     1       1.939  -0.253  25.221  1.00  0.00     0.038 C 
BRANCH   3   4
HETATM    4  C2  UNL     1       3.271   0.136  25.697  1.00  0.00    -0.021 C 
HETATM    5  C1  UNL     1       4.261  -0.637  24.745  1.00  0.00     0.009 C 
HETATM    6  C3  UNL     1       3.620  -0.510  27.052  1.00  0.00     0.009 C 
ENDBRANCH   3   4
ENDBRANCH   2   3
BRANCH   2   7
HETATM    7  N1  UNL     1       0.132   0.524  23.939  1.00  0.00    -0.073 N 
ATOM      8  H13 UNL     1       0.008   1.449  23.527  1.00  0.00     0.274 HD
ATOM      9  H12 UNL     1       0.755   0.151  23.223  1.00  0.00     0.274 HD
ATOM     10  H11 UNL     1      -0.738   0.001  24.033  1.00  0.00     0.274 HD
ENDBRANCH   2   7
ENDBRANCH   1   2
BRANCH   1  11
HETATM   11  N2  UNL     1      -0.061   1.100  27.512  1.00  0.00    -0.373 N 
ATOM     12  H2  UNL     1      -0.380   0.695  28.392  1.00  0.00     0.161 HD
BRANCH  11  13
HETATM   13  C7  UNL     1       0.572   2.222  27.526  1.00  0.00     0.116 A 
HETATM   14  C8  UNL     1       1.745   2.294  28.281  1.00  0.00     0.138 A 
HETATM   15  N3  UNL     1       2.463   3.430  28.346  1.00  0.00    -0.366 N 
HETATM   16  C9  UNL     1       3.677   3.470  29.139  1.00  0.00     0.155 C 
HETATM   17  C10 UNL     1       2.029   4.502  27.669  1.00  0.00     0.107 A 
HETATM   18  C11 UNL     1       0.879   4.461  26.918  1.00  0.00     0.107 A 
HETATM   19  N4  UNL     1       0.160   3.309  26.858  1.00  0.00    -0.350 N 
ATOM     20  H4  UNL     1      -0.695   3.272  26.302  1.00  0.00     0.166 HD
ENDBRANCH  11  13
ENDBRANCH   1  11
TORSDOF 6
ENDMDL
MODEL 5
REMARK VINA RESULT: -5.628776177      3.172      6.260
REMARK  6 active torsions:
REMARK  status: ('A' for Active; 'I' for Inactive)
REMARK    1  A    between atoms: C2_2  and  C4_4 
REMARK    2  A    between atoms: C4_4  and  C5_5 
REMARK    3  A    between atoms: C5_5  and  N1_6 
REMARK    4  A    between atoms: C5_5  and  C6_10 
REMARK    5  A    between atoms: C6_10  and  N2_11 
REMARK    6  A    between atoms: N2_11  and  C7_13 
ROOT
HETATM    1  C6  UNL     1       3.675  -1.635  29.592  1.00  0.00     0.154 C 
ENDROOT
BRANCH   1   2
HETATM    2  C5  UNL     1       3.511  -2.176  30.939  1.00  0.00     0.201 C 
BRANCH   2   3
HETATM    3  C4  UNL     1       2.768  -3.367  31.286  1.00  0.00     0.038 C 
BRANCH   3   4
HETATM    4  C2  UNL     1       1.594  -3.421  32.163  1.00  0.00    -0.021 C 
HETATM    5  C1  UNL     1       0.523  -2.529  31.428  1.00  0.00     0.009 C 
HETATM    6  C3  UNL     1       1.794  -2.612  33.459  1.00  0.00     0.009 C 
ENDBRANCH   3   4
ENDBRANCH   2   3
BRANCH   2   7
HETATM    7  N1  UNL     1       4.867  -2.344  31.535  1.00  0.00    -0.073 N 
ATOM      8  H13 UNL     1       4.883  -2.980  32.333  1.00  0.00     0.274 HD
ATOM      9  H12 UNL     1       5.508  -2.872  30.942  1.00  0.00     0.274 HD
ATOM     10  H11 UNL     1       5.198  -1.405  31.756  1.00  0.00     0.274 HD
ENDBRANCH   2   7
ENDBRANCH   1   2
BRANCH   1  11
HETATM   11  N2  UNL     1       2.743  -0.576  29.297  1.00  0.00    -0.373 N 
ATOM     12  H2  UNL     1       2.385   0.000  30.058  1.00  0.00     0.161 HD
BRANCH  11  13
HETATM   13  C7  UNL     1       2.355  -0.343  28.091  1.00  0.00     0.116 A 
HETATM   14  C8  UNL     1       3.299  -0.474  27.069  1.00  0.00     0.138 A 
HETATM   15  N3  UNL     1       2.969  -0.248  25.784  1.00  0.00    -0.366 N 
HETATM   16  C9  UNL     1       3.974  -0.393  24.748  1.00  0.00     0.155 C 
HETATM   17  C10 UNL     1       1.710   0.109  25.498  1.00  0.00     0.107 A 
HETATM   18  C11 UNL     1       0.760   0.245  26.482  1.00  0.00     0.107 A 
HETATM   19  N4  UNL     1       1.101   0.015  27.777  1.00  0.00    -0.350 N 
ATOM     20  H4  UNL     1       0.400   0.114  28.512  1.00  0.00     0.166 HD
ENDBRANCH  11  13
ENDBRANCH   1  11
TORSDOF 6
ENDMDL
