MODEL 1
REMARK VINA RESULT: -5.481707433      0.000      0.000
REMARK  7 active torsions:
REMARK  status: ('A' for Active; 'I' for Inactive)
REMARK    1  A    between atoms: C2_2  and  N1_3 
REMARK    2  A    between atoms: N1_3  and  C3_5 
REMARK    3  A    between atoms: C3_5  and  C4_6 
REMARK    4  A    between atoms: C4_6  and  N2_7 
REMARK    5  A    between atoms: N2_7  and  C5_10 
REMARK    6  A    between atoms: C5_10  and  C6_11 
REMARK    7  A    between atoms: C6_11  and  C7_12 
ROOT
HETATM    1  N2  UNL     1      60.780  12.729  22.886  1.00  0.00    -0.071 N 
ATOM      2  H21 UNL     1      61.118  13.689  22.823  1.00  0.00     0.277 HD
ATOM      3  H22 UNL     1      60.265  12.797  23.764  1.00  0.00     0.277 HD
ENDROOT
BRANCH   1   4
HETATM    4  C4  UNL     1      61.864  11.805  22.992  1.00  0.00     0.276 C 
BRANCH   4   5
HETATM    5  C3  UNL     1      62.918  12.284  23.962  1.00  0.00     0.087 C 
BRANCH   5   6
HETATM    6  N1  UNL     1      62.547  13.296  24.859  1.00  0.00    -0.381 N 
ATOM      7  H1  UNL     1      62.282  14.214  24.501  1.00  0.00     0.164 HD
BRANCH   6   8
HETATM    8  C2  UNL     1      62.535  13.064  26.249  1.00  0.00     0.056 C 
HETATM    9  C1  UNL     1      62.601  14.308  27.092  1.00  0.00     0.054 C 
ENDBRANCH   6   8
ENDBRANCH   5   6
ENDBRANCH   4   5
ENDBRANCH   1   4
BRANCH   1  10
HETATM   10  C5  UNL     1      59.913  12.416  21.802  1.00  0.00     0.233 C 
BRANCH  10  11
HETATM   11  C6  UNL     1      58.458  12.688  22.057  1.00  0.00     0.032 C 
BRANCH  11  12
HETATM   12  C7  UNL     1      57.790  13.047  20.760  1.00  0.00    -0.013 C 
HETATM   13  C8  UNL     1      56.425  12.457  20.595  1.00  0.00     0.005 C 
HETATM   14  C9  UNL     1      56.542  11.584  19.324  1.00  0.00     0.000 C 
HETATM   15  C10 UNL     1      57.498  12.423  18.502  1.00  0.00     0.000 C 
HETATM   16  C11 UNL     1      58.606  12.635  19.554  1.00  0.00     0.005 C 
ENDBRANCH  11  12
ENDBRANCH  10  11
ENDBRANCH   1  10
TORSDOF 7
ENDMDL
MODEL 2
REMARK VINA RESULT: -5.439681086      0.937      1.330
REMARK  7 active torsions:
REMARK  status: ('A' for Active; 'I' for Inactive)
REMARK    1  A    between atoms: C2_2  and  N1_3 
REMARK    2  A    between atoms: N1_3  and  C3_5 
REMARK    3  A    between atoms: C3_5  and  C4_6 
REMARK    4  A    between atoms: C4_6  and  N2_7 
REMARK    5  A    between atoms: N2_7  and  C5_10 
REMARK    6  A    between atoms: C5_10  and  C6_11 
REMARK    7  A    between atoms: C6_11  and  C7_12 
ROOT
HETATM    1  N2  UNL     1      59.756  13.524  22.559  1.00  0.00    -0.071 N 
ATOM      2  H21 UNL     1      60.418  14.259  22.312  1.00  0.00     0.277 HD
ATOM      3  H22 UNL     1      59.741  13.653  23.571  1.00  0.00     0.277 HD
ENDROOT
BRANCH   1   4
HETATM    4  C4  UNL     1      60.261  12.234  22.211  1.00  0.00     0.276 C 
BRANCH   4   5
HETATM    5  C3  UNL     1      61.554  11.924  22.925  1.00  0.00     0.087 C 
BRANCH   5   6
HETATM    6  N1  UNL     1      61.868  12.707  24.045  1.00  0.00    -0.381 N 
ATOM      7  H1  UNL     1      61.324  13.547  24.240  1.00  0.00     0.164 HD
BRANCH   6   8
HETATM    8  C2  UNL     1      62.926  12.350  24.905  1.00  0.00     0.056 C 
HETATM    9  C1  UNL     1      62.824  12.920  26.293  1.00  0.00     0.054 C 
ENDBRANCH   6   8
ENDBRANCH   5   6
ENDBRANCH   4   5
ENDBRANCH   1   4
BRANCH   1  10
HETATM   10  C5  UNL     1      58.476  13.771  21.989  1.00  0.00     0.233 C 
BRANCH  10  11
HETATM   11  C6  UNL     1      57.735  12.545  21.539  1.00  0.00     0.032 C 
BRANCH  11  12
HETATM   12  C7  UNL     1      57.153  12.794  20.176  1.00  0.00    -0.013 C 
HETATM   13  C8  UNL     1      55.950  11.960  19.868  1.00  0.00     0.005 C 
HETATM   14  C9  UNL     1      56.364  11.146  18.620  1.00  0.00     0.000 C 
HETATM   15  C10 UNL     1      57.226  12.163  17.903  1.00  0.00     0.000 C 
HETATM   16  C11 UNL     1      58.156  12.562  19.067  1.00  0.00     0.005 C 
ENDBRANCH  11  12
ENDBRANCH  10  11
ENDBRANCH   1  10
TORSDOF 7
ENDMDL
MODEL 3
REMARK VINA RESULT: -5.408138277      2.311      2.916
REMARK  7 active torsions:
REMARK  status: ('A' for Active; 'I' for Inactive)
REMARK    1  A    between atoms: C2_2  and  N1_3 
REMARK    2  A    between atoms: N1_3  and  C3_5 
REMARK    3  A    between atoms: C3_5  and  C4_6 
REMARK    4  A    between atoms: C4_6  and  N2_7 
REMARK    5  A    between atoms: N2_7  and  C5_10 
REMARK    6  A    between atoms: C5_10  and  C6_11 
REMARK    7  A    between atoms: C6_11  and  C7_12 
ROOT
HETATM    1  N2  UNL     1      60.855  11.173  22.670  1.00  0.00    -0.071 N 
ATOM      2  H21 UNL     1      60.243  11.134  23.485  1.00  0.00     0.277 HD
ATOM      3  H22 UNL     1      60.769  10.206  22.356  1.00  0.00     0.277 HD
ENDROOT
BRANCH   1   4
HETATM    4  C4  UNL     1      62.200  11.475  23.048  1.00  0.00     0.276 C 
BRANCH   4   5
HETATM    5  C3  UNL     1      62.888  10.288  23.675  1.00  0.00     0.087 C 
BRANCH   5   6
HETATM    6  N1  UNL     1      62.087   9.183  24.000  1.00  0.00    -0.381 N 
ATOM      7  H1  UNL     1      61.075   9.295  24.059  1.00  0.00     0.164 HD
BRANCH   6   8
HETATM    8  C2  UNL     1      62.660   7.919  24.246  1.00  0.00     0.056 C 
HETATM    9  C1  UNL     1      62.714   7.529  25.698  1.00  0.00     0.054 C 
ENDBRANCH   6   8
ENDBRANCH   5   6
ENDBRANCH   4   5
ENDBRANCH   1   4
BRANCH   1  10
HETATM   10  C5  UNL     1      60.356  12.079  21.694  1.00  0.00     0.233 C 
BRANCH  10  11
HETATM   11  C6  UNL     1      59.329  13.052  22.198  1.00  0.00     0.032 C 
BRANCH  11  12
HETATM   12  C7  UNL     1      58.346  13.345  21.101  1.00  0.00    -0.013 C 
HETATM   13  C8  UNL     1      56.919  13.357  21.550  1.00  0.00     0.005 C 
HETATM   14  C9  UNL     1      56.249  12.246  20.709  1.00  0.00     0.000 C 
HETATM   15  C10 UNL     1      57.007  12.393  19.406  1.00  0.00     0.000 C 
HETATM   16  C11 UNL     1      58.448  12.362  19.955  1.00  0.00     0.005 C 
ENDBRANCH  11  12
ENDBRANCH  10  11
ENDBRANCH   1  10
TORSDOF 7
ENDMDL
MODEL 4
REMARK VINA RESULT: -5.316310523      2.004      2.639
REMARK  7 active torsions:
REMARK  status: ('A' for Active; 'I' for Inactive)
REMARK    1  A    between atoms: C2_2  and  N1_3 
REMARK    2  A    between atoms: N1_3  and  C3_5 
REMARK    3  A    between atoms: C3_5  and  C4_6 
REMARK    4  A    between atoms: C4_6  and  N2_7 
REMARK    5  A    between atoms: N2_7  and  C5_10 
REMARK    6  A    between atoms: C5_10  and  C6_11 
REMARK    7  A    between atoms: C6_11  and  C7_12 
ROOT
HETATM    1  N2  UNL     1      61.529  12.320  21.729  1.00  0.00    -0.071 N 
ATOM      2  H21 UNL     1      62.060  11.991  20.923  1.00  0.00     0.277 HD
ATOM      3  H22 UNL     1      61.717  13.320  21.649  1.00  0.00     0.277 HD
ENDROOT
BRANCH   1   4
HETATM    4  C4  UNL     1      62.056  11.792  22.947  1.00  0.00     0.276 C 
BRANCH   4   5
HETATM    5  C3  UNL     1      63.562  11.877  22.992  1.00  0.00     0.087 C 
BRANCH   5   6
HETATM    6  N1  UNL     1      64.146  13.087  22.590  1.00  0.00    -0.381 N 
ATOM      7  H1  UNL     1      63.850  13.959  23.028  1.00  0.00     0.164 HD
BRANCH   6   8
HETATM    8  C2  UNL     1      65.137  13.116  21.588  1.00  0.00     0.056 C 
HETATM    9  C1  UNL     1      66.550  13.123  22.106  1.00  0.00     0.054 C 
ENDBRANCH   6   8
ENDBRANCH   5   6
ENDBRANCH   4   5
ENDBRANCH   1   4
BRANCH   1  10
HETATM   10  C5  UNL     1      60.141  12.044  21.580  1.00  0.00     0.233 C 
BRANCH  10  11
HETATM   11  C6  UNL     1      59.223  13.121  22.081  1.00  0.00     0.032 C 
BRANCH  11  12
HETATM   12  C7  UNL     1      58.160  13.380  21.052  1.00  0.00    -0.013 C 
HETATM   13  C8  UNL     1      56.773  13.434  21.611  1.00  0.00     0.005 C 
HETATM   14  C9  UNL     1      56.025  12.297  20.877  1.00  0.00     0.000 C 
HETATM   15  C10 UNL     1      56.679  12.374  19.513  1.00  0.00     0.000 C 
HETATM   16  C11 UNL     1      58.158  12.345  19.948  1.00  0.00     0.005 C 
ENDBRANCH  11  12
ENDBRANCH  10  11
ENDBRANCH   1  10
TORSDOF 7
ENDMDL
MODEL 5
REMARK VINA RESULT: -5.306942080      2.267      7.389
REMARK  7 active torsions:
REMARK  status: ('A' for Active; 'I' for Inactive)
REMARK    1  A    between atoms: C2_2  and  N1_3 
REMARK    2  A    between atoms: N1_3  and  C3_5 
REMARK    3  A    between atoms: C3_5  and  C4_6 
REMARK    4  A    between atoms: C4_6  and  N2_7 
REMARK    5  A    between atoms: N2_7  and  C5_10 
REMARK    6  A    between atoms: C5_10  and  C6_11 
REMARK    7  A    between atoms: C6_11  and  C7_12 
ROOT
HETATM    1  N2  UNL     1      61.776  12.617  23.904  1.00  0.00    -0.071 N 
ATOM      2  H21 UNL     1      61.007  12.674  24.572  1.00  0.00     0.277 HD
ATOM      3  H22 UNL     1      61.814  13.595  23.616  1.00  0.00     0.277 HD
ENDROOT
BRANCH   1   4
HETATM    4  C4  UNL     1      61.443  11.768  22.804  1.00  0.00     0.276 C 
BRANCH   4   5
HETATM    5  C3  UNL     1      60.161  12.194  22.132  1.00  0.00     0.087 C 
BRANCH   5   6
HETATM    6  N1  UNL     1      59.696  13.489  22.406  1.00  0.00    -0.381 N 
ATOM      7  H1  UNL     1      60.314  14.159  22.862  1.00  0.00     0.164 HD
BRANCH   6   8
HETATM    8  C2  UNL     1      58.387  13.878  22.058  1.00  0.00     0.056 C 
HETATM    9  C1  UNL     1      57.536  12.774  21.493  1.00  0.00     0.054 C 
ENDBRANCH   6   8
ENDBRANCH   5   6
ENDBRANCH   4   5
ENDBRANCH   1   4
BRANCH   1  10
HETATM   10  C5  UNL     1      62.984  12.220  24.541  1.00  0.00     0.233 C 
BRANCH  10  11
HETATM   11  C6  UNL     1      63.047  12.505  26.014  1.00  0.00     0.032 C 
BRANCH  11  12
HETATM   12  C7  UNL     1      63.588  11.298  26.727  1.00  0.00    -0.013 C 
HETATM   13  C8  UNL     1      64.910  11.525  27.389  1.00  0.00     0.005 C 
HETATM   14  C9  UNL     1      65.853  10.506  26.710  1.00  0.00     0.000 C 
HETATM   15  C10 UNL     1      64.899   9.349  26.497  1.00  0.00     0.000 C 
HETATM   16  C11 UNL     1      63.745  10.106  25.808  1.00  0.00     0.005 C 
ENDBRANCH  11  12
ENDBRANCH  10  11
ENDBRANCH   1  10
TORSDOF 7
ENDMDL
