MODEL 1
REMARK VINA RESULT: -5.560589960      0.000      0.000
REMARK  7 active torsions:
REMARK  status: ('A' for Active; 'I' for Inactive)
REMARK    1  A    between atoms: C2_2  and  C3_3 
REMARK    2  A    between atoms: C3_3  and  C4_4 
REMARK    3  A    between atoms: C4_4  and  N1_5 
REMARK    4  A    between atoms: N1_5  and  C5_7 
REMARK    5  A    between atoms: C5_7  and  C6_8 
REMARK    6  A    between atoms: C6_8  and  C7_9 
REMARK    7  A    between atoms: C9_15  and  C10_16 
ROOT
HETATM    1  C7  UNL     1      65.452  11.695  24.791  1.00  0.00     0.034 A 
HETATM    2  N2  UNL     1      65.891  12.479  23.777  1.00  0.00    -0.354 N 
ATOM      3  H2  UNL     1      65.297  12.898  23.061  1.00  0.00     0.166 HD
HETATM    4  C8  UNL     1      67.207  12.621  23.851  1.00  0.00     0.180 A 
HETATM    5  N3  UNL     1      67.618  11.927  24.918  1.00  0.00    -0.354 N 
ATOM      6  H3  UNL     1      68.585  11.848  25.233  1.00  0.00     0.166 HD
HETATM    7  C9  UNL     1      66.562  11.351  25.510  1.00  0.00     0.032 A 
ENDROOT
BRANCH   1   8
HETATM    8  C6  UNL     1      64.031  11.361  24.986  1.00  0.00     0.078 C 
BRANCH   8   9
HETATM    9  C5  UNL     1      63.116  12.306  24.240  1.00  0.00     0.120 C 
BRANCH   9  10
HETATM   10  N1  UNL     1      62.663  13.413  25.001  1.00  0.00    -0.421 N 
ATOM     11  H1  UNL     1      62.567  14.338  24.580  1.00  0.00     0.153 HD
BRANCH  10  12
HETATM   12  C4  UNL     1      62.347  13.196  26.364  1.00  0.00     0.117 C 
BRANCH  12  13
HETATM   13  C3  UNL     1      62.536  14.346  27.283  1.00  0.00     0.045 C 
BRANCH  13  14
HETATM   14  C2  UNL     1      63.880  14.444  27.856  1.00  0.00    -0.035 C 
HETATM   15  C1  UNL     1      64.607  13.383  28.111  1.00  0.00     0.007 C 
ENDBRANCH  13  14
ENDBRANCH  12  13
ENDBRANCH  10  12
ENDBRANCH   9  10
ENDBRANCH   8   9
ENDBRANCH   1   8
BRANCH   7  16
HETATM   16  C10 UNL     1      66.613  10.504  26.701  1.00  0.00     0.054 C 
HETATM   17  C11 UNL     1      67.957  10.558  27.405  1.00  0.00     0.011 C 
ENDBRANCH   7  16
TORSDOF 7
ENDMDL
MODEL 2
REMARK VINA RESULT: -5.460286402      2.206      3.925
REMARK  7 active torsions:
REMARK  status: ('A' for Active; 'I' for Inactive)
REMARK    1  A    between atoms: C2_2  and  C3_3 
REMARK    2  A    between atoms: C3_3  and  C4_4 
REMARK    3  A    between atoms: C4_4  and  N1_5 
REMARK    4  A    between atoms: N1_5  and  C5_7 
REMARK    5  A    between atoms: C5_7  and  C6_8 
REMARK    6  A    between atoms: C6_8  and  C7_9 
REMARK    7  A    between atoms: C9_15  and  C10_16 
ROOT
HETATM    1  C7  UNL     1      65.406  10.624  26.366  1.00  0.00     0.034 A 
HETATM    2  N2  UNL     1      64.634   9.510  26.397  1.00  0.00    -0.354 N 
ATOM      3  H2  UNL     1      63.663   9.462  26.089  1.00  0.00     0.166 HD
HETATM    4  C8  UNL     1      65.327   8.493  26.888  1.00  0.00     0.180 A 
HETATM    5  N3  UNL     1      66.551   8.951  27.174  1.00  0.00    -0.354 N 
ATOM      6  H3  UNL     1      67.311   8.396  27.567  1.00  0.00     0.166 HD
HETATM    7  C9  UNL     1      66.624  10.253  26.863  1.00  0.00     0.032 A 
ENDROOT
BRANCH   1   8
HETATM    8  C6  UNL     1      64.921  11.919  25.859  1.00  0.00     0.078 C 
BRANCH   8   9
HETATM    9  C5  UNL     1      63.898  11.753  24.758  1.00  0.00     0.120 C 
BRANCH   9  10
HETATM   10  N1  UNL     1      64.082  12.615  23.647  1.00  0.00    -0.421 N 
ATOM     11  H1  UNL     1      63.674  13.550  23.633  1.00  0.00     0.153 HD
BRANCH  10  12
HETATM   12  C4  UNL     1      64.848  12.137  22.557  1.00  0.00     0.117 C 
BRANCH  12  13
HETATM   13  C3  UNL     1      65.892  13.048  22.025  1.00  0.00     0.045 C 
BRANCH  13  14
HETATM   14  C2  UNL     1      67.256  12.705  22.436  1.00  0.00    -0.035 C 
HETATM   15  C1  UNL     1      67.657  12.814  23.679  1.00  0.00     0.007 C 
ENDBRANCH  13  14
ENDBRANCH  12  13
ENDBRANCH  10  12
ENDBRANCH   9  10
ENDBRANCH   8   9
ENDBRANCH   1   8
BRANCH   7  16
HETATM   16  C10 UNL     1      67.799  11.104  27.041  1.00  0.00     0.054 C 
HETATM   17  C11 UNL     1      69.089  10.424  26.620  1.00  0.00     0.011 C 
ENDBRANCH   7  16
TORSDOF 7
ENDMDL
MODEL 3
REMARK VINA RESULT: -5.437908719      3.258      5.500
REMARK  7 active torsions:
REMARK  status: ('A' for Active; 'I' for Inactive)
REMARK    1  A    between atoms: C2_2  and  C3_3 
REMARK    2  A    between atoms: C3_3  and  C4_4 
REMARK    3  A    between atoms: C4_4  and  N1_5 
REMARK    4  A    between atoms: N1_5  and  C5_7 
REMARK    5  A    between atoms: C5_7  and  C6_8 
REMARK    6  A    between atoms: C6_8  and  C7_9 
REMARK    7  A    between atoms: C9_15  and  C10_16 
ROOT
HETATM    1  C7  UNL     1      63.807   8.990  25.949  1.00  0.00     0.034 A 
HETATM    2  N2  UNL     1      63.247   7.791  26.240  1.00  0.00    -0.354 N 
ATOM      3  H2  UNL     1      63.481   7.217  27.050  1.00  0.00     0.166 HD
HETATM    4  C8  UNL     1      62.350   7.473  25.318  1.00  0.00     0.180 A 
HETATM    5  N3  UNL     1      62.330   8.472  24.428  1.00  0.00    -0.354 N 
ATOM      6  H3  UNL     1      61.735   8.512  23.601  1.00  0.00     0.166 HD
HETATM    7  C9  UNL     1      63.213   9.412  24.792  1.00  0.00     0.032 A 
ENDROOT
BRANCH   1   8
HETATM    8  C6  UNL     1      64.832   9.621  26.796  1.00  0.00     0.078 C 
BRANCH   8   9
HETATM    9  C5  UNL     1      66.056   8.746  26.956  1.00  0.00     0.120 C 
BRANCH   9  10
HETATM   10  N1  UNL     1      67.237   9.443  27.317  1.00  0.00    -0.421 N 
ATOM     11  H1  UNL     1      68.022   8.959  27.754  1.00  0.00     0.153 HD
BRANCH  10  12
HETATM   12  C4  UNL     1      67.293  10.833  27.053  1.00  0.00     0.117 C 
BRANCH  12  13
HETATM   13  C3  UNL     1      67.979  11.247  25.804  1.00  0.00     0.045 C 
BRANCH  13  14
HETATM   14  C2  UNL     1      67.124  11.970  24.860  1.00  0.00    -0.035 C 
HETATM   15  C1  UNL     1      67.620  12.697  23.888  1.00  0.00     0.007 C 
ENDBRANCH  13  14
ENDBRANCH  12  13
ENDBRANCH  10  12
ENDBRANCH   9  10
ENDBRANCH   8   9
ENDBRANCH   1   8
BRANCH   7  16
HETATM   16  C10 UNL     1      63.483  10.651  24.065  1.00  0.00     0.054 C 
HETATM   17  C11 UNL     1      62.320  11.089  23.194  1.00  0.00     0.011 C 
ENDBRANCH   7  16
TORSDOF 7
ENDMDL
MODEL 4
REMARK VINA RESULT: -5.366480019      2.875      5.132
REMARK  7 active torsions:
REMARK  status: ('A' for Active; 'I' for Inactive)
REMARK    1  A    between atoms: C2_2  and  C3_3 
REMARK    2  A    between atoms: C3_3  and  C4_4 
REMARK    3  A    between atoms: C4_4  and  N1_5 
REMARK    4  A    between atoms: N1_5  and  C5_7 
REMARK    5  A    between atoms: C5_7  and  C6_8 
REMARK    6  A    between atoms: C6_8  and  C7_9 
REMARK    7  A    between atoms: C9_15  and  C10_16 
ROOT
HETATM    1  C7  UNL     1      63.987   9.828  25.724  1.00  0.00     0.034 A 
HETATM    2  N2  UNL     1      64.021  10.828  24.810  1.00  0.00    -0.354 N 
ATOM      3  H2  UNL     1      64.589  11.672  24.886  1.00  0.00     0.166 HD
HETATM    4  C8  UNL     1      63.205  10.549  23.803  1.00  0.00     0.180 A 
HETATM    5  N3  UNL     1      62.644   9.364  24.067  1.00  0.00    -0.354 N 
ATOM      6  H3  UNL     1      61.969   8.886  23.471  1.00  0.00     0.166 HD
HETATM    7  C9  UNL     1      63.107   8.902  25.238  1.00  0.00     0.032 A 
ENDROOT
BRANCH   1   8
HETATM    8  C6  UNL     1      64.797   9.840  26.953  1.00  0.00     0.078 C 
BRANCH   8   9
HETATM    9  C5  UNL     1      66.021   8.959  26.839  1.00  0.00     0.120 C 
BRANCH   9  10
HETATM   10  N1  UNL     1      67.217   9.542  27.329  1.00  0.00    -0.421 N 
ATOM     11  H1  UNL     1      67.910   8.983  27.828  1.00  0.00     0.153 HD
BRANCH  10  12
HETATM   12  C4  UNL     1      67.420  10.925  27.104  1.00  0.00     0.117 C 
BRANCH  12  13
HETATM   13  C3  UNL     1      68.081  11.303  25.830  1.00  0.00     0.045 C 
BRANCH  13  14
HETATM   14  C2  UNL     1      67.209  12.003  24.884  1.00  0.00    -0.035 C 
HETATM   15  C1  UNL     1      67.686  12.690  23.875  1.00  0.00     0.007 C 
ENDBRANCH  13  14
ENDBRANCH  12  13
ENDBRANCH  10  12
ENDBRANCH   9  10
ENDBRANCH   8   9
ENDBRANCH   1   8
BRANCH   7  16
HETATM   16  C10 UNL     1      62.719   7.640  25.866  1.00  0.00     0.054 C 
HETATM   17  C11 UNL     1      61.548   6.971  25.169  1.00  0.00     0.011 C 
ENDBRANCH   7  16
TORSDOF 7
ENDMDL
MODEL 5
REMARK VINA RESULT: -5.361483102      1.830      3.709
REMARK  7 active torsions:
REMARK  status: ('A' for Active; 'I' for Inactive)
REMARK    1  A    between atoms: C2_2  and  C3_3 
REMARK    2  A    between atoms: C3_3  and  C4_4 
REMARK    3  A    between atoms: C4_4  and  N1_5 
REMARK    4  A    between atoms: N1_5  and  C5_7 
REMARK    5  A    between atoms: C5_7  and  C6_8 
REMARK    6  A    between atoms: C6_8  and  C7_9 
REMARK    7  A    between atoms: C9_15  and  C10_16 
ROOT
HETATM    1  C7  UNL     1      64.818  11.650  26.274  1.00  0.00     0.034 A 
HETATM    2  N2  UNL     1      64.326  12.680  27.004  1.00  0.00    -0.354 N 
ATOM      3  H2  UNL     1      63.525  13.254  26.740  1.00  0.00     0.166 HD
HETATM    4  C8  UNL     1      65.038  12.833  28.111  1.00  0.00     0.180 A 
HETATM    5  N3  UNL     1      65.993  11.897  28.097  1.00  0.00    -0.354 N 
ATOM      6  H3  UNL     1      66.699  11.765  28.821  1.00  0.00     0.166 HD
HETATM    7  C9  UNL     1      65.880  11.160  26.983  1.00  0.00     0.032 A 
ENDROOT
BRANCH   1   8
HETATM    8  C6  UNL     1      64.231  11.224  24.993  1.00  0.00     0.078 C 
BRANCH   8   9
HETATM    9  C5  UNL     1      63.293  12.264  24.422  1.00  0.00     0.120 C 
BRANCH   9  10
HETATM   10  N1  UNL     1      63.787  12.939  23.277  1.00  0.00    -0.421 N 
ATOM     11  H1  UNL     1      63.466  13.878  23.039  1.00  0.00     0.153 HD
BRANCH  10  12
HETATM   12  C4  UNL     1      64.740  12.269  22.473  1.00  0.00     0.117 C 
BRANCH  12  13
HETATM   13  C3  UNL     1      65.862  13.087  21.947  1.00  0.00     0.045 C 
BRANCH  13  14
HETATM   14  C2  UNL     1      67.178  12.710  22.469  1.00  0.00    -0.035 C 
HETATM   15  C1  UNL     1      67.445  12.715  23.752  1.00  0.00     0.007 C 
ENDBRANCH  13  14
ENDBRANCH  12  13
ENDBRANCH  10  12
ENDBRANCH   9  10
ENDBRANCH   8   9
ENDBRANCH   1   8
BRANCH   7  16
HETATM   16  C10 UNL     1      66.750  10.047  26.608  1.00  0.00     0.054 C 
HETATM   17  C11 UNL     1      68.223  10.413  26.642  1.00  0.00     0.011 C 
ENDBRANCH   7  16
TORSDOF 7
ENDMDL
