MODEL 1
REMARK VINA RESULT: -5.130907773      0.000      0.000
REMARK  8 active torsions:
REMARK  status: ('A' for Active; 'I' for Inactive)
REMARK    1  A    between atoms: C2_2  and  C3_3 
REMARK    2  A    between atoms: C3_3  and  N1_4 
REMARK    3  A    between atoms: N1_4  and  C4_7 
REMARK    4  A    between atoms: C4_7  and  C5_8 
REMARK    5  A    between atoms: C5_8  and  N2_10 
REMARK    6  A    between atoms: N2_10  and  C7_12 
REMARK    7  A    between atoms: C7_12  and  C8_13 
REMARK    8  A    between atoms: C8_13  and  C9_14 
ROOT
HETATM    1  C5  UNL     1      62.903  12.101  23.971  1.00  0.00     0.102 C 
HETATM    2  C6  UNL     1      64.262  11.998  23.384  1.00  0.00     0.034 C 
ENDROOT
BRANCH   1   3
HETATM    3  C4  UNL     1      61.773  11.805  23.008  1.00  0.00     0.257 C 
BRANCH   3   4
HETATM    4  N1  UNL     1      60.752  12.793  22.941  1.00  0.00    -0.070 N 
ATOM      5  H12 UNL     1      61.120  13.726  22.758  1.00  0.00     0.277 HD
ATOM      6  H11 UNL     1      60.332  12.985  23.851  1.00  0.00     0.277 HD
BRANCH   4   7
HETATM    7  C3  UNL     1      59.771  12.372  21.948  1.00  0.00     0.259 C 
BRANCH   7   8
HETATM    8  C2  UNL     1      58.575  13.251  21.922  1.00  0.00    -0.010 C 
HETATM    9  C1  UNL     1      57.392  12.856  21.504  1.00  0.00     0.008 C 
ENDBRANCH   7   8
ENDBRANCH   4   7
ENDBRANCH   3   4
ENDBRANCH   1   3
BRANCH   1  10
HETATM   10  N2  UNL     1      62.600  13.238  24.729  1.00  0.00    -0.396 N 
ATOM     11  H2  UNL     1      62.428  14.116  24.239  1.00  0.00     0.159 HD
BRANCH  10  12
HETATM   12  C7  UNL     1      62.522  13.227  26.113  1.00  0.00     0.056 C 
BRANCH  12  13
HETATM   13  C8  UNL     1      63.300  12.172  26.859  1.00  0.00     0.048 C 
BRANCH  13  14
HETATM   14  C9  UNL     1      63.981  12.885  28.031  1.00  0.00    -0.018 C 
HETATM   15  C10 UNL     1      65.427  12.469  28.111  1.00  0.00     0.010 C 
HETATM   16  C11 UNL     1      63.816  14.383  27.957  1.00  0.00     0.010 C 
ENDBRANCH  13  14
ENDBRANCH  12  13
ENDBRANCH  10  12
ENDBRANCH   1  10
TORSDOF 8
ENDMDL
MODEL 2
REMARK VINA RESULT: -5.105670595      0.948      1.330
REMARK  8 active torsions:
REMARK  status: ('A' for Active; 'I' for Inactive)
REMARK    1  A    between atoms: C2_2  and  C3_3 
REMARK    2  A    between atoms: C3_3  and  N1_4 
REMARK    3  A    between atoms: N1_4  and  C4_7 
REMARK    4  A    between atoms: C4_7  and  C5_8 
REMARK    5  A    between atoms: C5_8  and  N2_10 
REMARK    6  A    between atoms: N2_10  and  C7_12 
REMARK    7  A    between atoms: C7_12  and  C8_13 
REMARK    8  A    between atoms: C8_13  and  C9_14 
ROOT
HETATM    1  C5  UNL     1      62.697  12.059  23.547  1.00  0.00     0.102 C 
HETATM    2  C6  UNL     1      63.884  12.048  22.656  1.00  0.00     0.034 C 
ENDROOT
BRANCH   1   3
HETATM    3  C4  UNL     1      61.378  11.819  22.846  1.00  0.00     0.257 C 
BRANCH   3   4
HETATM    4  N1  UNL     1      60.494  12.934  22.807  1.00  0.00    -0.070 N 
ATOM      5  H12 UNL     1      60.940  13.775  22.440  1.00  0.00     0.277 HD
ATOM      6  H11 UNL     1      60.270  13.289  23.736  1.00  0.00     0.277 HD
BRANCH   4   7
HETATM    7  C3  UNL     1      59.308  12.553  22.050  1.00  0.00     0.259 C 
BRANCH   7   8
HETATM    8  C2  UNL     1      58.306  13.645  21.974  1.00  0.00    -0.010 C 
HETATM    9  C1  UNL     1      57.059  13.461  21.602  1.00  0.00     0.008 C 
ENDBRANCH   7   8
ENDBRANCH   4   7
ENDBRANCH   3   4
ENDBRANCH   1   3
BRANCH   1  10
HETATM   10  N2  UNL     1      62.570  13.114  24.458  1.00  0.00    -0.396 N 
ATOM     11  H2  UNL     1      62.441  14.057  24.093  1.00  0.00     0.159 HD
BRANCH  10  12
HETATM   12  C7  UNL     1      62.611  12.937  25.833  1.00  0.00     0.056 C 
BRANCH  12  13
HETATM   13  C8  UNL     1      63.422  11.788  26.375  1.00  0.00     0.048 C 
BRANCH  13  14
HETATM   14  C9  UNL     1      64.842  12.322  26.586  1.00  0.00    -0.018 C 
HETATM   15  C10 UNL     1      65.145  12.400  28.060  1.00  0.00     0.010 C 
HETATM   16  C11 UNL     1      65.869  11.517  25.829  1.00  0.00     0.010 C 
ENDBRANCH  13  14
ENDBRANCH  12  13
ENDBRANCH  10  12
ENDBRANCH   1  10
TORSDOF 8
ENDMDL
MODEL 3
REMARK VINA RESULT: -5.098343548      3.219      5.083
REMARK  8 active torsions:
REMARK  status: ('A' for Active; 'I' for Inactive)
REMARK    1  A    between atoms: C2_2  and  C3_3 
REMARK    2  A    between atoms: C3_3  and  N1_4 
REMARK    3  A    between atoms: N1_4  and  C4_7 
REMARK    4  A    between atoms: C4_7  and  C5_8 
REMARK    5  A    between atoms: C5_8  and  N2_10 
REMARK    6  A    between atoms: N2_10  and  C7_12 
REMARK    7  A    between atoms: C7_12  and  C8_13 
REMARK    8  A    between atoms: C8_13  and  C9_14 
ROOT
HETATM    1  C5  UNL     1      64.089  11.896  25.066  1.00  0.00     0.102 C 
HETATM    2  C6  UNL     1      63.159  12.547  26.021  1.00  0.00     0.034 C 
ENDROOT
BRANCH   1   3
HETATM    3  C4  UNL     1      63.672  11.986  23.614  1.00  0.00     0.257 C 
BRANCH   3   4
HETATM    4  N1  UNL     1      64.292  13.023  22.863  1.00  0.00    -0.070 N 
ATOM      5  H12 UNL     1      64.596  13.803  23.447  1.00  0.00     0.277 HD
ATOM      6  H11 UNL     1      63.630  13.535  22.280  1.00  0.00     0.277 HD
BRANCH   4   7
HETATM    7  C3  UNL     1      65.385  12.441  22.093  1.00  0.00     0.259 C 
BRANCH   7   8
HETATM    8  C2  UNL     1      66.693  13.074  22.394  1.00  0.00    -0.010 C 
HETATM    9  C1  UNL     1      67.420  12.771  23.448  1.00  0.00     0.008 C 
ENDBRANCH   7   8
ENDBRANCH   4   7
ENDBRANCH   3   4
ENDBRANCH   1   3
BRANCH   1  10
HETATM   10  N2  UNL     1      64.527  10.599  25.358  1.00  0.00    -0.396 N 
ATOM     11  H2  UNL     1      64.466   9.890  24.627  1.00  0.00     0.159 HD
BRANCH  10  12
HETATM   12  C7  UNL     1      65.040  10.232  26.593  1.00  0.00     0.056 C 
BRANCH  12  13
HETATM   13  C8  UNL     1      66.436   9.666  26.641  1.00  0.00     0.048 C 
BRANCH  13  14
HETATM   14  C9  UNL     1      67.389  10.865  26.643  1.00  0.00    -0.018 C 
HETATM   15  C10 UNL     1      67.050  11.785  27.787  1.00  0.00     0.010 C 
HETATM   16  C11 UNL     1      68.837  10.439  26.656  1.00  0.00     0.010 C 
ENDBRANCH  13  14
ENDBRANCH  12  13
ENDBRANCH  10  12
ENDBRANCH   1  10
TORSDOF 8
ENDMDL
MODEL 4
REMARK VINA RESULT: -5.088327601      1.041      1.557
REMARK  8 active torsions:
REMARK  status: ('A' for Active; 'I' for Inactive)
REMARK    1  A    between atoms: C2_2  and  C3_3 
REMARK    2  A    between atoms: C3_3  and  N1_4 
REMARK    3  A    between atoms: N1_4  and  C4_7 
REMARK    4  A    between atoms: C4_7  and  C5_8 
REMARK    5  A    between atoms: C5_8  and  N2_10 
REMARK    6  A    between atoms: N2_10  and  C7_12 
REMARK    7  A    between atoms: C7_12  and  C8_13 
REMARK    8  A    between atoms: C8_13  and  C9_14 
ROOT
HETATM    1  C5  UNL     1      61.725  11.898  22.897  1.00  0.00     0.102 C 
HETATM    2  C6  UNL     1      62.845  11.939  21.926  1.00  0.00     0.034 C 
ENDROOT
BRANCH   1   3
HETATM    3  C4  UNL     1      60.347  12.005  22.280  1.00  0.00     0.257 C 
BRANCH   3   4
HETATM    4  N1  UNL     1      59.671  13.237  22.503  1.00  0.00    -0.070 N 
ATOM      5  H12 UNL     1      60.312  14.006  22.702  1.00  0.00     0.277 HD
ATOM      6  H11 UNL     1      59.161  13.250  23.386  1.00  0.00     0.277 HD
BRANCH   4   7
HETATM    7  C3  UNL     1      58.814  13.505  21.355  1.00  0.00     0.259 C 
BRANCH   7   8
HETATM    8  C2  UNL     1      57.378  13.577  21.722  1.00  0.00    -0.010 C 
HETATM    9  C1  UNL     1      56.474  12.725  21.290  1.00  0.00     0.008 C 
ENDBRANCH   7   8
ENDBRANCH   4   7
ENDBRANCH   3   4
ENDBRANCH   1   3
BRANCH   1  10
HETATM   10  N2  UNL     1      61.807  12.717  24.029  1.00  0.00    -0.396 N 
ATOM     11  H2  UNL     1      61.107  13.449  24.150  1.00  0.00     0.159 HD
BRANCH  10  12
HETATM   12  C7  UNL     1      62.794  12.581  24.993  1.00  0.00     0.056 C 
BRANCH  12  13
HETATM   13  C8  UNL     1      62.538  13.167  26.358  1.00  0.00     0.048 C 
BRANCH  13  14
HETATM   14  C9  UNL     1      63.283  12.278  27.358  1.00  0.00    -0.018 C 
HETATM   15  C10 UNL     1      63.727  11.008  26.680  1.00  0.00     0.010 C 
HETATM   16  C11 UNL     1      64.425  13.007  28.022  1.00  0.00     0.010 C 
ENDBRANCH  13  14
ENDBRANCH  12  13
ENDBRANCH  10  12
ENDBRANCH   1  10
TORSDOF 8
ENDMDL
MODEL 5
REMARK VINA RESULT: -5.028302487      3.917      4.994
REMARK  8 active torsions:
REMARK  status: ('A' for Active; 'I' for Inactive)
REMARK    1  A    between atoms: C2_2  and  C3_3 
REMARK    2  A    between atoms: C3_3  and  N1_4 
REMARK    3  A    between atoms: N1_4  and  C4_7 
REMARK    4  A    between atoms: C4_7  and  C5_8 
REMARK    5  A    between atoms: C5_8  and  N2_10 
REMARK    6  A    between atoms: N2_10  and  C7_12 
REMARK    7  A    between atoms: C7_12  and  C8_13 
REMARK    8  A    between atoms: C8_13  and  C9_14 
ROOT
HETATM    1  C5  UNL     1      63.730  11.760  25.823  1.00  0.00     0.102 C 
HETATM    2  C6  UNL     1      63.143  11.862  27.182  1.00  0.00     0.034 C 
ENDROOT
BRANCH   1   3
HETATM    3  C4  UNL     1      63.704  10.371  25.224  1.00  0.00     0.257 C 
BRANCH   3   4
HETATM    4  N1  UNL     1      63.096   9.369  26.031  1.00  0.00    -0.070 N 
ATOM      5  H12 UNL     1      62.150   9.618  26.320  1.00  0.00     0.277 HD
ATOM      6  H11 UNL     1      63.514   9.306  26.960  1.00  0.00     0.277 HD
BRANCH   4   7
HETATM    7  C3  UNL     1      63.145   8.104  25.307  1.00  0.00     0.259 C 
BRANCH   7   8
HETATM    8  C2  UNL     1      61.898   7.314  25.458  1.00  0.00    -0.010 C 
HETATM    9  C1  UNL     1      61.022   7.148  24.491  1.00  0.00     0.008 C 
ENDBRANCH   7   8
ENDBRANCH   4   7
ENDBRANCH   3   4
ENDBRANCH   1   3
BRANCH   1  10
HETATM   10  N2  UNL     1      64.979  12.352  25.601  1.00  0.00    -0.396 N 
ATOM     11  H2  UNL     1      65.008  13.326  25.301  1.00  0.00     0.159 HD
BRANCH  10  12
HETATM   12  C7  UNL     1      66.179  11.677  25.771  1.00  0.00     0.056 C 
BRANCH  12  13
HETATM   13  C8  UNL     1      66.843  11.741  27.123  1.00  0.00     0.048 C 
BRANCH  13  14
HETATM   14  C9  UNL     1      67.576  10.409  27.308  1.00  0.00    -0.018 C 
HETATM   15  C10 UNL     1      66.692   9.273  26.863  1.00  0.00     0.010 C 
HETATM   16  C11 UNL     1      68.918  10.400  26.617  1.00  0.00     0.010 C 
ENDBRANCH  13  14
ENDBRANCH  12  13
ENDBRANCH  10  12
ENDBRANCH   1  10
TORSDOF 8
ENDMDL
