MODEL 1
REMARK VINA RESULT: -5.441309823      0.000      0.000
REMARK  3 active torsions:
REMARK  status: ('A' for Active; 'I' for Inactive)
REMARK    1  A    between atoms: C2_2  and  N1_3 
REMARK       I    between atoms: N1_3  and  C3_5 
REMARK       I    between atoms: C3_5  and  N2_7 
REMARK    2  A    between atoms: N2_7  and  C4_9 
REMARK    3  A    between atoms: N3_10  and  C5_12 
ROOT
HETATM    1  C4  UNL     1       0.331  11.716  47.488  1.00  0.00     0.181 C 
HETATM    2  N3  UNL     1       0.271  12.274  48.645  1.00  0.00    -0.359 N 
ATOM      3  H3  UNL     1       0.956  12.059  49.370  1.00  0.00     0.162 HD
ENDROOT
BRANCH   2   4
HETATM    4  C5  UNL     1      -0.794  13.215  48.887  1.00  0.00     0.285 C 
HETATM    5  C6  UNL     1      -0.309  14.662  48.784  1.00  0.00     0.061 C 
HETATM    6  C7  UNL     1      -1.486  15.383  49.385  1.00  0.00     0.022 A 
HETATM    7  C8  UNL     1      -1.577  15.642  50.839  1.00  0.00     0.040 A 
HETATM    8  C9  UNL     1      -2.092  14.344  50.344  1.00  0.00     0.193 A 
HETATM    9  N4  UNL     1      -1.225  13.198  50.283  1.00  0.00    -0.050 N 
ATOM     10  H42 UNL     1      -1.645  12.322  50.594  1.00  0.00     0.280 HD
ATOM     11  H41 UNL     1      -0.470  13.192  50.967  1.00  0.00     0.280 HD
ENDBRANCH   2   4
BRANCH   1  12
HETATM   12  N2  UNL     1      -0.600  11.991  46.461  1.00  0.00    -0.305 N 
HETATM   13  C3  UNL     1      -0.599  11.180  45.303  1.00  0.00     0.321 C 
HETATM   14  N1  UNL     1      -1.533  11.451  44.268  1.00  0.00    -0.343 N 
HETATM   15  O1  UNL     1       0.222  10.221  45.183  1.00  0.00    -0.247 OA
ATOM     16  H1  UNL     1      -2.193  12.223  44.365  1.00  0.00     0.164 HD
ATOM     17  H2  UNL     1      -1.262  12.761  46.554  1.00  0.00     0.171 HD
BRANCH  14  18
HETATM   18  C2  UNL     1      -1.546  10.623  43.062  1.00  0.00     0.120 C 
HETATM   19  C1  UNL     1      -1.049  11.466  41.928  1.00  0.00     0.026 C 
ENDBRANCH  14  18
ENDBRANCH   1  12
TORSDOF 3
ENDMDL
MODEL 2
REMARK VINA RESULT: -5.431375964      2.716      3.390
REMARK  3 active torsions:
REMARK  status: ('A' for Active; 'I' for Inactive)
REMARK    1  A    between atoms: C2_2  and  N1_3 
REMARK       I    between atoms: N1_3  and  C3_5 
REMARK       I    between atoms: C3_5  and  N2_7 
REMARK    2  A    between atoms: N2_7  and  C4_9 
REMARK    3  A    between atoms: N3_10  and  C5_12 
ROOT
HETATM    1  C4  UNL     1      -0.763  14.186  47.523  1.00  0.00     0.181 C 
HETATM    2  N3  UNL     1      -1.387  15.028  48.268  1.00  0.00    -0.359 N 
ATOM      3  H3  UNL     1      -2.026  15.714  47.865  1.00  0.00     0.162 HD
ENDROOT
BRANCH   2   4
HETATM    4  C5  UNL     1      -1.157  14.972  49.690  1.00  0.00     0.285 C 
HETATM    5  C6  UNL     1      -2.071  13.955  50.374  1.00  0.00     0.061 C 
HETATM    6  C7  UNL     1      -1.863  14.334  51.816  1.00  0.00     0.022 A 
HETATM    7  C8  UNL     1      -2.702  15.357  52.478  1.00  0.00     0.040 A 
HETATM    8  C9  UNL     1      -1.504  15.829  51.746  1.00  0.00     0.193 A 
HETATM    9  N4  UNL     1      -1.602  16.193  50.358  1.00  0.00    -0.050 N 
ATOM     10  H42 UNL     1      -1.094  17.038  50.097  1.00  0.00     0.280 HD
ATOM     11  H41 UNL     1      -2.517  16.536  50.066  1.00  0.00     0.280 HD
ENDBRANCH   2   4
BRANCH   1  12
HETATM   12  N2  UNL     1       0.129  13.223  48.045  1.00  0.00    -0.305 N 
HETATM   13  C3  UNL     1       0.417  12.071  47.277  1.00  0.00     0.321 C 
HETATM   14  N1  UNL     1       1.313  11.099  47.798  1.00  0.00    -0.343 N 
HETATM   15  O1  UNL     1      -0.113  11.901  46.138  1.00  0.00    -0.247 OA
ATOM     16  H1  UNL     1       1.739  11.237  48.715  1.00  0.00     0.164 HD
ATOM     17  H2  UNL     1       0.557  13.355  48.961  1.00  0.00     0.171 HD
BRANCH  14  18
HETATM   18  C2  UNL     1       1.624   9.902  47.018  1.00  0.00     0.120 C 
HETATM   19  C1  UNL     1       3.102   9.673  47.107  1.00  0.00     0.026 C 
ENDBRANCH  14  18
ENDBRANCH   1  12
TORSDOF 3
ENDMDL
MODEL 3
REMARK VINA RESULT: -5.326324572      3.113      6.436
REMARK  3 active torsions:
REMARK  status: ('A' for Active; 'I' for Inactive)
REMARK    1  A    between atoms: C2_2  and  N1_3 
REMARK       I    between atoms: N1_3  and  C3_5 
REMARK       I    between atoms: C3_5  and  N2_7 
REMARK    2  A    between atoms: N2_7  and  C4_9 
REMARK    3  A    between atoms: N3_10  and  C5_12 
ROOT
HETATM    1  C4  UNL     1      -0.277  14.865  47.661  1.00  0.00     0.181 C 
HETATM    2  N3  UNL     1       0.168  13.748  47.207  1.00  0.00    -0.359 N 
ATOM      3  H3  UNL     1       0.900  13.722  46.498  1.00  0.00     0.162 HD
ENDROOT
BRANCH   2   4
HETATM    4  C5  UNL     1      -0.401  12.531  47.730  1.00  0.00     0.285 C 
HETATM    5  C6  UNL     1       0.638  11.414  47.829  1.00  0.00     0.061 C 
HETATM    6  C7  UNL     1      -0.261  10.231  48.070  1.00  0.00     0.022 A 
HETATM    7  C8  UNL     1      -0.827   9.445  46.952  1.00  0.00     0.040 A 
HETATM    8  C9  UNL     1      -1.582  10.640  47.395  1.00  0.00     0.193 A 
HETATM    9  N4  UNL     1      -1.333  11.919  46.787  1.00  0.00    -0.050 N 
ATOM     10  H42 UNL     1      -2.168  12.471  46.585  1.00  0.00     0.280 HD
ATOM     11  H41 UNL     1      -1.007  11.881  45.821  1.00  0.00     0.280 HD
ENDBRANCH   2   4
BRANCH   1  12
HETATM   12  N2  UNL     1      -1.290  14.939  48.643  1.00  0.00    -0.305 N 
HETATM   13  C3  UNL     1      -1.001  15.563  49.879  1.00  0.00     0.321 C 
HETATM   14  N1  UNL     1      -2.017  15.639  50.869  1.00  0.00    -0.343 N 
HETATM   15  O1  UNL     1       0.147  16.050  50.106  1.00  0.00    -0.247 OA
ATOM     16  H1  UNL     1      -2.940  15.246  50.685  1.00  0.00     0.164 HD
ATOM     17  H2  UNL     1      -2.215  14.548  48.464  1.00  0.00     0.171 HD
BRANCH  14  18
HETATM   18  C2  UNL     1      -1.736  16.281  52.153  1.00  0.00     0.120 C 
HETATM   19  C1  UNL     1      -1.828  15.229  53.216  1.00  0.00     0.026 C 
ENDBRANCH  14  18
ENDBRANCH   1  12
TORSDOF 3
ENDMDL
MODEL 4
REMARK VINA RESULT: -5.227424534      1.005      1.007
REMARK  3 active torsions:
REMARK  status: ('A' for Active; 'I' for Inactive)
REMARK    1  A    between atoms: C2_2  and  N1_3 
REMARK       I    between atoms: N1_3  and  C3_5 
REMARK       I    between atoms: C3_5  and  N2_7 
REMARK    2  A    between atoms: N2_7  and  C4_9 
REMARK    3  A    between atoms: N3_10  and  C5_12 
ROOT
HETATM    1  C4  UNL     1      -0.215  11.117  48.594  1.00  0.00     0.181 C 
HETATM    2  N3  UNL     1      -0.334  11.730  49.718  1.00  0.00    -0.359 N 
ATOM      3  H3  UNL     1       0.210  11.446  50.532  1.00  0.00     0.162 HD
ENDROOT
BRANCH   2   4
HETATM    4  C5  UNL     1      -1.261  12.832  49.791  1.00  0.00     0.285 C 
HETATM    5  C6  UNL     1      -0.581  14.168  49.489  1.00  0.00     0.061 C 
HETATM    6  C7  UNL     1      -1.650  15.123  49.948  1.00  0.00     0.022 A 
HETATM    7  C8  UNL     1      -1.713  15.604  51.345  1.00  0.00     0.040 A 
HETATM    8  C9  UNL     1      -2.400  14.329  51.032  1.00  0.00     0.193 A 
HETATM    9  N4  UNL     1      -1.698  13.081  51.162  1.00  0.00    -0.050 N 
ATOM     10  H42 UNL     1      -2.237  12.325  51.587  1.00  0.00     0.280 HD
ATOM     11  H41 UNL     1      -0.955  13.074  51.860  1.00  0.00     0.280 HD
ENDBRANCH   2   4
BRANCH   1  12
HETATM   12  N2  UNL     1      -0.953  11.482  47.445  1.00  0.00    -0.305 N 
HETATM   13  C3  UNL     1      -0.453  11.126  46.171  1.00  0.00     0.321 C 
HETATM   14  N1  UNL     1      -1.191  11.491  45.013  1.00  0.00    -0.343 N 
HETATM   15  O1  UNL     1       0.637  10.490  46.056  1.00  0.00    -0.247 OA
ATOM     16  H1  UNL     1      -2.069  12.003  45.107  1.00  0.00     0.164 HD
ATOM     17  H2  UNL     1      -1.830  11.993  47.534  1.00  0.00     0.171 HD
BRANCH  14  18
HETATM   18  C2  UNL     1      -0.690  11.132  43.686  1.00  0.00     0.120 C 
HETATM   19  C1  UNL     1      -1.729  11.534  42.685  1.00  0.00     0.026 C 
ENDBRANCH  14  18
ENDBRANCH   1  12
TORSDOF 3
ENDMDL
MODEL 5
REMARK VINA RESULT: -5.203327180      2.539      4.521
REMARK  3 active torsions:
REMARK  status: ('A' for Active; 'I' for Inactive)
REMARK    1  A    between atoms: C2_2  and  N1_3 
REMARK       I    between atoms: N1_3  and  C3_5 
REMARK       I    between atoms: C3_5  and  N2_7 
REMARK    2  A    between atoms: N2_7  and  C4_9 
REMARK    3  A    between atoms: N3_10  and  C5_12 
ROOT
HETATM    1  C4  UNL     1       0.171  11.479  46.757  1.00  0.00     0.181 C 
HETATM    2  N3  UNL     1      -0.595  12.492  46.965  1.00  0.00    -0.359 N 
ATOM      3  H3  UNL     1      -1.323  12.747  46.298  1.00  0.00     0.162 HD
ENDROOT
BRANCH   2   4
HETATM    4  C5  UNL     1      -0.393  13.254  48.172  1.00  0.00     0.285 C 
HETATM    5  C6  UNL     1      -1.659  13.311  49.028  1.00  0.00     0.061 C 
HETATM    6  C7  UNL     1      -1.277  14.394  50.000  1.00  0.00     0.022 A 
HETATM    7  C8  UNL     1      -1.547  15.821  49.717  1.00  0.00     0.040 A 
HETATM    8  C9  UNL     1      -0.277  15.253  49.207  1.00  0.00     0.193 A 
HETATM    9  N4  UNL     1      -0.220  14.677  47.890  1.00  0.00    -0.050 N 
ATOM     10  H42 UNL     1       0.614  14.912  47.352  1.00  0.00     0.280 HD
ATOM     11  H41 UNL     1      -0.882  15.067  47.220  1.00  0.00     0.280 HD
ENDBRANCH   2   4
BRANCH   1  12
HETATM   12  N2  UNL     1       1.189  11.097  47.658  1.00  0.00    -0.305 N 
HETATM   13  C3  UNL     1       0.899  10.126  48.645  1.00  0.00     0.321 C 
HETATM   14  N1  UNL     1       1.919   9.738  49.554  1.00  0.00    -0.343 N 
HETATM   15  O1  UNL     1      -0.254   9.605  48.723  1.00  0.00    -0.247 OA
ATOM     16  H1  UNL     1       2.847  10.158  49.490  1.00  0.00     0.164 HD
ATOM     17  H2  UNL     1       2.118  11.513  47.599  1.00  0.00     0.171 HD
BRANCH  14  18
HETATM   18  C2  UNL     1       1.638   8.736  50.581  1.00  0.00     0.120 C 
HETATM   19  C1  UNL     1       2.184   9.250  51.878  1.00  0.00     0.026 C 
ENDBRANCH  14  18
ENDBRANCH   1  12
TORSDOF 3
ENDMDL
