MODEL 1
REMARK VINA RESULT: -6.050140725      0.000      0.000
REMARK  3 active torsions:
REMARK  status: ('A' for Active; 'I' for Inactive)
REMARK    1  A    between atoms: C4_7  and  C5_8 
REMARK    2  A    between atoms: C5_8  and  N2_9 
REMARK    3  A    between atoms: N2_9  and  C6_11 
ROOT
HETATM    1  C5  UNL     1      -1.634  12.473  48.904  1.00  0.00     0.118 C 
ENDROOT
BRANCH   1   2
HETATM    2  C4  UNL     1      -0.484  11.817  48.761  1.00  0.00     0.117 A 
HETATM    3  C3  UNL     1       0.403  11.991  47.721  1.00  0.00     0.275 A 
HETATM    4  N1  UNL     1       1.435  11.146  47.945  1.00  0.00    -0.308 N 
HETATM    5  O1  UNL     1       0.239  12.797  46.767  1.00  0.00    -0.266 OA
HETATM    6  C2  UNL     1       1.218  10.451  49.090  1.00  0.00     0.098 A 
ATOM      7  H1  UNL     1       2.252  11.046  47.343  1.00  0.00     0.170 HD
HETATM    8  C1  UNL     1       2.026   9.531  49.619  1.00  0.00     0.063 C 
HETATM    9  N4  UNL     1       0.038  10.887  49.562  1.00  0.00    -0.338 N 
ATOM     10  H4  UNL     1      -0.401  10.551  50.419  1.00  0.00     0.167 HD
ENDBRANCH   1   2
BRANCH   1  11
HETATM   11  N2  UNL     1      -1.691  13.884  49.015  1.00  0.00    -0.391 N 
ATOM     12  H2  UNL     1      -2.036  14.460  48.247  1.00  0.00     0.159 HD
BRANCH  11  13
HETATM   13  C6  UNL     1      -1.245  14.477  50.249  1.00  0.00     0.108 C 
HETATM   14  C7  UNL     1      -2.368  14.626  51.255  1.00  0.00     0.054 C 
HETATM   15  C8  UNL     1      -1.721  15.630  52.216  1.00  0.00     0.234 C 
HETATM   16  N3  UNL     1      -0.831  16.431  51.424  1.00  0.00    -0.073 N 
HETATM   17  C9  UNL     1      -0.808  15.912  50.092  1.00  0.00     0.257 C 
ATOM     18  H32 UNL     1      -1.068  17.423  51.453  1.00  0.00     0.277 HD
ATOM     19  H31 UNL     1       0.101  16.499  51.833  1.00  0.00     0.277 HD
ENDBRANCH  11  13
ENDBRANCH   1  11
TORSDOF 3
ENDMDL
MODEL 2
REMARK VINA RESULT: -5.851728093      1.965      5.250
REMARK  3 active torsions:
REMARK  status: ('A' for Active; 'I' for Inactive)
REMARK    1  A    between atoms: C4_7  and  C5_8 
REMARK    2  A    between atoms: C5_8  and  N2_9 
REMARK    3  A    between atoms: N2_9  and  C6_11 
ROOT
HETATM    1  C5  UNL     1      -1.156  14.130  48.020  1.00  0.00     0.118 C 
ENDROOT
BRANCH   1   2
HETATM    2  C4  UNL     1      -1.542  14.311  49.282  1.00  0.00     0.117 A 
HETATM    3  C3  UNL     1      -2.459  13.529  49.949  1.00  0.00     0.275 A 
HETATM    4  N1  UNL     1      -2.572  14.041  51.196  1.00  0.00    -0.308 N 
HETATM    5  O1  UNL     1      -3.052  12.535  49.450  1.00  0.00    -0.266 OA
HETATM    6  C2  UNL     1      -1.756  15.117  51.325  1.00  0.00     0.098 A 
ATOM      7  H1  UNL     1      -3.179  13.673  51.928  1.00  0.00     0.170 HD
HETATM    8  C1  UNL     1      -1.609  15.869  52.417  1.00  0.00     0.063 C 
HETATM    9  N4  UNL     1      -1.143  15.253  50.137  1.00  0.00    -0.338 N 
ATOM     10  H4  UNL     1      -0.462  15.980  49.919  1.00  0.00     0.167 HD
ENDBRANCH   1   2
BRANCH   1  11
HETATM   11  N2  UNL     1       0.086  13.534  47.688  1.00  0.00    -0.391 N 
ATOM     12  H2  UNL     1       0.949  14.077  47.693  1.00  0.00     0.159 HD
BRANCH  11  13
HETATM   13  C6  UNL     1       0.086  12.136  47.342  1.00  0.00     0.108 C 
HETATM   14  C7  UNL     1      -1.232  11.692  46.742  1.00  0.00     0.054 C 
HETATM   15  C8  UNL     1      -1.086  10.173  46.894  1.00  0.00     0.234 C 
HETATM   16  N3  UNL     1      -0.272   9.960  48.057  1.00  0.00    -0.073 N 
HETATM   17  C9  UNL     1       0.174  11.229  48.544  1.00  0.00     0.257 C 
ATOM     18  H32 UNL     1      -0.749   9.414  48.774  1.00  0.00     0.277 HD
ATOM     19  H31 UNL     1       0.500   9.317  47.881  1.00  0.00     0.277 HD
ENDBRANCH  11  13
ENDBRANCH   1  11
TORSDOF 3
ENDMDL
MODEL 3
REMARK VINA RESULT: -5.826474925      1.158      1.260
REMARK  3 active torsions:
REMARK  status: ('A' for Active; 'I' for Inactive)
REMARK    1  A    between atoms: C4_7  and  C5_8 
REMARK    2  A    between atoms: C5_8  and  N2_9 
REMARK    3  A    between atoms: N2_9  and  C6_11 
ROOT
HETATM    1  C5  UNL     1      -0.852  13.491  47.932  1.00  0.00     0.118 C 
ENDROOT
BRANCH   1   2
HETATM    2  C4  UNL     1      -0.143  12.401  47.643  1.00  0.00     0.117 A 
HETATM    3  C3  UNL     1      -0.373  11.571  46.568  1.00  0.00     0.275 A 
HETATM    4  N1  UNL     1       0.555  10.589  46.630  1.00  0.00    -0.308 N 
HETATM    5  O1  UNL     1      -1.285  11.737  45.715  1.00  0.00    -0.266 OA
HETATM    6  C2  UNL     1       1.353  10.781  47.710  1.00  0.00     0.098 A 
ATOM      7  H1  UNL     1       0.642   9.820  45.966  1.00  0.00     0.170 HD
HETATM    8  C1  UNL     1       2.375  10.008  48.084  1.00  0.00     0.063 C 
HETATM    9  N4  UNL     1       0.898  11.897  48.305  1.00  0.00    -0.338 N 
ATOM     10  H4  UNL     1       1.296  12.304  49.151  1.00  0.00     0.167 HD
ENDBRANCH   1   2
BRANCH   1  11
HETATM   11  N2  UNL     1      -1.709  13.558  49.059  1.00  0.00    -0.391 N 
ATOM     12  H2  UNL     1      -2.625  13.109  49.053  1.00  0.00     0.159 HD
BRANCH  11  13
HETATM   13  C6  UNL     1      -1.241  14.283  50.213  1.00  0.00     0.108 C 
HETATM   14  C7  UNL     1      -2.357  14.590  51.190  1.00  0.00     0.054 C 
HETATM   15  C8  UNL     1      -1.678  15.683  52.022  1.00  0.00     0.234 C 
HETATM   16  N3  UNL     1      -0.764  16.353  51.141  1.00  0.00    -0.073 N 
HETATM   17  C9  UNL     1      -0.760  15.674  49.882  1.00  0.00     0.257 C 
ATOM     18  H32 UNL     1      -0.970  17.347  51.047  1.00  0.00     0.277 HD
ATOM     19  H31 UNL     1       0.171  16.440  51.540  1.00  0.00     0.277 HD
ENDBRANCH  11  13
ENDBRANCH   1  11
TORSDOF 3
ENDMDL
MODEL 4
REMARK VINA RESULT: -5.735644592      1.846      5.530
REMARK  3 active torsions:
REMARK  status: ('A' for Active; 'I' for Inactive)
REMARK    1  A    between atoms: C4_7  and  C5_8 
REMARK    2  A    between atoms: C5_8  and  N2_9 
REMARK    3  A    between atoms: N2_9  and  C6_11 
ROOT
HETATM    1  C5  UNL     1      -0.918  12.605  48.993  1.00  0.00     0.118 C 
ENDROOT
BRANCH   1   2
HETATM    2  C4  UNL     1      -1.122  13.805  49.532  1.00  0.00     0.117 A 
HETATM    3  C3  UNL     1      -1.147  14.992  48.832  1.00  0.00     0.275 A 
HETATM    4  N1  UNL     1      -1.380  15.970  49.737  1.00  0.00    -0.308 N 
HETATM    5  O1  UNL     1      -0.981  15.095  47.588  1.00  0.00    -0.266 OA
HETATM    6  C2  UNL     1      -1.499  15.431  50.975  1.00  0.00     0.098 A 
ATOM      7  H1  UNL     1      -1.454  16.964  49.520  1.00  0.00     0.170 HD
HETATM    8  C1  UNL     1      -1.731  16.097  52.108  1.00  0.00     0.063 C 
HETATM    9  N4  UNL     1      -1.336  14.107  50.812  1.00  0.00    -0.338 N 
ATOM     10  H4  UNL     1      -1.372  13.423  51.568  1.00  0.00     0.167 HD
ENDBRANCH   1   2
BRANCH   1  11
HETATM   11  N2  UNL     1       0.310  12.249  48.381  1.00  0.00    -0.391 N 
ATOM     12  H2  UNL     1       1.196  12.356  48.875  1.00  0.00     0.159 HD
BRANCH  11  13
HETATM   13  C6  UNL     1       0.263  11.734  47.037  1.00  0.00     0.108 C 
HETATM   14  C7  UNL     1      -1.155  11.488  46.565  1.00  0.00     0.054 C 
HETATM   15  C8  UNL     1      -0.873  10.578  45.363  1.00  0.00     0.234 C 
HETATM   16  N3  UNL     1       0.330   9.859  45.675  1.00  0.00    -0.073 N 
HETATM   17  C9  UNL     1       0.849  10.349  46.914  1.00  0.00     0.257 C 
ATOM     18  H32 UNL     1       0.189   8.849  45.684  1.00  0.00     0.277 HD
ATOM     19  H31 UNL     1       1.015   9.899  44.921  1.00  0.00     0.277 HD
ENDBRANCH  11  13
ENDBRANCH   1  11
TORSDOF 3
ENDMDL
MODEL 5
REMARK VINA RESULT: -5.703862533      1.804      5.337
REMARK  3 active torsions:
REMARK  status: ('A' for Active; 'I' for Inactive)
REMARK    1  A    between atoms: C4_7  and  C5_8 
REMARK    2  A    between atoms: C5_8  and  N2_9 
REMARK    3  A    between atoms: N2_9  and  C6_11 
ROOT
HETATM    1  C5  UNL     1      -1.976  13.492  49.311  1.00  0.00     0.118 C 
ENDROOT
BRANCH   1   2
HETATM    2  C4  UNL     1      -1.909  14.329  50.344  1.00  0.00     0.117 A 
HETATM    3  C3  UNL     1      -1.745  15.693  50.247  1.00  0.00     0.275 A 
HETATM    4  N1  UNL     1      -1.726  16.173  51.512  1.00  0.00    -0.308 N 
HETATM    5  O1  UNL     1      -1.640  16.328  49.164  1.00  0.00    -0.266 OA
HETATM    6  C2  UNL     1      -1.871  15.151  52.392  1.00  0.00     0.098 A 
ATOM      7  H1  UNL     1      -1.619  17.155  51.766  1.00  0.00     0.170 HD
HETATM    8  C1  UNL     1      -1.899  15.252  53.722  1.00  0.00     0.063 C 
HETATM    9  N4  UNL     1      -1.980  14.040  51.644  1.00  0.00    -0.338 N 
ATOM     10  H4  UNL     1      -2.101  13.100  52.020  1.00  0.00     0.167 HD
ENDBRANCH   1   2
BRANCH   1  11
HETATM   11  N2  UNL     1      -1.268  13.721  48.105  1.00  0.00    -0.391 N 
ATOM     12  H2  UNL     1      -1.364  14.599  47.595  1.00  0.00     0.159 HD
BRANCH  11  13
HETATM   13  C6  UNL     1      -0.408  12.669  47.625  1.00  0.00     0.108 C 
HETATM   14  C7  UNL     1      -1.164  11.630  46.822  1.00  0.00     0.054 C 
HETATM   15  C8  UNL     1      -0.135  10.493  46.840  1.00  0.00     0.234 C 
HETATM   16  N3  UNL     1       0.594  10.627  48.069  1.00  0.00    -0.073 N 
HETATM   17  C9  UNL     1       0.161  11.818  48.732  1.00  0.00     0.257 C 
ATOM     18  H32 UNL     1       0.515   9.800  48.662  1.00  0.00     0.277 HD
ATOM     19  H31 UNL     1       1.604  10.603  47.929  1.00  0.00     0.277 HD
ENDBRANCH  11  13
ENDBRANCH   1  11
TORSDOF 3
ENDMDL
