MODEL 1
REMARK VINA RESULT: -6.148556214      0.000      0.000
REMARK  5 active torsions:
REMARK  status: ('A' for Active; 'I' for Inactive)
REMARK    1  A    between atoms: N1_1  and  N2_4 
REMARK    2  A    between atoms: N2_4  and  C1_5 
REMARK    3  A    between atoms: C1_5  and  C2_6 
REMARK    4  A    between atoms: C2_6  and  N3_7 
REMARK       I    between atoms: N3_7  and  C3_9 
REMARK       I    between atoms: C3_9  and  N5_13 
REMARK    5  A    between atoms: N5_13  and  C4_15 
ROOT
HETATM    1  N3  UNL     1       0.109  13.132  47.641  1.00  0.00    -0.221 N 
ATOM      2  H3  UNL     1       0.906  13.760  47.534  1.00  0.00     0.178 HD
HETATM    3  C3  UNL     1      -1.084  13.638  48.295  1.00  0.00     0.668 C 
HETATM    4  N4  UNL     1      -1.953  12.766  48.567  1.00  0.00    -0.235 N 
ATOM      5  H41 UNL     1      -2.792  13.122  49.027  1.00  0.00     0.174 HD
ATOM      6  H42 UNL     1      -1.904  11.765  48.375  1.00  0.00     0.174 HD
HETATM    7  N5  UNL     1      -1.151  15.012  48.560  1.00  0.00    -0.213 N 
ATOM      8  H5  UNL     1      -0.900  15.651  47.806  1.00  0.00     0.178 HD
ENDROOT
BRANCH   1   9
HETATM    9  C2  UNL     1       0.221  11.804  47.140  1.00  0.00     0.199 C 
BRANCH   9  10
HETATM   10  C1  UNL     1       0.989  10.879  48.031  1.00  0.00     0.201 C 
BRANCH  10  11
HETATM   11  N2  UNL     1       0.628  10.689  49.223  1.00  0.00    -0.348 NA
BRANCH  11  12
HETATM   12  N1  UNL     1       0.296  10.741  50.402  1.00  0.00    -0.281 N 
ATOM     13  H12 UNL     1       0.857  11.585  50.519  1.00  0.00     0.191 HD
ATOM     14  H11 UNL     1      -0.083  10.621  51.341  1.00  0.00     0.191 HD
ENDBRANCH  11  12
ENDBRANCH  10  11
ENDBRANCH   9  10
ENDBRANCH   1   9
BRANCH   7  15
HETATM   15  C4  UNL     1      -1.541  15.577  49.790  1.00  0.00     0.193 C 
HETATM   16  C5  UNL     1      -1.722  14.512  50.888  1.00  0.00     0.055 C 
HETATM   17  C6  UNL     1      -1.857  15.422  52.107  1.00  0.00     0.125 C 
HETATM   18  N6  UNL     1      -0.985  16.547  51.795  1.00  0.00    -0.359 N 
HETATM   19  C7  UNL     1      -0.427  16.337  50.475  1.00  0.00     0.241 C 
ATOM     20  H6  UNL     1      -0.799  17.346  52.401  1.00  0.00     0.162 HD
HETATM   21  O1  UNL     1       0.680  16.708  50.088  1.00  0.00    -0.271 OA
ENDBRANCH   7  15
TORSDOF 5
ENDMDL
MODEL 2
REMARK VINA RESULT: -6.071726860      1.759      1.962
REMARK  5 active torsions:
REMARK  status: ('A' for Active; 'I' for Inactive)
REMARK    1  A    between atoms: N1_1  and  N2_4 
REMARK    2  A    between atoms: N2_4  and  C1_5 
REMARK    3  A    between atoms: C1_5  and  C2_6 
REMARK    4  A    between atoms: C2_6  and  N3_7 
REMARK       I    between atoms: N3_7  and  C3_9 
REMARK       I    between atoms: C3_9  and  N5_13 
REMARK    5  A    between atoms: N5_13  and  C4_15 
ROOT
HETATM    1  N3  UNL     1       0.742  12.026  47.892  1.00  0.00    -0.221 N 
ATOM      2  H3  UNL     1       1.516  12.202  48.533  1.00  0.00     0.178 HD
HETATM    3  C3  UNL     1      -0.336  12.996  47.830  1.00  0.00     0.668 C 
HETATM    4  N4  UNL     1      -1.346  12.628  47.170  1.00  0.00    -0.235 N 
ATOM      5  H41 UNL     1      -2.104  13.310  47.126  1.00  0.00     0.174 HD
ATOM      6  H42 UNL     1      -1.476  11.740  46.685  1.00  0.00     0.174 HD
HETATM    7  N5  UNL     1      -0.158  14.215  48.497  1.00  0.00    -0.213 N 
ATOM      8  H5  UNL     1       0.726  14.705  48.358  1.00  0.00     0.178 HD
ENDROOT
BRANCH   1   9
HETATM    9  C2  UNL     1       0.773  10.841  47.104  1.00  0.00     0.199 C 
BRANCH   9  10
HETATM   10  C1  UNL     1       1.700   9.788  47.622  1.00  0.00     0.201 C 
BRANCH  10  11
HETATM   11  N2  UNL     1       2.826   9.602  47.087  1.00  0.00    -0.348 NA
BRANCH  11  12
HETATM   12  N1  UNL     1       3.873   9.191  46.601  1.00  0.00    -0.281 N 
ATOM     13  H12 UNL     1       3.779   8.328  47.138  1.00  0.00     0.191 HD
ATOM     14  H11 UNL     1       4.746   9.021  46.101  1.00  0.00     0.191 HD
ENDBRANCH  11  12
ENDBRANCH  10  11
ENDBRANCH   9  10
ENDBRANCH   1   9
BRANCH   7  15
HETATM   15  C4  UNL     1      -1.109  14.816  49.344  1.00  0.00     0.193 C 
HETATM   16  C5  UNL     1      -1.475  13.915  50.539  1.00  0.00     0.055 C 
HETATM   17  C6  UNL     1      -2.268  14.914  51.379  1.00  0.00     0.125 C 
HETATM   18  N6  UNL     1      -1.604  16.185  51.118  1.00  0.00    -0.359 N 
HETATM   19  C7  UNL     1      -0.543  15.956  50.160  1.00  0.00     0.241 C 
ATOM     20  H6  UNL     1      -1.846  17.083  51.539  1.00  0.00     0.162 HD
HETATM   21  O1  UNL     1       0.520  16.571  50.095  1.00  0.00    -0.271 OA
ENDBRANCH   7  15
TORSDOF 5
ENDMDL
MODEL 3
REMARK VINA RESULT: -6.045648558      2.092      5.516
REMARK  5 active torsions:
REMARK  status: ('A' for Active; 'I' for Inactive)
REMARK    1  A    between atoms: N1_1  and  N2_4 
REMARK    2  A    between atoms: N2_4  and  C1_5 
REMARK    3  A    between atoms: C1_5  and  C2_6 
REMARK    4  A    between atoms: C2_6  and  N3_7 
REMARK       I    between atoms: N3_7  and  C3_9 
REMARK       I    between atoms: C3_9  and  N5_13 
REMARK    5  A    between atoms: N5_13  and  C4_15 
ROOT
HETATM    1  N3  UNL     1      -1.963  13.586  51.166  1.00  0.00    -0.221 N 
ATOM      2  H3  UNL     1      -2.100  12.823  51.830  1.00  0.00     0.178 HD
HETATM    3  C3  UNL     1      -1.191  13.324  49.965  1.00  0.00     0.668 C 
HETATM    4  N4  UNL     1      -0.896  14.347  49.288  1.00  0.00    -0.235 N 
ATOM      5  H41 UNL     1      -0.353  14.162  48.444  1.00  0.00     0.174 HD
ATOM      6  H42 UNL     1      -1.143  15.314  49.494  1.00  0.00     0.174 HD
HETATM    7  N5  UNL     1      -0.851  11.995  49.683  1.00  0.00    -0.213 N 
ATOM      8  H5  UNL     1      -1.589  11.294  49.753  1.00  0.00     0.178 HD
ENDROOT
BRANCH   1   9
HETATM    9  C2  UNL     1      -2.539  14.853  51.464  1.00  0.00     0.199 C 
BRANCH   9  10
HETATM   10  C1  UNL     1      -1.649  15.757  52.256  1.00  0.00     0.201 C 
BRANCH  10  11
HETATM   11  N2  UNL     1      -0.898  16.588  51.677  1.00  0.00    -0.348 NA
BRANCH  11  12
HETATM   12  N1  UNL     1       0.008  17.255  51.192  1.00  0.00    -0.281 N 
ATOM     13  H12 UNL     1       0.692  16.630  51.617  1.00  0.00     0.191 HD
ATOM     14  H11 UNL     1       0.616  17.921  50.713  1.00  0.00     0.191 HD
ENDBRANCH  11  12
ENDBRANCH  10  11
ENDBRANCH   9  10
ENDBRANCH   1   9
BRANCH   7  15
HETATM   15  C4  UNL     1       0.433  11.554  49.310  1.00  0.00     0.193 C 
HETATM   16  C5  UNL     1       0.550  10.017  49.332  1.00  0.00     0.055 C 
HETATM   17  C6  UNL     1       1.901   9.854  48.640  1.00  0.00     0.125 C 
HETATM   18  N6  UNL     1       1.929  10.948  47.678  1.00  0.00    -0.359 N 
HETATM   19  C7  UNL     1       0.715  11.722  47.834  1.00  0.00     0.241 C 
ATOM     20  H6  UNL     1       2.676  11.137  47.009  1.00  0.00     0.162 HD
HETATM   21  O1  UNL     1       0.122  12.329  46.944  1.00  0.00    -0.271 OA
ENDBRANCH   7  15
TORSDOF 5
ENDMDL
MODEL 4
REMARK VINA RESULT: -6.026873362      1.361      2.022
REMARK  5 active torsions:
REMARK  status: ('A' for Active; 'I' for Inactive)
REMARK    1  A    between atoms: N1_1  and  N2_4 
REMARK    2  A    between atoms: N2_4  and  C1_5 
REMARK    3  A    between atoms: C1_5  and  C2_6 
REMARK    4  A    between atoms: C2_6  and  N3_7 
REMARK       I    between atoms: N3_7  and  C3_9 
REMARK       I    between atoms: C3_9  and  N5_13 
REMARK    5  A    between atoms: N5_13  and  C4_15 
ROOT
HETATM    1  N3  UNL     1       0.425  12.213  48.408  1.00  0.00    -0.221 N 
ATOM      2  H3  UNL     1       1.335  12.527  48.746  1.00  0.00     0.178 HD
HETATM    3  C3  UNL     1      -0.691  13.138  48.474  1.00  0.00     0.668 C 
HETATM    4  N4  UNL     1      -1.819  12.630  48.225  1.00  0.00    -0.235 N 
ATOM      5  H41 UNL     1      -2.604  13.281  48.272  1.00  0.00     0.174 HD
ATOM      6  H42 UNL     1      -2.019  11.660  47.984  1.00  0.00     0.174 HD
HETATM    7  N5  UNL     1      -0.418  14.471  48.806  1.00  0.00    -0.213 N 
ATOM      8  H5  UNL     1       0.354  14.929  48.320  1.00  0.00     0.178 HD
ENDROOT
BRANCH   1   9
HETATM    9  C2  UNL     1       0.314  10.890  47.894  1.00  0.00     0.199 C 
BRANCH   9  10
HETATM   10  C1  UNL     1       0.554  10.784  46.422  1.00  0.00     0.201 C 
BRANCH  10  11
HETATM   11  N2  UNL     1      -0.259  11.288  45.601  1.00  0.00    -0.348 NA
BRANCH  11  12
HETATM   12  N1  UNL     1      -1.023  11.571  44.685  1.00  0.00    -0.281 N 
ATOM     13  H12 UNL     1      -0.893  10.638  44.293  1.00  0.00     0.191 HD
ATOM     14  H11 UNL     1      -1.672  11.982  44.014  1.00  0.00     0.191 HD
ENDBRANCH  11  12
ENDBRANCH  10  11
ENDBRANCH   9  10
ENDBRANCH   1   9
BRANCH   7  15
HETATM   15  C4  UNL     1      -1.128  15.226  49.759  1.00  0.00     0.193 C 
HETATM   16  C5  UNL     1      -1.420  14.421  51.039  1.00  0.00     0.055 C 
HETATM   17  C6  UNL     1      -1.921  15.547  51.941  1.00  0.00     0.125 C 
HETATM   18  N6  UNL     1      -1.137  16.700  51.519  1.00  0.00    -0.359 N 
HETATM   19  C7  UNL     1      -0.285  16.294  50.421  1.00  0.00     0.241 C 
ATOM     20  H6  UNL     1      -1.181  17.634  51.926  1.00  0.00     0.162 HD
HETATM   21  O1  UNL     1       0.829  16.745  50.162  1.00  0.00    -0.271 OA
ENDBRANCH   7  15
TORSDOF 5
ENDMDL
MODEL 5
REMARK VINA RESULT: -6.024618717      2.503      5.844
REMARK  5 active torsions:
REMARK  status: ('A' for Active; 'I' for Inactive)
REMARK    1  A    between atoms: N1_1  and  N2_4 
REMARK    2  A    between atoms: N2_4  and  C1_5 
REMARK    3  A    between atoms: C1_5  and  C2_6 
REMARK    4  A    between atoms: C2_6  and  N3_7 
REMARK       I    between atoms: N3_7  and  C3_9 
REMARK       I    between atoms: C3_9  and  N5_13 
REMARK    5  A    between atoms: N5_13  and  C4_15 
ROOT
HETATM    1  N3  UNL     1      -1.724  14.249  49.109  1.00  0.00    -0.221 N 
ATOM      2  H3  UNL     1      -2.434  13.787  49.678  1.00  0.00     0.178 HD
HETATM    3  C3  UNL     1      -1.052  13.474  48.083  1.00  0.00     0.668 C 
HETATM    4  N4  UNL     1      -0.059  14.042  47.551  1.00  0.00    -0.235 N 
ATOM      5  H41 UNL     1       0.414  13.497  46.829  1.00  0.00     0.174 HD
ATOM      6  H42 UNL     1       0.307  14.970  47.763  1.00  0.00     0.174 HD
HETATM    7  N5  UNL     1      -1.554  12.199  47.792  1.00  0.00    -0.213 N 
ATOM      8  H5  UNL     1      -2.562  12.108  47.659  1.00  0.00     0.178 HD
ENDROOT
BRANCH   1   9
HETATM    9  C2  UNL     1      -1.442  15.621  49.362  1.00  0.00     0.199 C 
BRANCH   9  10
HETATM   10  C1  UNL     1      -1.128  15.927  50.792  1.00  0.00     0.201 C 
BRANCH  10  11
HETATM   11  N2  UNL     1      -0.283  16.813  51.089  1.00  0.00    -0.348 NA
BRANCH  11  12
HETATM   12  N1  UNL     1       0.641  17.615  51.171  1.00  0.00    -0.281 N 
ATOM     13  H12 UNL     1       0.766  17.364  52.153  1.00  0.00     0.191 HD
ATOM     14  H11 UNL     1       1.370  18.317  51.049  1.00  0.00     0.191 HD
ENDBRANCH  11  12
ENDBRANCH  10  11
ENDBRANCH   9  10
ENDBRANCH   1   9
BRANCH   7  15
HETATM   15  C4  UNL     1      -0.773  11.034  47.669  1.00  0.00     0.193 C 
HETATM   16  C5  UNL     1      -1.633   9.756  47.653  1.00  0.00     0.055 C 
HETATM   17  C6  UNL     1      -0.571   8.738  47.242  1.00  0.00     0.125 C 
HETATM   18  N6  UNL     1       0.300   9.493  46.349  1.00  0.00    -0.359 N 
HETATM   19  C7  UNL     1      -0.183  10.856  46.287  1.00  0.00     0.241 C 
ATOM     20  H6  UNL     1       1.111   9.124  45.853  1.00  0.00     0.162 HD
HETATM   21  O1  UNL     1      -0.102  11.611  45.320  1.00  0.00    -0.271 OA
ENDBRANCH   7  15
TORSDOF 5
ENDMDL
