MODEL 1
REMARK VINA RESULT: -5.995632589      0.000      0.000
REMARK  3 active torsions:
REMARK  status: ('A' for Active; 'I' for Inactive)
REMARK    1  A    between atoms: C3_5  and  C4_6 
REMARK    2  A    between atoms: C4_6  and  C5_7 
REMARK    3  A    between atoms: C5_7  and  C6_8 
ROOT
HETATM    1  C1  UNL     1       2.060  10.415  47.802  1.00  0.00     0.049 C 
HETATM    2  C2  UNL     1       0.987  11.144  47.552  1.00  0.00     0.093 A 
HETATM    3  N1  UNL     1       0.472  12.184  48.226  1.00  0.00    -0.339 N 
ATOM      4  H1  UNL     1       0.874  12.569  49.081  1.00  0.00     0.167 HD
HETATM    5  C3  UNL     1      -0.641  12.653  47.633  1.00  0.00     0.104 A 
HETATM    6  N3  UNL     1      -0.832  11.879  46.543  1.00  0.00    -0.308 N 
ATOM      7  H3  UNL     1      -1.597  11.976  45.875  1.00  0.00     0.170 HD
HETATM    8  C10 UNL     1       0.145  10.961  46.480  1.00  0.00     0.273 A 
HETATM    9  O1  UNL     1       0.242  10.092  45.573  1.00  0.00    -0.266 OA
ENDROOT
BRANCH   5  10
HETATM   10  C4  UNL     1      -1.378  13.669  48.056  1.00  0.00     0.024 C 
BRANCH  10  11
HETATM   11  C5  UNL     1      -0.738  14.859  48.609  1.00  0.00     0.064 C 
BRANCH  11  12
HETATM   12  C6  UNL     1      -0.897  15.035  50.084  1.00  0.00     0.189 C 
HETATM   13  C7  UNL     1      -2.054  14.275  50.670  1.00  0.00     0.035 C 
HETATM   14  C8  UNL     1      -2.152  14.914  52.061  1.00  0.00     0.029 C 
HETATM   15  C9  UNL     1      -1.427  16.245  51.901  1.00  0.00     0.233 C 
HETATM   16  N2  UNL     1      -1.194  16.395  50.468  1.00  0.00    -0.071 N 
ATOM     17  H22 UNL     1      -0.488  17.085  50.211  1.00  0.00     0.277 HD
ATOM     18  H21 UNL     1      -1.951  16.840  49.948  1.00  0.00     0.277 HD
ENDBRANCH  11  12
ENDBRANCH  10  11
ENDBRANCH   5  10
TORSDOF 3
ENDMDL
MODEL 2
REMARK VINA RESULT: -5.982018505      0.811      1.486
REMARK  3 active torsions:
REMARK  status: ('A' for Active; 'I' for Inactive)
REMARK    1  A    between atoms: C3_5  and  C4_6 
REMARK    2  A    between atoms: C4_6  and  C5_7 
REMARK    3  A    between atoms: C5_7  and  C6_8 
ROOT
HETATM    1  C1  UNL     1      -0.190  10.130  45.267  1.00  0.00     0.049 C 
HETATM    2  C2  UNL     1      -0.218  11.021  46.241  1.00  0.00     0.093 A 
HETATM    3  N1  UNL     1      -1.175  11.897  46.585  1.00  0.00    -0.339 N 
ATOM      4  H1  UNL     1      -2.067  11.992  46.099  1.00  0.00     0.167 HD
HETATM    5  C3  UNL     1      -0.810  12.635  47.649  1.00  0.00     0.104 A 
HETATM    6  N3  UNL     1       0.426  12.205  47.989  1.00  0.00    -0.308 N 
ATOM      7  H3  UNL     1       0.986  12.565  48.761  1.00  0.00     0.170 HD
HETATM    8  C10 UNL     1       0.797  11.229  47.146  1.00  0.00     0.273 A 
HETATM    9  O1  UNL     1       1.902  10.625  47.206  1.00  0.00    -0.266 OA
ENDROOT
BRANCH   5  10
HETATM   10  C4  UNL     1      -1.534  13.582  48.224  1.00  0.00     0.024 C 
BRANCH  10  11
HETATM   11  C5  UNL     1      -0.896  14.805  48.702  1.00  0.00     0.064 C 
BRANCH  11  12
HETATM   12  C6  UNL     1      -0.981  15.028  50.176  1.00  0.00     0.189 C 
HETATM   13  C7  UNL     1      -2.138  14.331  50.836  1.00  0.00     0.035 C 
HETATM   14  C8  UNL     1      -2.148  15.012  52.210  1.00  0.00     0.029 C 
HETATM   15  C9  UNL     1      -1.382  16.309  51.978  1.00  0.00     0.233 C 
HETATM   16  N2  UNL     1      -1.209  16.409  50.533  1.00  0.00    -0.071 N 
ATOM     17  H22 UNL     1      -0.489  17.064  50.225  1.00  0.00     0.277 HD
ATOM     18  H21 UNL     1      -1.971  16.869  50.033  1.00  0.00     0.277 HD
ENDBRANCH  11  12
ENDBRANCH  10  11
ENDBRANCH   5  10
TORSDOF 3
ENDMDL
MODEL 3
REMARK VINA RESULT: -5.939737419      1.211      1.371
REMARK  3 active torsions:
REMARK  status: ('A' for Active; 'I' for Inactive)
REMARK    1  A    between atoms: C3_5  and  C4_6 
REMARK    2  A    between atoms: C4_6  and  C5_7 
REMARK    3  A    between atoms: C5_7  and  C6_8 
ROOT
HETATM    1  C1  UNL     1       1.347   9.719  49.860  1.00  0.00     0.049 C 
HETATM    2  C2  UNL     1       0.829  10.701  49.144  1.00  0.00     0.093 A 
HETATM    3  N1  UNL     1      -0.249  11.465  49.377  1.00  0.00    -0.339 N 
ATOM      4  H1  UNL     1      -0.849  11.376  50.197  1.00  0.00     0.167 HD
HETATM    5  C3  UNL     1      -0.438  12.364  48.393  1.00  0.00     0.104 A 
HETATM    6  N3  UNL     1       0.561  12.157  47.507  1.00  0.00    -0.308 N 
ATOM      7  H3  UNL     1       0.702  12.678  46.643  1.00  0.00     0.170 HD
HETATM    8  C10 UNL     1       1.337  11.154  47.948  1.00  0.00     0.273 A 
HETATM    9  O1  UNL     1       2.353  10.726  47.339  1.00  0.00    -0.266 OA
ENDROOT
BRANCH   5  10
HETATM   10  C4  UNL     1      -1.414  13.256  48.332  1.00  0.00     0.024 C 
BRANCH  10  11
HETATM   11  C5  UNL     1      -1.157  14.649  48.685  1.00  0.00     0.064 C 
BRANCH  11  12
HETATM   12  C6  UNL     1      -1.129  14.937  50.150  1.00  0.00     0.189 C 
HETATM   13  C7  UNL     1      -2.230  14.271  50.926  1.00  0.00     0.035 C 
HETATM   14  C8  UNL     1      -2.136  15.011  52.266  1.00  0.00     0.029 C 
HETATM   15  C9  UNL     1      -1.391  16.295  51.920  1.00  0.00     0.233 C 
HETATM   16  N2  UNL     1      -1.330  16.332  50.463  1.00  0.00    -0.071 N 
ATOM     17  H22 UNL     1      -0.638  16.971  50.072  1.00  0.00     0.277 HD
ATOM     18  H21 UNL     1      -2.129  16.771  50.004  1.00  0.00     0.277 HD
ENDBRANCH  11  12
ENDBRANCH  10  11
ENDBRANCH   5  10
TORSDOF 3
ENDMDL
MODEL 4
REMARK VINA RESULT: -5.903119140      2.694      5.541
REMARK  3 active torsions:
REMARK  status: ('A' for Active; 'I' for Inactive)
REMARK    1  A    between atoms: C3_5  and  C4_6 
REMARK    2  A    between atoms: C4_6  and  C5_7 
REMARK    3  A    between atoms: C5_7  and  C6_8 
ROOT
HETATM    1  C1  UNL     1      -2.077  15.350  52.380  1.00  0.00     0.049 C 
HETATM    2  C2  UNL     1      -1.654  15.157  51.144  1.00  0.00     0.093 A 
HETATM    3  N1  UNL     1      -1.945  14.178  50.273  1.00  0.00    -0.339 N 
ATOM      4  H1  UNL     1      -2.575  13.402  50.472  1.00  0.00     0.167 HD
HETATM    5  C3  UNL     1      -1.300  14.350  49.105  1.00  0.00     0.104 A 
HETATM    6  N3  UNL     1      -0.576  15.482  49.246  1.00  0.00    -0.308 N 
ATOM      7  H3  UNL     1       0.029  15.891  48.534  1.00  0.00     0.170 HD
HETATM    8  C10 UNL     1      -0.780  15.983  50.475  1.00  0.00     0.273 A 
HETATM    9  O1  UNL     1      -0.243  17.037  50.908  1.00  0.00    -0.266 OA
ENDROOT
BRANCH   5  10
HETATM   10  C4  UNL     1      -1.377  13.555  48.049  1.00  0.00     0.024 C 
BRANCH  10  11
HETATM   11  C5  UNL     1      -1.690  12.139  48.219  1.00  0.00     0.064 C 
BRANCH  11  12
HETATM   12  C6  UNL     1      -0.507  11.228  48.241  1.00  0.00     0.189 C 
HETATM   13  C7  UNL     1      -0.020  10.888  49.621  1.00  0.00     0.035 C 
HETATM   14  C8  UNL     1       1.344  10.260  49.307  1.00  0.00     0.029 C 
HETATM   15  C9  UNL     1       1.671  10.781  47.913  1.00  0.00     0.233 C 
HETATM   16  N2  UNL     1       0.670  11.805  47.632  1.00  0.00    -0.071 N 
ATOM     17  H22 UNL     1       0.571  12.060  46.649  1.00  0.00     0.277 HD
ATOM     18  H21 UNL     1       0.907  12.746  47.948  1.00  0.00     0.277 HD
ENDBRANCH  11  12
ENDBRANCH  10  11
ENDBRANCH   5  10
TORSDOF 3
ENDMDL
MODEL 5
REMARK VINA RESULT: -5.824257229      2.691      5.600
REMARK  3 active torsions:
REMARK  status: ('A' for Active; 'I' for Inactive)
REMARK    1  A    between atoms: C3_5  and  C4_6 
REMARK    2  A    between atoms: C4_6  and  C5_7 
REMARK    3  A    between atoms: C5_7  and  C6_8 
ROOT
HETATM    1  C1  UNL     1      -1.832  15.617  52.421  1.00  0.00     0.049 C 
HETATM    2  C2  UNL     1      -1.825  14.791  51.390  1.00  0.00     0.093 A 
HETATM    3  N1  UNL     1      -1.898  13.452  51.355  1.00  0.00    -0.339 N 
ATOM      4  H1  UNL     1      -1.972  12.859  52.182  1.00  0.00     0.167 HD
HETATM    5  C3  UNL     1      -1.860  12.989  50.092  1.00  0.00     0.104 A 
HETATM    6  N3  UNL     1      -1.760  14.081  49.302  1.00  0.00    -0.308 N 
ATOM      7  H3  UNL     1      -1.710  14.072  48.283  1.00  0.00     0.170 HD
HETATM    8  C10 UNL     1      -1.739  15.179  50.073  1.00  0.00     0.273 A 
HETATM    9  O1  UNL     1      -1.653  16.355  49.627  1.00  0.00    -0.266 OA
ENDROOT
BRANCH   5  10
HETATM   10  C4  UNL     1      -1.911  11.717  49.728  1.00  0.00     0.024 C 
BRANCH  10  11
HETATM   11  C5  UNL     1      -1.515  11.324  48.379  1.00  0.00     0.064 C 
BRANCH  11  12
HETATM   12  C6  UNL     1      -0.176  10.670  48.278  1.00  0.00     0.189 C 
HETATM   13  C7  UNL     1       0.297  10.041  49.558  1.00  0.00     0.035 C 
HETATM   14  C8  UNL     1       1.773   9.781  49.232  1.00  0.00     0.029 C 
HETATM   15  C9  UNL     1       2.061  10.730  48.073  1.00  0.00     0.233 C 
HETATM   16  N2  UNL     1       0.891  11.596  47.976  1.00  0.00    -0.071 N 
ATOM     17  H22 UNL     1       0.795  12.100  47.094  1.00  0.00     0.277 HD
ATOM     18  H21 UNL     1       0.919  12.434  48.558  1.00  0.00     0.277 HD
ENDBRANCH  11  12
ENDBRANCH  10  11
ENDBRANCH   5  10
TORSDOF 3
ENDMDL
