MODEL 1
REMARK VINA RESULT: -5.790454398      0.000      0.000
REMARK  2 active torsions:
REMARK  status: ('A' for Active; 'I' for Inactive)
REMARK    1  A    between atoms: C3_3  and  N1_4 
REMARK    2  A    between atoms: N2_7  and  N3_8 
REMARK       I    between atoms: N3_8  and  C6_10 
REMARK       I    between atoms: C6_10  and  N5_14 
ROOT
HETATM    1  C1  UNL     1       3.878   8.850  46.747  1.00  0.00     0.014 C 
HETATM    2  C2  UNL     1       2.730   8.911  46.388  1.00  0.00    -0.098 C 
HETATM    3  C3  UNL     1       1.306   8.968  45.962  1.00  0.00     0.221 C 
ENDROOT
BRANCH   3   4
HETATM    4  N1  UNL     1       0.596   9.971  46.721  1.00  0.00    -0.321 N 
HETATM    5  C4  UNL     1       0.450   9.902  48.160  1.00  0.00     0.150 C 
HETATM    6  C5  UNL     1      -0.124  11.231  48.596  1.00  0.00     0.174 C 
HETATM    7  N2  UNL     1      -0.542  11.916  47.395  1.00  0.00    -0.227 N 
HETATM    8  C9  UNL     1      -0.067  11.164  46.271  1.00  0.00     0.340 C 
HETATM    9  O1  UNL     1      -0.193  11.473  45.059  1.00  0.00    -0.245 OA
BRANCH   7  10
HETATM   10  N3  UNL     1      -1.268  13.098  47.386  1.00  0.00    -0.126 N 
HETATM   11  C6  UNL     1      -0.853  14.339  47.895  1.00  0.00     0.698 C 
HETATM   12  N4  UNL     1       0.248  14.932  47.683  1.00  0.00    -0.233 N 
HETATM   13  N5  UNL     1      -1.781  15.025  48.759  1.00  0.00    -0.148 N 
ATOM     14  H42 UNL     1       0.905  14.447  47.072  1.00  0.00     0.174 HD
ATOM     15  H41 UNL     1       0.549  15.834  48.052  1.00  0.00     0.174 HD
HETATM   16  C7  UNL     1      -1.313  15.600  49.944  1.00  0.00     0.015 C 
ATOM     17  H5  UNL     1      -2.767  15.090  48.508  1.00  0.00     0.195 HD
HETATM   18  C8  UNL     1      -0.916  16.100  50.978  1.00  0.00     0.037 C 
ATOM     19  H3  UNL     1      -2.198  13.061  46.968  1.00  0.00     0.206 HD
ENDBRANCH   7  10
ENDBRANCH   3   4
TORSDOF 2
ENDMDL
MODEL 2
REMARK VINA RESULT: -5.701896354      2.164      6.279
REMARK  2 active torsions:
REMARK  status: ('A' for Active; 'I' for Inactive)
REMARK    1  A    between atoms: C3_3  and  N1_4 
REMARK    2  A    between atoms: N2_7  and  N3_8 
REMARK       I    between atoms: N3_8  and  C6_10 
REMARK       I    between atoms: C6_10  and  N5_14 
ROOT
HETATM    1  C1  UNL     1      -1.719  15.619  52.731  1.00  0.00     0.014 C 
HETATM    2  C2  UNL     1      -1.717  15.584  51.526  1.00  0.00    -0.098 C 
HETATM    3  C3  UNL     1      -1.689  15.552  50.039  1.00  0.00     0.221 C 
ENDROOT
BRANCH   3   4
HETATM    4  N1  UNL     1      -1.160  14.291  49.575  1.00  0.00    -0.321 N 
HETATM    5  C4  UNL     1      -1.309  13.060  50.323  1.00  0.00     0.150 C 
HETATM    6  C5  UNL     1      -0.851  11.946  49.409  1.00  0.00     0.174 C 
HETATM    7  N2  UNL     1      -0.206  12.576  48.279  1.00  0.00    -0.227 N 
HETATM    8  C9  UNL     1      -0.435  13.987  48.373  1.00  0.00     0.340 C 
HETATM    9  O1  UNL     1      -0.069  14.859  47.543  1.00  0.00    -0.245 OA
BRANCH   7  10
HETATM   10  N3  UNL     1       0.492  11.886  47.299  1.00  0.00    -0.126 N 
HETATM   11  C6  UNL     1      -0.060  11.132  46.251  1.00  0.00     0.698 C 
HETATM   12  N4  UNL     1      -0.979  11.481  45.449  1.00  0.00    -0.233 N 
HETATM   13  N5  UNL     1       0.475   9.808  46.056  1.00  0.00    -0.148 N 
ATOM     14  H42 UNL     1      -1.358  12.418  45.586  1.00  0.00     0.174 HD
ATOM     15  H41 UNL     1      -1.380  10.934  44.687  1.00  0.00     0.174 HD
HETATM   16  C7  UNL     1      -0.403   8.742  45.844  1.00  0.00     0.015 C 
ATOM     17  H5  UNL     1       1.483   9.652  46.074  1.00  0.00     0.195 HD
HETATM   18  C8  UNL     1      -1.159   7.807  45.663  1.00  0.00     0.037 C 
ATOM     19  H3  UNL     1       1.511  11.931  47.345  1.00  0.00     0.206 HD
ENDBRANCH   7  10
ENDBRANCH   3   4
TORSDOF 2
ENDMDL
MODEL 3
REMARK VINA RESULT: -5.685234739      1.450      1.510
REMARK  2 active torsions:
REMARK  status: ('A' for Active; 'I' for Inactive)
REMARK    1  A    between atoms: C3_3  and  N1_4 
REMARK    2  A    between atoms: N2_7  and  N3_8 
REMARK       I    between atoms: N3_8  and  C6_10 
REMARK       I    between atoms: C6_10  and  N5_14 
ROOT
HETATM    1  C1  UNL     1       3.412   8.104  48.468  1.00  0.00     0.014 C 
HETATM    2  C2  UNL     1       2.793   8.895  47.802  1.00  0.00    -0.098 C 
HETATM    3  C3  UNL     1       2.012   9.853  46.975  1.00  0.00     0.221 C 
ENDROOT
BRANCH   3   4
HETATM    4  N1  UNL     1       1.046  10.549  47.793  1.00  0.00    -0.321 N 
HETATM    5  C4  UNL     1       0.759  10.165  49.158  1.00  0.00     0.150 C 
HETATM    6  C5  UNL     1      -0.100  11.264  49.741  1.00  0.00     0.174 C 
HETATM    7  N2  UNL     1      -0.506  12.102  48.636  1.00  0.00    -0.227 N 
HETATM    8  C9  UNL     1       0.224  11.684  47.476  1.00  0.00     0.340 C 
HETATM    9  O1  UNL     1       0.175  12.209  46.334  1.00  0.00    -0.245 OA
BRANCH   7  10
HETATM   10  N3  UNL     1      -1.437  13.125  48.737  1.00  0.00    -0.126 N 
HETATM   11  C6  UNL     1      -1.259  14.358  49.387  1.00  0.00     0.698 C 
HETATM   12  N4  UNL     1      -0.285  15.161  49.266  1.00  0.00    -0.233 N 
HETATM   13  N5  UNL     1      -2.302  14.763  50.296  1.00  0.00    -0.148 N 
ATOM     14  H42 UNL     1       0.452  14.875  48.623  1.00  0.00     0.174 HD
ATOM     15  H41 UNL     1      -0.157  16.057  49.738  1.00  0.00     0.174 HD
HETATM   16  C7  UNL     1      -1.952  15.280  51.547  1.00  0.00     0.015 C 
ATOM     17  H5  UNL     1      -3.282  14.674  50.030  1.00  0.00     0.195 HD
HETATM   18  C8  UNL     1      -1.658  15.727  52.639  1.00  0.00     0.037 C 
ATOM     19  H3  UNL     1      -2.342  12.966  48.294  1.00  0.00     0.206 HD
ENDBRANCH   7  10
ENDBRANCH   3   4
TORSDOF 2
ENDMDL
MODEL 4
REMARK VINA RESULT: -5.680727765      1.714      6.186
REMARK  2 active torsions:
REMARK  status: ('A' for Active; 'I' for Inactive)
REMARK    1  A    between atoms: C3_3  and  N1_4 
REMARK    2  A    between atoms: N2_7  and  N3_8 
REMARK       I    between atoms: N3_8  and  C6_10 
REMARK       I    between atoms: C6_10  and  N5_14 
ROOT
HETATM    1  C1  UNL     1      -1.745  15.637  52.586  1.00  0.00     0.014 C 
HETATM    2  C2  UNL     1      -1.671  15.630  51.383  1.00  0.00    -0.098 C 
HETATM    3  C3  UNL     1      -1.554  15.619  49.900  1.00  0.00     0.221 C 
ENDROOT
BRANCH   3   4
HETATM    4  N1  UNL     1      -1.699  14.273  49.396  1.00  0.00    -0.321 N 
HETATM    5  C4  UNL     1      -2.534  13.284  50.043  1.00  0.00     0.150 C 
HETATM    6  C5  UNL     1      -2.618  12.109  49.096  1.00  0.00     0.174 C 
HETATM    7  N2  UNL     1      -1.626  12.333  48.069  1.00  0.00    -0.227 N 
HETATM    8  C9  UNL     1      -1.108  13.658  48.240  1.00  0.00     0.340 C 
HETATM    9  O1  UNL     1      -0.262  14.230  47.505  1.00  0.00    -0.245 OA
BRANCH   7  10
HETATM   10  N3  UNL     1      -1.279  11.398  47.106  1.00  0.00    -0.126 N 
HETATM   11  C6  UNL     1      -0.455  10.275  47.287  1.00  0.00     0.698 C 
HETATM   12  N4  UNL     1      -0.527   9.404  48.207  1.00  0.00    -0.233 N 
HETATM   13  N5  UNL     1       0.595  10.082  46.319  1.00  0.00    -0.148 N 
ATOM     14  H42 UNL     1      -1.270   9.540  48.892  1.00  0.00     0.174 HD
ATOM     15  H41 UNL     1       0.071   8.588  48.339  1.00  0.00     0.174 HD
HETATM   16  C7  UNL     1       1.878   9.749  46.762  1.00  0.00     0.015 C 
ATOM     17  H5  UNL     1       0.404  10.187  45.323  1.00  0.00     0.195 HD
HETATM   18  C8  UNL     1       2.999   9.464  47.137  1.00  0.00     0.037 C 
ATOM     19  H3  UNL     1      -1.661  11.540  46.170  1.00  0.00     0.206 HD
ENDBRANCH   7  10
ENDBRANCH   3   4
TORSDOF 2
ENDMDL
MODEL 5
REMARK VINA RESULT: -5.629337922      1.212      1.238
REMARK  2 active torsions:
REMARK  status: ('A' for Active; 'I' for Inactive)
REMARK    1  A    between atoms: C3_3  and  N1_4 
REMARK    2  A    between atoms: N2_7  and  N3_8 
REMARK       I    between atoms: N3_8  and  C6_10 
REMARK       I    between atoms: C6_10  and  N5_14 
ROOT
HETATM    1  C1  UNL     1       3.644   7.986  48.229  1.00  0.00     0.014 C 
HETATM    2  C2  UNL     1       2.927   8.713  47.587  1.00  0.00    -0.098 C 
HETATM    3  C3  UNL     1       2.025   9.589  46.794  1.00  0.00     0.221 C 
ENDROOT
BRANCH   3   4
HETATM    4  N1  UNL     1       1.157  10.339  47.672  1.00  0.00    -0.321 N 
HETATM    5  C4  UNL     1       0.950   9.980  49.058  1.00  0.00     0.150 C 
HETATM    6  C5  UNL     1       0.192  11.126  49.690  1.00  0.00     0.174 C 
HETATM    7  N2  UNL     1      -0.250  11.976  48.608  1.00  0.00    -0.227 N 
HETATM    8  C9  UNL     1       0.372  11.512  47.403  1.00  0.00     0.340 C 
HETATM    9  O1  UNL     1       0.267  12.031  46.261  1.00  0.00    -0.245 OA
BRANCH   7  10
HETATM   10  N3  UNL     1      -1.118  13.046  48.764  1.00  0.00    -0.126 N 
HETATM   11  C6  UNL     1      -0.800  14.408  48.637  1.00  0.00     0.698 C 
HETATM   12  N4  UNL     1      -0.168  14.969  47.691  1.00  0.00    -0.233 N 
HETATM   13  N5  UNL     1      -1.241  15.275  49.701  1.00  0.00    -0.148 N 
ATOM     14  H42 UNL     1       0.144  14.356  46.939  1.00  0.00     0.174 HD
ATOM     15  H41 UNL     1       0.062  15.958  47.599  1.00  0.00     0.174 HD
HETATM   16  C7  UNL     1      -0.356  16.226  50.217  1.00  0.00     0.015 C 
ATOM     17  H5  UNL     1      -2.187  15.195  50.073  1.00  0.00     0.195 HD
HETATM   18  C8  UNL     1       0.408  17.053  50.675  1.00  0.00     0.037 C 
ATOM     19  H3  UNL     1      -2.086  12.820  48.995  1.00  0.00     0.206 HD
ENDBRANCH   7  10
ENDBRANCH   3   4
TORSDOF 2
ENDMDL
