MODEL 1
REMARK VINA RESULT: -6.575418898      0.000      0.000
REMARK  2 active torsions:
REMARK  status: ('A' for Active; 'I' for Inactive)
REMARK    1  A    between atoms: C5_10  and  N3_11 
REMARK    2  A    between atoms: N3_11  and  C6_13 
ROOT
HETATM    1  C1  UNL     1      -2.415  15.151  52.477  1.00  0.00     0.045 C 
HETATM    2  C2  UNL     1      -1.539  15.580  51.584  1.00  0.00     0.055 A 
HETATM    3  N1  UNL     1      -0.726  16.644  51.718  1.00  0.00    -0.307 N 
ATOM      4  H1  UNL     1      -0.677  17.263  52.528  1.00  0.00     0.170 HD
HETATM    5  C3  UNL     1       0.000  16.746  50.611  1.00  0.00     0.325 A 
HETATM    6  O1  UNL     1       0.872  17.628  50.382  1.00  0.00    -0.247 OA
HETATM    7  N2  UNL     1      -0.361  15.741  49.778  1.00  0.00    -0.305 N 
ATOM      8  H2  UNL     1       0.034  15.573  48.852  1.00  0.00     0.171 HD
HETATM    9  C4  UNL     1      -1.315  15.001  50.356  1.00  0.00     0.077 A 
HETATM   10  C5  UNL     1      -1.914  13.937  49.850  1.00  0.00     0.115 C 
ENDROOT
BRANCH  10  11
HETATM   11  N3  UNL     1      -1.603  13.421  48.565  1.00  0.00    -0.391 N 
ATOM     12  H3  UNL     1      -1.314  14.062  47.826  1.00  0.00     0.159 HD
BRANCH  11  13
HETATM   13  C6  UNL     1      -1.689  11.986  48.277  1.00  0.00     0.106 C 
HETATM   14  C7  UNL     1      -1.374  11.700  46.831  1.00  0.00     0.028 C 
HETATM   15  C8  UNL     1      -0.275  10.682  46.676  1.00  0.00     0.029 C 
HETATM   16  C9  UNL     1       0.986  11.041  47.391  1.00  0.00     0.232 C 
HETATM   17  N4  UNL     1       0.665  11.836  48.566  1.00  0.00    -0.073 N 
HETATM   18  C10 UNL     1      -0.582  11.311  49.098  1.00  0.00     0.257 C 
ATOM     19  H42 UNL     1       1.417  11.860  49.255  1.00  0.00     0.277 HD
ATOM     20  H41 UNL     1       0.632  12.838  48.379  1.00  0.00     0.277 HD
ENDBRANCH  11  13
ENDBRANCH  10  11
TORSDOF 2
ENDMDL
MODEL 2
REMARK VINA RESULT: -6.297733032      1.040      1.657
REMARK  2 active torsions:
REMARK  status: ('A' for Active; 'I' for Inactive)
REMARK    1  A    between atoms: C5_10  and  N3_11 
REMARK    2  A    between atoms: N3_11  and  C6_13 
ROOT
HETATM    1  C1  UNL     1      -2.415  15.073  52.419  1.00  0.00     0.045 C 
HETATM    2  C2  UNL     1      -1.537  15.558  51.557  1.00  0.00     0.055 A 
HETATM    3  N1  UNL     1      -0.750  16.632  51.748  1.00  0.00    -0.307 N 
ATOM      4  H1  UNL     1      -0.725  17.217  52.584  1.00  0.00     0.170 HD
HETATM    5  C3  UNL     1      -0.011  16.797  50.656  1.00  0.00     0.325 A 
HETATM    6  O1  UNL     1       0.844  17.706  50.477  1.00  0.00    -0.247 OA
HETATM    7  N2  UNL     1      -0.339  15.820  49.776  1.00  0.00    -0.305 N 
ATOM      8  H2  UNL     1       0.071  15.701  48.850  1.00  0.00     0.171 HD
HETATM    9  C4  UNL     1      -1.284  15.036  50.309  1.00  0.00     0.077 A 
HETATM   10  C5  UNL     1      -1.853  13.982  49.751  1.00  0.00     0.115 C 
ENDROOT
BRANCH  10  11
HETATM   11  N3  UNL     1      -1.514  13.528  48.449  1.00  0.00    -0.391 N 
ATOM     12  H3  UNL     1      -1.995  13.923  47.641  1.00  0.00     0.159 HD
BRANCH  11  13
HETATM   13  C6  UNL     1      -0.486  12.503  48.242  1.00  0.00     0.106 C 
HETATM   14  C7  UNL     1      -0.233  11.720  49.505  1.00  0.00     0.028 C 
HETATM   15  C8  UNL     1      -0.382  10.237  49.298  1.00  0.00     0.029 C 
HETATM   16  C9  UNL     1      -1.704   9.836  48.729  1.00  0.00     0.232 C 
HETATM   17  N4  UNL     1      -2.214  10.910  47.891  1.00  0.00    -0.073 N 
HETATM   18  C10 UNL     1      -1.065  11.506  47.229  1.00  0.00     0.257 C 
ATOM     19  H42 UNL     1      -2.939  10.605  47.241  1.00  0.00     0.277 HD
ATOM     20  H41 UNL     1      -2.779  11.587  48.403  1.00  0.00     0.277 HD
ENDBRANCH  11  13
ENDBRANCH  10  11
TORSDOF 2
ENDMDL
MODEL 3
REMARK VINA RESULT: -6.170485703      2.546      3.124
REMARK  2 active torsions:
REMARK  status: ('A' for Active; 'I' for Inactive)
REMARK    1  A    between atoms: C5_10  and  N3_11 
REMARK    2  A    between atoms: N3_11  and  C6_13 
ROOT
HETATM    1  C1  UNL     1      -0.597  14.526  48.197  1.00  0.00     0.045 C 
HETATM    2  C2  UNL     1      -0.988  14.795  49.432  1.00  0.00     0.055 A 
HETATM    3  N1  UNL     1      -0.965  16.003  50.025  1.00  0.00    -0.307 N 
ATOM      4  H1  UNL     1      -0.644  16.873  49.601  1.00  0.00     0.170 HD
HETATM    5  C3  UNL     1      -1.436  15.861  51.259  1.00  0.00     0.325 A 
HETATM    6  O1  UNL     1      -1.561  16.784  52.109  1.00  0.00    -0.247 OA
HETATM    7  N2  UNL     1      -1.754  14.557  51.440  1.00  0.00    -0.305 N 
ATOM      8  H2  UNL     1      -2.138  14.158  52.297  1.00  0.00     0.171 HD
HETATM    9  C4  UNL     1      -1.486  13.871  50.322  1.00  0.00     0.077 A 
HETATM   10  C5  UNL     1      -1.664  12.578  50.118  1.00  0.00     0.115 C 
ENDROOT
BRANCH  10  11
HETATM   11  N3  UNL     1      -2.189  11.711  51.112  1.00  0.00    -0.391 N 
ATOM     12  H3  UNL     1      -1.826  11.765  52.064  1.00  0.00     0.159 HD
BRANCH  11  13
HETATM   13  C6  UNL     1      -3.242  10.740  50.800  1.00  0.00     0.106 C 
HETATM   14  C7  UNL     1      -3.533  10.707  49.322  1.00  0.00     0.028 C 
HETATM   15  C8  UNL     1      -3.423   9.320  48.747  1.00  0.00     0.029 C 
HETATM   16  C9  UNL     1      -2.106   8.664  49.002  1.00  0.00     0.232 C 
HETATM   17  N4  UNL     1      -1.555   9.158  50.254  1.00  0.00    -0.073 N 
HETATM   18  C10 UNL     1      -2.678   9.358  51.156  1.00  0.00     0.257 C 
ATOM     19  H42 UNL     1      -0.831   8.553  50.642  1.00  0.00     0.277 HD
ATOM     20  H41 UNL     1      -0.978   9.991  50.139  1.00  0.00     0.277 HD
ENDBRANCH  11  13
ENDBRANCH  10  11
TORSDOF 2
ENDMDL
MODEL 4
REMARK VINA RESULT: -5.999878025      2.419      3.026
REMARK  2 active torsions:
REMARK  status: ('A' for Active; 'I' for Inactive)
REMARK    1  A    between atoms: C5_10  and  N3_11 
REMARK    2  A    between atoms: N3_11  and  C6_13 
ROOT
HETATM    1  C1  UNL     1      -0.269  14.836  48.019  1.00  0.00     0.045 C 
HETATM    2  C2  UNL     1      -0.855  15.020  49.190  1.00  0.00     0.055 A 
HETATM    3  N1  UNL     1      -0.669  16.067  50.014  1.00  0.00    -0.307 N 
ATOM      4  H1  UNL     1      -0.050  16.860  49.845  1.00  0.00     0.170 HD
HETATM    5  C3  UNL     1      -1.434  15.886  51.085  1.00  0.00     0.325 A 
HETATM    6  O1  UNL     1      -1.518  16.669  52.070  1.00  0.00    -0.247 OA
HETATM    7  N2  UNL     1      -2.102  14.718  50.931  1.00  0.00    -0.305 N 
ATOM      8  H2  UNL     1      -2.762  14.325  51.601  1.00  0.00     0.171 HD
HETATM    9  C4  UNL     1      -1.762  14.158  49.763  1.00  0.00     0.077 A 
HETATM   10  C5  UNL     1      -2.207  13.017  49.267  1.00  0.00     0.115 C 
ENDROOT
BRANCH  10  11
HETATM   11  N3  UNL     1      -3.149  12.201  49.947  1.00  0.00    -0.391 N 
ATOM     12  H3  UNL     1      -3.641  12.576  50.758  1.00  0.00     0.159 HD
BRANCH  11  13
HETATM   13  C6  UNL     1      -3.430  10.831  49.508  1.00  0.00     0.106 C 
HETATM   14  C7  UNL     1      -2.290  10.274  48.695  1.00  0.00     0.028 C 
HETATM   15  C8  UNL     1      -1.784   8.966  49.241  1.00  0.00     0.029 C 
HETATM   16  C9  UNL     1      -1.377   9.028  50.677  1.00  0.00     0.232 C 
HETATM   17  N4  UNL     1      -2.177  10.032  51.362  1.00  0.00    -0.073 N 
HETATM   18  C10 UNL     1      -3.507   9.975  50.779  1.00  0.00     0.257 C 
ATOM     19  H42 UNL     1      -2.177   9.923  52.376  1.00  0.00     0.277 HD
ATOM     20  H41 UNL     1      -1.764  10.963  51.333  1.00  0.00     0.277 HD
ENDBRANCH  11  13
ENDBRANCH  10  11
TORSDOF 2
ENDMDL
MODEL 5
REMARK VINA RESULT: -5.994713855      2.632      5.928
REMARK  2 active torsions:
REMARK  status: ('A' for Active; 'I' for Inactive)
REMARK    1  A    between atoms: C5_10  and  N3_11 
REMARK    2  A    between atoms: N3_11  and  C6_13 
ROOT
HETATM    1  C1  UNL     1       0.542   9.440  48.528  1.00  0.00     0.045 C 
HETATM    2  C2  UNL     1       0.247  10.341  47.606  1.00  0.00     0.055 A 
HETATM    3  N1  UNL     1       0.143  10.117  46.283  1.00  0.00    -0.307 N 
ATOM      4  H1  UNL     1       0.277   9.220  45.814  1.00  0.00     0.170 HD
HETATM    5  C3  UNL     1      -0.166  11.267  45.696  1.00  0.00     0.325 A 
HETATM    6  O1  UNL     1      -0.344  11.438  44.459  1.00  0.00    -0.247 OA
HETATM    7  N2  UNL     1      -0.254  12.219  46.657  1.00  0.00    -0.305 N 
ATOM      8  H2  UNL     1      -0.478  13.200  46.494  1.00  0.00     0.171 HD
HETATM    9  C4  UNL     1      -0.002  11.672  47.853  1.00  0.00     0.077 A 
HETATM   10  C5  UNL     1       0.004  12.284  49.023  1.00  0.00     0.115 C 
ENDROOT
BRANCH  10  11
HETATM   11  N3  UNL     1      -0.270  13.670  49.164  1.00  0.00    -0.391 N 
ATOM     12  H3  UNL     1       0.469  14.347  48.976  1.00  0.00     0.159 HD
BRANCH  11  13
HETATM   13  C6  UNL     1      -1.594  14.149  49.574  1.00  0.00     0.106 C 
HETATM   14  C7  UNL     1      -1.873  13.812  51.017  1.00  0.00     0.028 C 
HETATM   15  C8  UNL     1      -2.250  15.025  51.825  1.00  0.00     0.029 C 
HETATM   16  C9  UNL     1      -1.244  16.127  51.765  1.00  0.00     0.232 C 
HETATM   17  N4  UNL     1      -0.559  16.086  50.481  1.00  0.00    -0.073 N 
HETATM   18  C10 UNL     1      -1.546  15.681  49.494  1.00  0.00     0.257 C 
ATOM     19  H42 UNL     1      -0.091  16.961  50.246  1.00  0.00     0.277 HD
ATOM     20  H41 UNL     1       0.271  15.495  50.487  1.00  0.00     0.277 HD
ENDBRANCH  11  13
ENDBRANCH  10  11
TORSDOF 2
ENDMDL
