MODEL 1
REMARK VINA RESULT: -8.461296111      0.000      0.000
REMARK  5 active torsions:
REMARK  status: ('A' for Active; 'I' for Inactive)
REMARK    1  A    between atoms: C3_8  and  N4_9 
REMARK    2  A    between atoms: N4_9  and  N5_11 
REMARK    3  A    between atoms: N5_11  and  N6_12 
REMARK    4  A    between atoms: N6_12  and  C4_13 
REMARK    5  A    between atoms: C4_13  and  C5_14 
ROOT
HETATM    1  N1  UNL     1       9.287   1.144  -3.617  1.00  0.00    -0.190 NA
HETATM    2  C1  UNL     1       8.992   1.709  -2.633  1.00  0.00     0.121 C 
HETATM    3  C2  UNL     1       8.622   2.383  -1.416  1.00  0.00     0.156 A 
HETATM    4  N2  UNL     1       8.894   2.011  -0.147  1.00  0.00    -0.287 N 
ATOM      5  H2  UNL     1       9.414   1.174   0.114  1.00  0.00     0.188 HD
HETATM    6  N3  UNL     1       8.393   2.878   0.707  1.00  0.00    -0.282 N 
ATOM      7  H3  UNL     1       8.473   2.806   1.722  1.00  0.00     0.188 HD
HETATM    8  C3  UNL     1       7.764   3.869   0.061  1.00  0.00     0.160 A 
HETATM    9  C6  UNL     1       7.898   3.574  -1.287  1.00  0.00     0.131 A 
HETATM   10  N8  UNL     1       7.403   4.323  -2.380  1.00  0.00    -0.095 NA
ENDROOT
BRANCH   8  11
HETATM   11  N4  UNL     1       7.083   5.015   0.582  1.00  0.00    -0.270 N 
ATOM     12  H4  UNL     1       7.555   5.918   0.634  1.00  0.00     0.185 HD
BRANCH  11  13
HETATM   13  N5  UNL     1       5.772   4.883   1.017  1.00  0.00    -0.029 NA
BRANCH  13  14
HETATM   14  N6  UNL     1       5.007   6.000   0.663  1.00  0.00    -0.117 NA
BRANCH  14  15
HETATM   15  C4  UNL     1       5.861   6.983  -0.005  1.00  0.00     0.231 C 
BRANCH  15  16
HETATM   16  C5  UNL     1       5.406   7.213  -1.402  1.00  0.00     0.247 C 
HETATM   17  N7  UNL     1       4.049   7.253  -1.752  1.00  0.00    -0.061 NA
HETATM   18  O1  UNL     1       6.275   7.379  -2.303  1.00  0.00    -0.275 OA
ENDBRANCH  15  16
ENDBRANCH  14  15
ENDBRANCH  13  14
ENDBRANCH  11  13
ENDBRANCH   8  11
TORSDOF 5
ENDMDL
MODEL 2
REMARK VINA RESULT: -8.130564199      1.585      1.921
REMARK  5 active torsions:
REMARK  status: ('A' for Active; 'I' for Inactive)
REMARK    1  A    between atoms: C3_8  and  N4_9 
REMARK    2  A    between atoms: N4_9  and  N5_11 
REMARK    3  A    between atoms: N5_11  and  N6_12 
REMARK    4  A    between atoms: N6_12  and  C4_13 
REMARK    5  A    between atoms: C4_13  and  C5_14 
ROOT
HETATM    1  N1  UNL     1       9.616   1.007  -3.922  1.00  0.00    -0.190 NA
HETATM    2  C1  UNL     1       8.785   1.369  -3.178  1.00  0.00     0.121 C 
HETATM    3  C2  UNL     1       7.754   1.825  -2.282  1.00  0.00     0.156 A 
HETATM    4  N2  UNL     1       6.417   1.742  -2.447  1.00  0.00    -0.287 N 
ATOM      5  H2  UNL     1       5.956   1.331  -3.259  1.00  0.00     0.188 HD
HETATM    6  N3  UNL     1       5.790   2.266  -1.415  1.00  0.00    -0.282 N 
ATOM      7  H3  UNL     1       4.775   2.316  -1.316  1.00  0.00     0.188 HD
HETATM    8  C3  UNL     1       6.667   2.724  -0.512  1.00  0.00     0.160 A 
HETATM    9  C6  UNL     1       7.918   2.453  -1.042  1.00  0.00     0.131 A 
HETATM   10  N8  UNL     1       9.174   2.746  -0.462  1.00  0.00    -0.095 NA
ENDROOT
BRANCH   8  11
HETATM   11  N4  UNL     1       6.434   3.363   0.748  1.00  0.00    -0.270 N 
ATOM     12  H4  UNL     1       6.728   2.915   1.616  1.00  0.00     0.185 HD
BRANCH  11  13
HETATM   13  N5  UNL     1       5.803   4.598   0.774  1.00  0.00    -0.029 NA
BRANCH  13  14
HETATM   14  N6  UNL     1       5.616   5.098  -0.520  1.00  0.00    -0.117 NA
BRANCH  14  15
HETATM   15  C4  UNL     1       6.116   6.472  -0.588  1.00  0.00     0.231 C 
BRANCH  15  16
HETATM   16  C5  UNL     1       4.990   7.434  -0.725  1.00  0.00     0.247 C 
HETATM   17  N7  UNL     1       4.083   7.381  -1.793  1.00  0.00    -0.061 NA
HETATM   18  O1  UNL     1       4.847   8.330   0.154  1.00  0.00    -0.275 OA
ENDBRANCH  15  16
ENDBRANCH  14  15
ENDBRANCH  13  14
ENDBRANCH  11  13
ENDBRANCH   8  11
TORSDOF 5
ENDMDL
MODEL 3
REMARK VINA RESULT: -8.004269187      2.524      6.052
REMARK  5 active torsions:
REMARK  status: ('A' for Active; 'I' for Inactive)
REMARK    1  A    between atoms: C3_8  and  N4_9 
REMARK    2  A    between atoms: N4_9  and  N5_11 
REMARK    3  A    between atoms: N5_11  and  N6_12 
REMARK    4  A    between atoms: N6_12  and  C4_13 
REMARK    5  A    between atoms: C4_13  and  C5_14 
ROOT
HETATM    1  N1  UNL     1       5.812   8.836   1.227  1.00  0.00    -0.190 NA
HETATM    2  C1  UNL     1       5.578   8.126   0.325  1.00  0.00     0.121 C 
HETATM    3  C2  UNL     1       5.272   7.246  -0.773  1.00  0.00     0.156 A 
HETATM    4  N2  UNL     1       4.097   7.111  -1.424  1.00  0.00    -0.287 N 
ATOM      5  H2  UNL     1       3.250   7.636  -1.208  1.00  0.00     0.188 HD
HETATM    6  N3  UNL     1       4.196   6.207  -2.375  1.00  0.00    -0.282 N 
ATOM      7  H3  UNL     1       3.435   5.936  -3.000  1.00  0.00     0.188 HD
HETATM    8  C3  UNL     1       5.432   5.691  -2.411  1.00  0.00     0.160 A 
HETATM    9  C6  UNL     1       6.130   6.337  -1.403  1.00  0.00     0.131 A 
HETATM   10  N8  UNL     1       7.483   6.142  -1.039  1.00  0.00    -0.095 NA
ENDROOT
BRANCH   8  11
HETATM   11  N4  UNL     1       5.982   4.691  -3.275  1.00  0.00    -0.270 N 
ATOM     12  H4  UNL     1       6.456   4.958  -4.138  1.00  0.00     0.185 HD
BRANCH  11  13
HETATM   13  N5  UNL     1       5.862   3.354  -2.924  1.00  0.00    -0.029 NA
BRANCH  13  14
HETATM   14  N6  UNL     1       7.067   2.670  -3.121  1.00  0.00    -0.117 NA
BRANCH  14  15
HETATM   15  C4  UNL     1       7.808   2.618  -1.860  1.00  0.00     0.231 C 
BRANCH  15  16
HETATM   16  C5  UNL     1       9.191   2.117  -2.083  1.00  0.00     0.247 C 
HETATM   17  N7  UNL     1       9.507   1.218  -3.112  1.00  0.00    -0.061 NA
HETATM   18  O1  UNL     1      10.112   2.518  -1.318  1.00  0.00    -0.275 OA
ENDBRANCH  15  16
ENDBRANCH  14  15
ENDBRANCH  13  14
ENDBRANCH  11  13
ENDBRANCH   8  11
TORSDOF 5
ENDMDL
MODEL 4
REMARK VINA RESULT: -8.001813020      2.345      5.659
REMARK  5 active torsions:
REMARK  status: ('A' for Active; 'I' for Inactive)
REMARK    1  A    between atoms: C3_8  and  N4_9 
REMARK    2  A    between atoms: N4_9  and  N5_11 
REMARK    3  A    between atoms: N5_11  and  N6_12 
REMARK    4  A    between atoms: N6_12  and  C4_13 
REMARK    5  A    between atoms: C4_13  and  C5_14 
ROOT
HETATM    1  N1  UNL     1       5.062   8.903   0.875  1.00  0.00    -0.190 NA
HETATM    2  C1  UNL     1       5.477   8.053   0.184  1.00  0.00     0.121 C 
HETATM    3  C2  UNL     1       6.008   7.020  -0.668  1.00  0.00     0.156 A 
HETATM    4  N2  UNL     1       7.226   6.441  -0.608  1.00  0.00    -0.287 N 
ATOM      5  H2  UNL     1       7.947   6.674   0.074  1.00  0.00     0.188 HD
HETATM    6  N3  UNL     1       7.354   5.534  -1.553  1.00  0.00    -0.282 N 
ATOM      7  H3  UNL     1       8.188   4.966  -1.703  1.00  0.00     0.188 HD
HETATM    8  C3  UNL     1       6.238   5.458  -2.291  1.00  0.00     0.160 A 
HETATM    9  C6  UNL     1       5.371   6.393  -1.745  1.00  0.00     0.131 A 
HETATM   10  N8  UNL     1       4.058   6.694  -2.174  1.00  0.00    -0.095 NA
ENDROOT
BRANCH   8  11
HETATM   11  N4  UNL     1       5.935   4.619  -3.410  1.00  0.00    -0.270 N 
ATOM     12  H4  UNL     1       5.142   4.832  -4.016  1.00  0.00     0.185 HD
BRANCH  11  13
HETATM   13  N5  UNL     1       6.734   3.513  -3.662  1.00  0.00    -0.029 NA
BRANCH  13  14
HETATM   14  N6  UNL     1       6.838   2.696  -2.531  1.00  0.00    -0.117 NA
BRANCH  14  15
HETATM   15  C4  UNL     1       8.158   2.067  -2.505  1.00  0.00     0.231 C 
BRANCH  15  16
HETATM   16  C5  UNL     1       8.953   2.560  -1.348  1.00  0.00     0.247 C 
HETATM   17  N7  UNL     1       8.357   3.156  -0.227  1.00  0.00    -0.061 NA
HETATM   18  O1  UNL     1      10.209   2.435  -1.378  1.00  0.00    -0.275 OA
ENDBRANCH  15  16
ENDBRANCH  14  15
ENDBRANCH  13  14
ENDBRANCH  11  13
ENDBRANCH   8  11
TORSDOF 5
ENDMDL
MODEL 5
REMARK VINA RESULT: -7.933810447      2.436      5.591
REMARK  5 active torsions:
REMARK  status: ('A' for Active; 'I' for Inactive)
REMARK    1  A    between atoms: C3_8  and  N4_9 
REMARK    2  A    between atoms: N4_9  and  N5_11 
REMARK    3  A    between atoms: N5_11  and  N6_12 
REMARK    4  A    between atoms: N6_12  and  C4_13 
REMARK    5  A    between atoms: C4_13  and  C5_14 
ROOT
HETATM    1  N1  UNL     1       5.823   8.952   1.164  1.00  0.00    -0.190 NA
HETATM    2  C1  UNL     1       5.588   8.206   0.291  1.00  0.00     0.121 C 
HETATM    3  C2  UNL     1       5.282   7.281  -0.769  1.00  0.00     0.156 A 
HETATM    4  N2  UNL     1       4.090   7.074  -1.369  1.00  0.00    -0.287 N 
ATOM      5  H2  UNL     1       3.229   7.566  -1.135  1.00  0.00     0.188 HD
HETATM    6  N3  UNL     1       4.195   6.148  -2.299  1.00  0.00    -0.282 N 
ATOM      7  H3  UNL     1       3.425   5.825  -2.885  1.00  0.00     0.188 HD
HETATM    8  C3  UNL     1       5.452   5.689  -2.370  1.00  0.00     0.160 A 
HETATM    9  C6  UNL     1       6.157   6.395  -1.408  1.00  0.00     0.131 A 
HETATM   10  N8  UNL     1       7.530   6.273  -1.092  1.00  0.00    -0.095 NA
ENDROOT
BRANCH   8  11
HETATM   11  N4  UNL     1       6.015   4.691  -3.227  1.00  0.00    -0.270 N 
ATOM     12  H4  UNL     1       6.677   4.951  -3.958  1.00  0.00     0.185 HD
BRANCH  11  13
HETATM   13  N5  UNL     1       5.649   3.364  -3.052  1.00  0.00    -0.029 NA
BRANCH  13  14
HETATM   14  N6  UNL     1       5.328   3.100  -1.716  1.00  0.00    -0.117 NA
BRANCH  14  15
HETATM   15  C4  UNL     1       6.443   2.400  -1.078  1.00  0.00     0.231 C 
BRANCH  15  16
HETATM   16  C5  UNL     1       6.850   3.090   0.175  1.00  0.00     0.247 C 
HETATM   17  N7  UNL     1       8.193   3.215   0.562  1.00  0.00    -0.061 NA
HETATM   18  O1  UNL     1       5.954   3.584   0.915  1.00  0.00    -0.275 OA
ENDBRANCH  15  16
ENDBRANCH  14  15
ENDBRANCH  13  14
ENDBRANCH  11  13
ENDBRANCH   8  11
TORSDOF 5
ENDMDL
