MODEL 1
REMARK VINA RESULT: -7.821598625      0.000      0.000
REMARK  5 active torsions:
REMARK  status: ('A' for Active; 'I' for Inactive)
REMARK    1  A    between atoms: C2_2  and  N1_3 
REMARK    2  A    between atoms: C2_2  and  C3_7 
REMARK    3  A    between atoms: C2_2  and  N5_20 
REMARK    4  A    between atoms: C3_7  and  N2_8 
REMARK       I    between atoms: N2_8  and  C4_11 
REMARK       I    between atoms: C4_11  and  N3_12 
REMARK       I    between atoms: C4_11  and  N4_16 
REMARK       I    between atoms: N5_20  and  C5_22 
REMARK       I    between atoms: C5_22  and  N7_26 
REMARK    5  A    between atoms: N7_26  and  N8_28 
ROOT
HETATM    1  C1  UNL     1       5.744   5.075  -2.029  1.00  0.00     0.073 C 
HETATM    2  C2  UNL     1       6.427   4.781  -0.704  1.00  0.00     0.230 C 
ENDROOT
BRANCH   2   3
HETATM    3  N1  UNL     1       7.818   5.238  -0.819  1.00  0.00    -0.051 N 
ATOM      4  H13 UNL     1       8.062   5.537  -1.763  1.00  0.00     0.277 HD
ATOM      5  H12 UNL     1       7.985   6.128  -0.352  1.00  0.00     0.277 HD
ATOM      6  H11 UNL     1       8.413   4.486  -0.471  1.00  0.00     0.277 HD
ENDBRANCH   2   3
BRANCH   2   7
HETATM    7  C3  UNL     1       5.736   5.566   0.370  1.00  0.00     0.298 C 
BRANCH   7   8
HETATM    8  N2  UNL     1       6.336   6.876   0.555  1.00  0.00    -0.018 N 
HETATM    9  C4  UNL     1       5.343   7.916   0.659  1.00  0.00     0.575 C 
HETATM   10  N3  UNL     1       4.553   7.949  -0.548  1.00  0.00    -0.026 N 
HETATM   11  N4  UNL     1       6.007   9.183   0.793  1.00  0.00    -0.026 N 
ATOM     12  H33 UNL     1       5.129   8.049  -1.383  1.00  0.00     0.278 HD
ATOM     13  H32 UNL     1       4.140   7.041  -0.763  1.00  0.00     0.278 HD
ATOM     14  H31 UNL     1       3.851   8.685  -0.473  1.00  0.00     0.278 HD
ATOM     15  H43 UNL     1       6.666   9.196   1.571  1.00  0.00     0.278 HD
ATOM     16  H42 UNL     1       6.672   9.355   0.039  1.00  0.00     0.278 HD
ATOM     17  H41 UNL     1       5.304   9.919   0.867  1.00  0.00     0.278 HD
ATOM     18  H22 UNL     1       6.967   6.885   1.356  1.00  0.00     0.281 HD
ATOM     19  H21 UNL     1       7.010   7.081  -0.182  1.00  0.00     0.281 HD
ENDBRANCH   7   8
ENDBRANCH   2   7
BRANCH   2  20
HETATM   20  N5  UNL     1       6.433   3.361  -0.452  1.00  0.00    -0.189 N 
HETATM   21  C5  UNL     1       7.560   2.546  -0.728  1.00  0.00     0.693 C 
HETATM   22  N6  UNL     1       8.141   1.989   0.287  1.00  0.00    -0.233 N 
HETATM   23  N7  UNL     1       8.021   2.354  -2.045  1.00  0.00    -0.072 N 
ATOM     24  H62 UNL     1       7.807   2.127   1.240  1.00  0.00     0.174 HD
ATOM     25  H61 UNL     1       8.952   1.402   0.088  1.00  0.00     0.174 HD
ATOM     26  H7  UNL     1       7.391   2.532  -2.827  1.00  0.00     0.212 HD
ATOM     27  H5  UNL     1       5.597   2.927  -0.060  1.00  0.00     0.180 HD
BRANCH  23  28
HETATM   28  N8  UNL     1       9.321   1.928  -2.297  1.00  0.00    -0.024 N 
HETATM   29  O1  UNL     1       9.546   1.162  -3.247  1.00  0.00    -0.516 OA
HETATM   30  O2  UNL     1      10.328   2.368  -1.482  1.00  0.00    -0.516 OA
ENDBRANCH  23  28
ENDBRANCH   2  20
TORSDOF 5
ENDMDL
MODEL 2
REMARK VINA RESULT: -7.326923310      3.414      5.720
REMARK  5 active torsions:
REMARK  status: ('A' for Active; 'I' for Inactive)
REMARK    1  A    between atoms: C2_2  and  N1_3 
REMARK    2  A    between atoms: C2_2  and  C3_7 
REMARK    3  A    between atoms: C2_2  and  N5_20 
REMARK    4  A    between atoms: C3_7  and  N2_8 
REMARK       I    between atoms: N2_8  and  C4_11 
REMARK       I    between atoms: C4_11  and  N3_12 
REMARK       I    between atoms: C4_11  and  N4_16 
REMARK       I    between atoms: N5_20  and  C5_22 
REMARK       I    between atoms: C5_22  and  N7_26 
REMARK    5  A    between atoms: N7_26  and  N8_28 
ROOT
HETATM    1  C1  UNL     1       5.497   2.404  -4.716  1.00  0.00     0.073 C 
HETATM    2  C2  UNL     1       6.176   2.921  -3.459  1.00  0.00     0.230 C 
ENDROOT
BRANCH   2   3
HETATM    3  N1  UNL     1       5.161   2.958  -2.398  1.00  0.00    -0.051 N 
ATOM      4  H13 UNL     1       4.289   3.397  -2.696  1.00  0.00     0.277 HD
ATOM      5  H12 UNL     1       4.778   2.039  -2.181  1.00  0.00     0.277 HD
ATOM      6  H11 UNL     1       5.583   3.416  -1.591  1.00  0.00     0.277 HD
ENDBRANCH   2   3
BRANCH   2   7
HETATM    7  C3  UNL     1       7.257   1.956  -3.074  1.00  0.00     0.298 C 
BRANCH   7   8
HETATM    8  N2  UNL     1       7.356   1.799  -1.634  1.00  0.00    -0.018 N 
HETATM    9  C4  UNL     1       8.457   2.548  -1.082  1.00  0.00     0.575 C 
HETATM   10  N3  UNL     1       9.692   2.090  -1.669  1.00  0.00    -0.026 N 
HETATM   11  N4  UNL     1       8.520   2.310   0.334  1.00  0.00    -0.026 N 
ATOM     12  H33 UNL     1       9.819   1.084  -1.564  1.00  0.00     0.278 HD
ATOM     13  H32 UNL     1       9.671   2.128  -2.689  1.00  0.00     0.278 HD
ATOM     14  H31 UNL     1      10.471   2.620  -1.278  1.00  0.00     0.278 HD
ATOM     15  H43 UNL     1       7.637   2.514   0.802  1.00  0.00     0.278 HD
ATOM     16  H42 UNL     1       8.575   1.316   0.558  1.00  0.00     0.278 HD
ATOM     17  H41 UNL     1       9.299   2.840   0.725  1.00  0.00     0.278 HD
ATOM     18  H22 UNL     1       6.477   2.039  -1.175  1.00  0.00     0.281 HD
ATOM     19  H21 UNL     1       7.410   0.815  -1.372  1.00  0.00     0.281 HD
ENDBRANCH   7   8
ENDBRANCH   2   7
BRANCH   2  20
HETATM   20  N5  UNL     1       6.663   4.262  -3.671  1.00  0.00    -0.189 N 
HETATM   21  C5  UNL     1       6.294   5.344  -2.834  1.00  0.00     0.693 C 
HETATM   22  N6  UNL     1       7.239   5.894  -2.139  1.00  0.00    -0.233 N 
HETATM   23  N7  UNL     1       4.963   5.797  -2.764  1.00  0.00    -0.072 N 
ATOM     24  H62 UNL     1       8.204   5.567  -2.190  1.00  0.00     0.174 HD
ATOM     25  H61 UNL     1       6.974   6.674  -1.537  1.00  0.00     0.174 HD
ATOM     26  H7  UNL     1       4.317   5.573  -3.522  1.00  0.00     0.212 HD
ATOM     27  H5  UNL     1       7.296   4.437  -4.451  1.00  0.00     0.180 HD
BRANCH  23  28
HETATM   28  N8  UNL     1       4.512   6.543  -1.679  1.00  0.00    -0.024 N 
HETATM   29  O1  UNL     1       3.778   7.525  -1.868  1.00  0.00    -0.516 OA
HETATM   30  O2  UNL     1       4.893   6.169  -0.420  1.00  0.00    -0.516 OA
ENDBRANCH  23  28
ENDBRANCH   2  20
TORSDOF 5
ENDMDL
MODEL 3
REMARK VINA RESULT: -7.123407558      3.665      5.519
REMARK  5 active torsions:
REMARK  status: ('A' for Active; 'I' for Inactive)
REMARK    1  A    between atoms: C2_2  and  N1_3 
REMARK    2  A    between atoms: C2_2  and  C3_7 
REMARK    3  A    between atoms: C2_2  and  N5_20 
REMARK    4  A    between atoms: C3_7  and  N2_8 
REMARK       I    between atoms: N2_8  and  C4_11 
REMARK       I    between atoms: C4_11  and  N3_12 
REMARK       I    between atoms: C4_11  and  N4_16 
REMARK       I    between atoms: N5_20  and  C5_22 
REMARK       I    between atoms: C5_22  and  N7_26 
REMARK    5  A    between atoms: N7_26  and  N8_28 
ROOT
HETATM    1  C1  UNL     1       6.322   2.887  -0.459  1.00  0.00     0.073 C 
HETATM    2  C2  UNL     1       7.171   2.833  -1.717  1.00  0.00     0.230 C 
ENDROOT
BRANCH   2   3
HETATM    3  N1  UNL     1       8.341   1.997  -1.419  1.00  0.00    -0.051 N 
ATOM      4  H13 UNL     1       8.515   1.898  -0.419  1.00  0.00     0.277 HD
ATOM      5  H12 UNL     1       8.189   1.010  -1.625  1.00  0.00     0.277 HD
ATOM      6  H11 UNL     1       9.133   2.393  -1.925  1.00  0.00     0.277 HD
ENDBRANCH   2   3
BRANCH   2   7
HETATM    7  C3  UNL     1       6.366   2.187  -2.805  1.00  0.00     0.298 C 
BRANCH   7   8
HETATM    8  N2  UNL     1       4.943   2.215  -2.515  1.00  0.00    -0.018 N 
HETATM    9  C4  UNL     1       4.147   2.276  -3.715  1.00  0.00     0.575 C 
HETATM   10  N3  UNL     1       4.479   3.471  -4.451  1.00  0.00    -0.026 N 
HETATM   11  N4  UNL     1       2.759   2.347  -3.351  1.00  0.00    -0.026 N 
ATOM     12  H33 UNL     1       4.385   4.313  -3.883  1.00  0.00     0.278 HD
ATOM     13  H32 UNL     1       5.479   3.538  -4.647  1.00  0.00     0.278 HD
ATOM     14  H31 UNL     1       3.916   3.514  -5.301  1.00  0.00     0.278 HD
ATOM     15  H43 UNL     1       2.479   1.582  -2.738  1.00  0.00     0.278 HD
ATOM     16  H42 UNL     1       2.563   3.120  -2.715  1.00  0.00     0.278 HD
ATOM     17  H41 UNL     1       2.196   2.390  -4.201  1.00  0.00     0.278 HD
ATOM     18  H22 UNL     1       4.670   1.426  -1.929  1.00  0.00     0.281 HD
ATOM     19  H21 UNL     1       4.710   2.976  -1.878  1.00  0.00     0.281 HD
ENDBRANCH   7   8
ENDBRANCH   2   7
BRANCH   2  20
HETATM   20  N5  UNL     1       7.632   4.155  -2.064  1.00  0.00    -0.189 N 
HETATM   21  C5  UNL     1       6.950   5.328  -1.652  1.00  0.00     0.693 C 
HETATM   22  N6  UNL     1       7.581   6.116  -0.841  1.00  0.00    -0.233 N 
HETATM   23  N7  UNL     1       5.650   5.618  -2.107  1.00  0.00    -0.072 N 
ATOM     24  H62 UNL     1       8.523   5.906  -0.511  1.00  0.00     0.174 HD
ATOM     25  H61 UNL     1       7.091   6.960  -0.544  1.00  0.00     0.174 HD
ATOM     26  H7  UNL     1       5.305   5.173  -2.958  1.00  0.00     0.212 HD
ATOM     27  H5  UNL     1       8.478   4.250  -2.626  1.00  0.00     0.180 HD
BRANCH  23  28
HETATM   28  N8  UNL     1       4.826   6.502  -1.416  1.00  0.00    -0.024 N 
HETATM   29  O1  UNL     1       4.829   6.508  -0.176  1.00  0.00    -0.516 OA
HETATM   30  O2  UNL     1       4.026   7.351  -2.131  1.00  0.00    -0.516 OA
ENDBRANCH  23  28
ENDBRANCH   2  20
TORSDOF 5
ENDMDL
MODEL 4
REMARK VINA RESULT: -7.110635552      3.663      5.583
REMARK  5 active torsions:
REMARK  status: ('A' for Active; 'I' for Inactive)
REMARK    1  A    between atoms: C2_2  and  N1_3 
REMARK    2  A    between atoms: C2_2  and  C3_7 
REMARK    3  A    between atoms: C2_2  and  N5_20 
REMARK    4  A    between atoms: C3_7  and  N2_8 
REMARK       I    between atoms: N2_8  and  C4_11 
REMARK       I    between atoms: C4_11  and  N3_12 
REMARK       I    between atoms: C4_11  and  N4_16 
REMARK       I    between atoms: N5_20  and  C5_22 
REMARK       I    between atoms: C5_22  and  N7_26 
REMARK    5  A    between atoms: N7_26  and  N8_28 
ROOT
HETATM    1  C1  UNL     1       6.748   3.052   0.409  1.00  0.00     0.073 C 
HETATM    2  C2  UNL     1       6.744   2.785  -1.087  1.00  0.00     0.230 C 
ENDROOT
BRANCH   2   3
HETATM    3  N1  UNL     1       7.660   1.664  -1.334  1.00  0.00    -0.051 N 
ATOM      4  H13 UNL     1       7.218   0.754  -1.208  1.00  0.00     0.277 HD
ATOM      5  H12 UNL     1       7.903   1.557  -2.318  1.00  0.00     0.277 HD
ATOM      6  H11 UNL     1       8.473   1.800  -0.734  1.00  0.00     0.277 HD
ENDBRANCH   2   3
BRANCH   2   7
HETATM    7  C3  UNL     1       5.356   2.388  -1.494  1.00  0.00     0.298 C 
BRANCH   7   8
HETATM    8  N2  UNL     1       5.308   1.920  -2.868  1.00  0.00    -0.018 N 
HETATM    9  C4  UNL     1       4.313   2.619  -3.643  1.00  0.00     0.575 C 
HETATM   10  N3  UNL     1       3.013   2.415  -3.052  1.00  0.00    -0.026 N 
HETATM   11  N4  UNL     1       4.290   2.073  -4.972  1.00  0.00    -0.026 N 
ATOM     12  H33 UNL     1       2.791   1.426  -2.942  1.00  0.00     0.278 HD
ATOM     13  H32 UNL     1       2.992   2.680  -2.067  1.00  0.00     0.278 HD
ATOM     14  H31 UNL     1       2.310   2.909  -3.601  1.00  0.00     0.278 HD
ATOM     15  H43 UNL     1       5.209   2.089  -5.414  1.00  0.00     0.278 HD
ATOM     16  H42 UNL     1       4.147   1.063  -4.975  1.00  0.00     0.278 HD
ATOM     17  H41 UNL     1       3.587   2.568  -5.521  1.00  0.00     0.278 HD
ATOM     18  H22 UNL     1       6.226   1.972  -3.309  1.00  0.00     0.281 HD
ATOM     19  H21 UNL     1       5.167   0.911  -2.909  1.00  0.00     0.281 HD
ENDBRANCH   7   8
ENDBRANCH   2   7
BRANCH   2  20
HETATM   20  N5  UNL     1       7.234   3.940  -1.800  1.00  0.00    -0.189 N 
HETATM   21  C5  UNL     1       6.725   5.243  -1.573  1.00  0.00     0.693 C 
HETATM   22  N6  UNL     1       7.547   6.113  -1.075  1.00  0.00    -0.233 N 
HETATM   23  N7  UNL     1       5.390   5.573  -1.876  1.00  0.00    -0.072 N 
ATOM     24  H62 UNL     1       8.514   5.874  -0.856  1.00  0.00     0.174 HD
ATOM     25  H61 UNL     1       7.181   7.051  -0.912  1.00  0.00     0.174 HD
ATOM     26  H7  UNL     1       4.868   4.995  -2.535  1.00  0.00     0.212 HD
ATOM     27  H5  UNL     1       7.972   3.814  -2.492  1.00  0.00     0.180 HD
BRANCH  23  28
HETATM   28  N8  UNL     1       4.770   6.673  -1.292  1.00  0.00    -0.024 N 
HETATM   29  O1  UNL     1       3.978   7.360  -1.955  1.00  0.00    -0.516 OA
HETATM   30  O2  UNL     1       5.053   6.972   0.012  1.00  0.00    -0.516 OA
ENDBRANCH  23  28
ENDBRANCH   2  20
TORSDOF 5
ENDMDL
MODEL 5
REMARK VINA RESULT: -7.080849111      3.450      5.627
REMARK  5 active torsions:
REMARK  status: ('A' for Active; 'I' for Inactive)
REMARK    1  A    between atoms: C2_2  and  N1_3 
REMARK    2  A    between atoms: C2_2  and  C3_7 
REMARK    3  A    between atoms: C2_2  and  N5_20 
REMARK    4  A    between atoms: C3_7  and  N2_8 
REMARK       I    between atoms: N2_8  and  C4_11 
REMARK       I    between atoms: C4_11  and  N3_12 
REMARK       I    between atoms: C4_11  and  N4_16 
REMARK       I    between atoms: N5_20  and  C5_22 
REMARK       I    between atoms: C5_22  and  N7_26 
REMARK    5  A    between atoms: N7_26  and  N8_28 
ROOT
HETATM    1  C1  UNL     1       6.351   3.305   0.525  1.00  0.00     0.073 C 
HETATM    2  C2  UNL     1       7.055   2.869  -0.749  1.00  0.00     0.230 C 
ENDROOT
BRANCH   2   3
HETATM    3  N1  UNL     1       8.206   2.049  -0.352  1.00  0.00    -0.051 N 
ATOM      4  H13 UNL     1       8.239   1.150  -0.833  1.00  0.00     0.277 HD
ATOM      5  H12 UNL     1       9.094   2.414  -0.696  1.00  0.00     0.277 HD
ATOM      6  H11 UNL     1       8.178   1.958   0.663  1.00  0.00     0.277 HD
ENDBRANCH   2   3
BRANCH   2   7
HETATM    7  C3  UNL     1       6.105   2.033  -1.553  1.00  0.00     0.298 C 
BRANCH   7   8
HETATM    8  N2  UNL     1       6.543   1.889  -2.930  1.00  0.00    -0.018 N 
HETATM    9  C4  UNL     1       5.629   2.511  -3.856  1.00  0.00     0.575 C 
HETATM   10  N3  UNL     1       4.329   1.900  -3.732  1.00  0.00    -0.026 N 
HETATM   11  N4  UNL     1       6.101   2.290  -5.195  1.00  0.00    -0.026 N 
ATOM     12  H33 UNL     1       4.366   0.887  -3.848  1.00  0.00     0.278 HD
ATOM     13  H32 UNL     1       3.982   1.923  -2.772  1.00  0.00     0.278 HD
ATOM     14  H31 UNL     1       3.683   2.340  -4.387  1.00  0.00     0.278 HD
ATOM     15  H43 UNL     1       7.061   2.606  -5.326  1.00  0.00     0.278 HD
ATOM     16  H42 UNL     1       6.246   1.301  -5.398  1.00  0.00     0.278 HD
ATOM     17  H41 UNL     1       5.454   2.731  -5.851  1.00  0.00     0.278 HD
ATOM     18  H22 UNL     1       7.493   2.240  -3.055  1.00  0.00     0.281 HD
ATOM     19  H21 UNL     1       6.701   0.911  -3.168  1.00  0.00     0.281 HD
ENDBRANCH   7   8
ENDBRANCH   2   7
BRANCH   2  20
HETATM   20  N5  UNL     1       7.542   4.021  -1.468  1.00  0.00    -0.189 N 
HETATM   21  C5  UNL     1       6.937   5.298  -1.353  1.00  0.00     0.693 C 
HETATM   22  N6  UNL     1       7.654   6.239  -0.823  1.00  0.00    -0.233 N 
HETATM   23  N7  UNL     1       5.621   5.529  -1.797  1.00  0.00    -0.072 N 
ATOM     24  H62 UNL     1       8.607   6.072  -0.502  1.00  0.00     0.174 HD
ATOM     25  H61 UNL     1       7.218   7.158  -0.741  1.00  0.00     0.174 HD
ATOM     26  H7  UNL     1       5.201   4.891  -2.473  1.00  0.00     0.212 HD
ATOM     27  H5  UNL     1       8.351   3.913  -2.080  1.00  0.00     0.180 HD
BRANCH  23  28
HETATM   28  N8  UNL     1       4.883   6.611  -1.328  1.00  0.00    -0.024 N 
HETATM   29  O1  UNL     1       4.997   6.971  -0.146  1.00  0.00    -0.516 OA
HETATM   30  O2  UNL     1       4.040   7.256  -2.191  1.00  0.00    -0.516 OA
ENDBRANCH  23  28
ENDBRANCH   2  20
TORSDOF 5
ENDMDL
