MODEL 1
REMARK VINA RESULT: -7.356378308      0.000      0.000
REMARK  10 active torsions:
REMARK  status: ('A' for Active; 'I' for Inactive)
REMARK    1  A    between atoms: C6_9  and  C7_10 
REMARK    2  A    between atoms: C7_10  and  N3_11 
REMARK    3  A    between atoms: N4_14  and  C10_15 
REMARK    4  A    between atoms: C10_15  and  C11_16 
REMARK    5  A    between atoms: C11_16  and  C12_17 
REMARK    6  A    between atoms: C15_20  and  N5_21 
REMARK    7  A    between atoms: N5_21  and  C16_24 
REMARK    8  A    between atoms: C16_24  and  C17_25 
REMARK    9  A    between atoms: C17_25  and  C18_26 
REMARK   10  A    between atoms: C18_26  and  N6_27 
ROOT
HETATM    1  C10 UNL     1      37.498 165.012  57.997  1.00  0.00     0.273 C 
ENDROOT
BRANCH   1   2
HETATM    2  N4  UNL     1      36.437 164.644  56.989  1.00  0.00     0.090 N 
HETATM    3  C9  UNL     1      36.646 163.282  56.586  1.00  0.00     0.287 C 
HETATM    4  C8  UNL     1      35.454 162.619  56.088  1.00  0.00     0.125 C 
HETATM    5  N3  UNL     1      34.532 162.476  57.266  1.00  0.00    -0.288 NA
HETATM    6  C21 UNL     1      34.188 163.769  57.585  1.00  0.00     0.125 C 
HETATM    7  C20 UNL     1      35.182 164.840  57.673  1.00  0.00     0.287 C 
BRANCH   5   8
HETATM    8  C7  UNL     1      35.086 161.511  58.051  1.00  0.00     0.075 C 
BRANCH   8   9
HETATM    9  C6  UNL     1      34.653 160.130  58.324  1.00  0.00     0.022 A 
HETATM   10  C2  UNL     1      35.640 159.105  58.277  1.00  0.00     0.035 A 
HETATM   11  C1  UNL     1      36.937 159.380  57.626  1.00  0.00     0.070 C 
HETATM   12  N1  UNL     1      35.147 158.014  58.784  1.00  0.00    -0.302 N 
HETATM   13  N2  UNL     1      33.865 158.263  59.155  1.00  0.00    -0.300 N 
ATOM     14  H1  UNL     1      35.638 157.126  58.884  1.00  0.00     0.186 HD
HETATM   15  C3  UNL     1      33.025 157.241  59.801  1.00  0.00     0.177 C 
HETATM   16  C4  UNL     1      33.566 159.535  58.883  1.00  0.00     0.037 A 
HETATM   17  C5  UNL     1      32.281 160.166  59.186  1.00  0.00     0.071 C 
ENDBRANCH   8   9
ENDBRANCH   5   8
ENDBRANCH   1   2
BRANCH   1  18
HETATM   18  C11 UNL     1      38.645 164.100  57.827  1.00  0.00     0.035 C 
BRANCH  18  19
HETATM   19  C12 UNL     1      39.216 163.691  59.175  1.00  0.00    -0.011 C 
HETATM   20  C13 UNL     1      39.119 162.210  59.327  1.00  0.00     0.007 C 
HETATM   21  C14 UNL     1      40.451 161.651  59.654  1.00  0.00     0.033 C 
HETATM   22  C15 UNL     1      41.439 162.777  59.665  1.00  0.00     0.186 C 
HETATM   23  C19 UNL     1      40.724 163.925  59.008  1.00  0.00     0.037 C 
BRANCH  22  24
HETATM   24  N5  UNL     1      42.599 162.455  58.751  1.00  0.00    -0.071 N 
ATOM     25  H52 UNL     1      43.136 163.270  58.454  1.00  0.00     0.277 HD
ATOM     26  H51 UNL     1      43.373 161.974  59.210  1.00  0.00     0.277 HD
BRANCH  24  27
HETATM   27  C16 UNL     1      41.995 161.706  57.656  1.00  0.00     0.234 C 
BRANCH  27  28
HETATM   28  C17 UNL     1      42.235 162.358  56.346  1.00  0.00     0.055 C 
BRANCH  28  29
HETATM   29  C18 UNL     1      43.209 161.409  55.605  1.00  0.00     0.231 C 
BRANCH  29  30
HETATM   30  N6  UNL     1      43.440 160.204  56.320  1.00  0.00    -0.079 N 
ATOM     31  H63 UNL     1      42.563 159.793  56.641  1.00  0.00     0.274 HD
ATOM     32  H62 UNL     1      43.750 159.460  55.695  1.00  0.00     0.274 HD
ATOM     33  H61 UNL     1      44.092 160.329  57.094  1.00  0.00     0.274 HD
ENDBRANCH  29  30
ENDBRANCH  28  29
ENDBRANCH  27  28
ENDBRANCH  24  27
ENDBRANCH  22  24
ENDBRANCH  18  19
ENDBRANCH   1  18
TORSDOF 10
ENDMDL
MODEL 2
REMARK VINA RESULT: -7.221328923      2.102      4.541
REMARK  10 active torsions:
REMARK  status: ('A' for Active; 'I' for Inactive)
REMARK    1  A    between atoms: C6_9  and  C7_10 
REMARK    2  A    between atoms: C7_10  and  N3_11 
REMARK    3  A    between atoms: N4_14  and  C10_15 
REMARK    4  A    between atoms: C10_15  and  C11_16 
REMARK    5  A    between atoms: C11_16  and  C12_17 
REMARK    6  A    between atoms: C15_20  and  N5_21 
REMARK    7  A    between atoms: N5_21  and  C16_24 
REMARK    8  A    between atoms: C16_24  and  C17_25 
REMARK    9  A    between atoms: C17_25  and  C18_26 
REMARK   10  A    between atoms: C18_26  and  N6_27 
ROOT
HETATM    1  C10 UNL     1      36.932 160.854  57.760  1.00  0.00     0.273 C 
ENDROOT
BRANCH   1   2
HETATM    2  N4  UNL     1      36.541 159.686  58.632  1.00  0.00     0.090 N 
HETATM    3  C9  UNL     1      35.289 159.992  59.265  1.00  0.00     0.287 C 
HETATM    4  C8  UNL     1      34.523 158.824  59.663  1.00  0.00     0.125 C 
HETATM    5  N3  UNL     1      34.092 158.153  58.390  1.00  0.00    -0.288 NA
HETATM    6  C21 UNL     1      35.267 157.708  57.828  1.00  0.00     0.125 C 
HETATM    7  C20 UNL     1      36.456 158.558  57.736  1.00  0.00     0.287 C 
BRANCH   5   8
HETATM    8  C7  UNL     1      33.129 158.955  57.857  1.00  0.00     0.075 C 
BRANCH   8   9
HETATM    9  C6  UNL     1      31.746 159.213  58.292  1.00  0.00     0.022 A 
HETATM   10  C2  UNL     1      31.230 160.528  58.114  1.00  0.00     0.035 A 
HETATM   11  C1  UNL     1      32.165 161.642  57.854  1.00  0.00     0.070 C 
HETATM   12  N1  UNL     1      29.945 160.512  58.308  1.00  0.00    -0.302 N 
HETATM   13  N2  UNL     1      29.581 159.242  58.623  1.00  0.00    -0.300 N 
ATOM     14  H1  UNL     1      29.319 161.314  58.237  1.00  0.00     0.186 HD
HETATM   15  C3  UNL     1      28.179 158.869  58.870  1.00  0.00     0.177 C 
HETATM   16  C4  UNL     1      30.661 158.458  58.610  1.00  0.00     0.037 A 
HETATM   17  C5  UNL     1      30.641 157.017  58.865  1.00  0.00     0.071 C 
ENDBRANCH   8   9
ENDBRANCH   5   8
ENDBRANCH   1   2
BRANCH   1  18
HETATM   18  C11 UNL     1      35.740 161.692  57.532  1.00  0.00     0.035 C 
BRANCH  18  19
HETATM   19  C12 UNL     1      36.092 162.922  56.712  1.00  0.00    -0.011 C 
HETATM   20  C13 UNL     1      35.377 164.109  57.266  1.00  0.00     0.007 C 
HETATM   21  C14 UNL     1      36.348 165.188  57.558  1.00  0.00     0.033 C 
HETATM   22  C15 UNL     1      37.721 164.679  57.238  1.00  0.00     0.186 C 
HETATM   23  C19 UNL     1      37.556 163.192  57.087  1.00  0.00     0.037 C 
BRANCH  22  24
HETATM   24  N5  UNL     1      38.630 164.860  58.433  1.00  0.00    -0.071 N 
ATOM     25  H52 UNL     1      39.255 165.663  58.365  1.00  0.00     0.277 HD
ATOM     26  H51 UNL     1      38.151 165.163  59.281  1.00  0.00     0.277 HD
BRANCH  24  27
HETATM   27  C16 UNL     1      39.314 163.578  58.558  1.00  0.00     0.234 C 
BRANCH  27  28
HETATM   28  C17 UNL     1      40.776 163.751  58.743  1.00  0.00     0.055 C 
BRANCH  28  29
HETATM   29  C18 UNL     1      41.316 164.071  57.327  1.00  0.00     0.231 C 
BRANCH  29  30
HETATM   30  N6  UNL     1      41.207 162.966  56.443  1.00  0.00    -0.079 N 
ATOM     31  H63 UNL     1      40.304 162.963  55.967  1.00  0.00     0.274 HD
ATOM     32  H62 UNL     1      41.817 163.081  55.634  1.00  0.00     0.274 HD
ATOM     33  H61 UNL     1      41.379 162.075  56.909  1.00  0.00     0.274 HD
ENDBRANCH  29  30
ENDBRANCH  28  29
ENDBRANCH  27  28
ENDBRANCH  24  27
ENDBRANCH  22  24
ENDBRANCH  18  19
ENDBRANCH   1  18
TORSDOF 10
ENDMDL
MODEL 3
REMARK VINA RESULT: -7.203990575      1.153      1.393
REMARK  10 active torsions:
REMARK  status: ('A' for Active; 'I' for Inactive)
REMARK    1  A    between atoms: C6_9  and  C7_10 
REMARK    2  A    between atoms: C7_10  and  N3_11 
REMARK    3  A    between atoms: N4_14  and  C10_15 
REMARK    4  A    between atoms: C10_15  and  C11_16 
REMARK    5  A    between atoms: C11_16  and  C12_17 
REMARK    6  A    between atoms: C15_20  and  N5_21 
REMARK    7  A    between atoms: N5_21  and  C16_24 
REMARK    8  A    between atoms: C16_24  and  C17_25 
REMARK    9  A    between atoms: C17_25  and  C18_26 
REMARK   10  A    between atoms: C18_26  and  N6_27 
ROOT
HETATM    1  C10 UNL     1      37.919 163.879  57.410  1.00  0.00     0.273 C 
ENDROOT
BRANCH   1   2
HETATM    2  N4  UNL     1      36.636 164.126  56.654  1.00  0.00     0.090 N 
HETATM    3  C9  UNL     1      36.037 162.857  56.351  1.00  0.00     0.287 C 
HETATM    4  C8  UNL     1      34.601 162.912  56.145  1.00  0.00     0.125 C 
HETATM    5  N3  UNL     1      34.000 163.249  57.481  1.00  0.00    -0.288 NA
HETATM    6  C21 UNL     1      34.434 164.530  57.733  1.00  0.00     0.125 C 
HETATM    7  C20 UNL     1      35.827 164.932  57.535  1.00  0.00     0.287 C 
BRANCH   5   8
HETATM    8  C7  UNL     1      34.135 162.126  58.239  1.00  0.00     0.075 C 
BRANCH   8   9
HETATM    9  C6  UNL     1      33.390 160.856  58.214  1.00  0.00     0.022 A 
HETATM   10  C2  UNL     1      34.130 159.651  58.392  1.00  0.00     0.035 A 
HETATM   11  C1  UNL     1      35.598 159.675  58.234  1.00  0.00     0.070 C 
HETATM   12  N1  UNL     1      33.302 158.669  58.596  1.00  0.00    -0.302 N 
HETATM   13  N2  UNL     1      32.039 159.165  58.548  1.00  0.00    -0.300 N 
ATOM     14  H1  UNL     1      33.558 157.696  58.763  1.00  0.00     0.186 HD
HETATM   15  C3  UNL     1      30.858 158.317  58.776  1.00  0.00     0.177 C 
HETATM   16  C4  UNL     1      32.089 160.479  58.322  1.00  0.00     0.037 A 
HETATM   17  C5  UNL     1      30.916 161.351  58.247  1.00  0.00     0.071 C 
ENDBRANCH   8   9
ENDBRANCH   5   8
ENDBRANCH   1   2
BRANCH   1  18
HETATM   18  C11 UNL     1      37.920 162.485  57.892  1.00  0.00     0.035 C 
BRANCH  18  19
HETATM   19  C12 UNL     1      38.609 162.380  59.242  1.00  0.00    -0.011 C 
HETATM   20  C13 UNL     1      39.261 161.043  59.364  1.00  0.00     0.007 C 
HETATM   21  C14 UNL     1      40.692 161.213  59.706  1.00  0.00     0.033 C 
HETATM   22  C15 UNL     1      40.989 162.681  59.757  1.00  0.00     0.186 C 
HETATM   23  C19 UNL     1      39.801 163.338  59.109  1.00  0.00     0.037 C 
BRANCH  22  24
HETATM   24  N5  UNL     1      42.162 163.002  58.860  1.00  0.00    -0.071 N 
ATOM     25  H52 UNL     1      42.874 163.587  59.296  1.00  0.00     0.277 HD
ATOM     26  H51 UNL     1      42.772 162.208  58.668  1.00  0.00     0.277 HD
BRANCH  24  27
HETATM   27  C16 UNL     1      41.553 163.588  57.671  1.00  0.00     0.234 C 
BRANCH  27  28
HETATM   28  C17 UNL     1      41.814 162.772  56.461  1.00  0.00     0.055 C 
BRANCH  28  29
HETATM   29  C18 UNL     1      42.922 161.778  56.887  1.00  0.00     0.231 C 
BRANCH  29  30
HETATM   30  N6  UNL     1      43.373 160.973  55.808  1.00  0.00    -0.079 N 
ATOM     31  H63 UNL     1      42.852 161.178  54.954  1.00  0.00     0.274 HD
ATOM     32  H62 UNL     1      44.304 161.255  55.503  1.00  0.00     0.274 HD
ATOM     33  H61 UNL     1      43.343 159.977  56.026  1.00  0.00     0.274 HD
ENDBRANCH  29  30
ENDBRANCH  28  29
ENDBRANCH  27  28
ENDBRANCH  24  27
ENDBRANCH  22  24
ENDBRANCH  18  19
ENDBRANCH   1  18
TORSDOF 10
ENDMDL
MODEL 4
REMARK VINA RESULT: -7.133475604      3.390      5.443
REMARK  10 active torsions:
REMARK  status: ('A' for Active; 'I' for Inactive)
REMARK    1  A    between atoms: C6_9  and  C7_10 
REMARK    2  A    between atoms: C7_10  and  N3_11 
REMARK    3  A    between atoms: N4_14  and  C10_15 
REMARK    4  A    between atoms: C10_15  and  C11_16 
REMARK    5  A    between atoms: C11_16  and  C12_17 
REMARK    6  A    between atoms: C15_20  and  N5_21 
REMARK    7  A    between atoms: N5_21  and  C16_24 
REMARK    8  A    between atoms: C16_24  and  C17_25 
REMARK    9  A    between atoms: C17_25  and  C18_26 
REMARK   10  A    between atoms: C18_26  and  N6_27 
ROOT
HETATM    1  C10 UNL     1      36.176 160.649  57.872  1.00  0.00     0.273 C 
ENDROOT
BRANCH   1   2
HETATM    2  N4  UNL     1      35.305 159.431  58.061  1.00  0.00     0.090 N 
HETATM    3  C9  UNL     1      35.879 158.343  57.320  1.00  0.00     0.287 C 
HETATM    4  C8  UNL     1      35.517 157.028  57.817  1.00  0.00     0.125 C 
HETATM    5  N3  UNL     1      36.175 156.894  59.161  1.00  0.00    -0.288 NA
HETATM    6  C21 UNL     1      35.535 157.827  59.945  1.00  0.00     0.125 C 
HETATM    7  C20 UNL     1      35.289 159.194  59.483  1.00  0.00     0.287 C 
BRANCH   5   8
HETATM    8  C7  UNL     1      37.504 156.745  58.907  1.00  0.00     0.075 C 
BRANCH   8   9
HETATM    9  C6  UNL     1      38.340 155.534  58.845  1.00  0.00     0.022 A 
HETATM   10  C2  UNL     1      39.104 155.316  57.663  1.00  0.00     0.035 A 
HETATM   11  C1  UNL     1      38.775 156.077  56.440  1.00  0.00     0.070 C 
HETATM   12  N1  UNL     1      39.959 154.361  57.878  1.00  0.00    -0.302 N 
HETATM   13  N2  UNL     1      39.788 153.920  59.151  1.00  0.00    -0.300 N 
ATOM     14  H1  UNL     1      40.639 154.004  57.207  1.00  0.00     0.186 HD
HETATM   15  C3  UNL     1      40.627 152.859  59.730  1.00  0.00     0.177 C 
HETATM   16  C4  UNL     1      38.818 154.625  59.736  1.00  0.00     0.037 A 
HETATM   17  C5  UNL     1      38.389 154.451  61.124  1.00  0.00     0.071 C 
ENDBRANCH   8   9
ENDBRANCH   5   8
ENDBRANCH   1   2
BRANCH   1  18
HETATM   18  C11 UNL     1      35.306 161.820  57.654  1.00  0.00     0.035 C 
BRANCH  18  19
HETATM   19  C12 UNL     1      36.008 162.864  56.800  1.00  0.00    -0.011 C 
HETATM   20  C13 UNL     1      35.592 164.227  57.240  1.00  0.00     0.007 C 
HETATM   21  C14 UNL     1      36.789 165.043  57.547  1.00  0.00     0.033 C 
HETATM   22  C15 UNL     1      38.001 164.183  57.353  1.00  0.00     0.186 C 
HETATM   23  C19 UNL     1      37.469 162.779  57.265  1.00  0.00     0.037 C 
BRANCH  22  24
HETATM   24  N5  UNL     1      38.856 164.208  58.599  1.00  0.00    -0.071 N 
ATOM     25  H52 UNL     1      38.568 164.901  59.290  1.00  0.00     0.277 HD
ATOM     26  H51 UNL     1      38.740 163.394  59.203  1.00  0.00     0.277 HD
BRANCH  24  27
HETATM   27  C16 UNL     1      40.213 164.391  58.099  1.00  0.00     0.234 C 
BRANCH  27  28
HETATM   28  C17 UNL     1      41.175 163.485  58.772  1.00  0.00     0.055 C 
BRANCH  28  29
HETATM   29  C18 UNL     1      41.434 162.353  57.746  1.00  0.00     0.231 C 
BRANCH  29  30
HETATM   30  N6  UNL     1      41.304 162.798  56.404  1.00  0.00    -0.079 N 
ATOM     31  H63 UNL     1      41.497 162.042  55.746  1.00  0.00     0.274 HD
ATOM     32  H62 UNL     1      40.328 162.975  56.168  1.00  0.00     0.274 HD
ATOM     33  H61 UNL     1      41.884 163.614  56.207  1.00  0.00     0.274 HD
ENDBRANCH  29  30
ENDBRANCH  28  29
ENDBRANCH  27  28
ENDBRANCH  24  27
ENDBRANCH  22  24
ENDBRANCH  18  19
ENDBRANCH   1  18
TORSDOF 10
ENDMDL
MODEL 5
REMARK VINA RESULT: -7.121310157      2.429      4.742
REMARK  10 active torsions:
REMARK  status: ('A' for Active; 'I' for Inactive)
REMARK    1  A    between atoms: C6_9  and  C7_10 
REMARK    2  A    between atoms: C7_10  and  N3_11 
REMARK    3  A    between atoms: N4_14  and  C10_15 
REMARK    4  A    between atoms: C10_15  and  C11_16 
REMARK    5  A    between atoms: C11_16  and  C12_17 
REMARK    6  A    between atoms: C15_20  and  N5_21 
REMARK    7  A    between atoms: N5_21  and  C16_24 
REMARK    8  A    between atoms: C16_24  and  C17_25 
REMARK    9  A    between atoms: C17_25  and  C18_26 
REMARK   10  A    between atoms: C18_26  and  N6_27 
ROOT
HETATM    1  C10 UNL     1      36.924 160.778  57.527  1.00  0.00     0.273 C 
ENDROOT
BRANCH   1   2
HETATM    2  N4  UNL     1      36.776 159.579  58.431  1.00  0.00     0.090 N 
HETATM    3  C9  UNL     1      35.639 159.791  59.283  1.00  0.00     0.287 C 
HETATM    4  C8  UNL     1      35.039 158.570  59.789  1.00  0.00     0.125 C 
HETATM    5  N3  UNL     1      34.435 157.878  58.600  1.00  0.00    -0.288 NA
HETATM    6  C21 UNL     1      35.517 157.522  57.829  1.00  0.00     0.125 C 
HETATM    7  C20 UNL     1      36.609 158.455  57.544  1.00  0.00     0.287 C 
BRANCH   5   8
HETATM    8  C7  UNL     1      33.339 158.614  58.264  1.00  0.00     0.075 C 
BRANCH   8   9
HETATM    9  C6  UNL     1      32.382 158.459  57.155  1.00  0.00     0.022 A 
HETATM   10  C2  UNL     1      31.971 159.637  56.467  1.00  0.00     0.035 A 
HETATM   11  C1  UNL     1      32.212 160.957  57.085  1.00  0.00     0.070 C 
HETATM   12  N1  UNL     1      31.342 159.298  55.381  1.00  0.00    -0.302 N 
HETATM   13  N2  UNL     1      31.304 157.942  55.321  1.00  0.00    -0.300 N 
ATOM     14  H1  UNL     1      30.947 159.939  54.693  1.00  0.00     0.186 HD
HETATM   15  C3  UNL     1      30.690 157.226  54.190  1.00  0.00     0.177 C 
HETATM   16  C4  UNL     1      31.931 157.435  56.384  1.00  0.00     0.037 A 
HETATM   17  C5  UNL     1      32.119 156.005  56.631  1.00  0.00     0.071 C 
ENDBRANCH   8   9
ENDBRANCH   5   8
ENDBRANCH   1   2
BRANCH   1  18
HETATM   18  C11 UNL     1      35.665 161.547  57.556  1.00  0.00     0.035 C 
BRANCH  18  19
HETATM   19  C12 UNL     1      35.788 162.817  56.729  1.00  0.00    -0.011 C 
HETATM   20  C13 UNL     1      34.936 163.885  57.328  1.00  0.00     0.007 C 
HETATM   21  C14 UNL     1      35.751 165.095  57.579  1.00  0.00     0.033 C 
HETATM   22  C15 UNL     1      37.165 164.795  57.185  1.00  0.00     0.186 C 
HETATM   23  C19 UNL     1      37.214 163.300  57.030  1.00  0.00     0.037 C 
BRANCH  22  24
HETATM   24  N5  UNL     1      38.099 165.108  58.333  1.00  0.00    -0.071 N 
ATOM     25  H52 UNL     1      38.547 166.022  58.270  1.00  0.00     0.277 HD
ATOM     26  H51 UNL     1      37.627 165.275  59.222  1.00  0.00     0.277 HD
BRANCH  24  27
HETATM   27  C16 UNL     1      39.030 163.986  58.352  1.00  0.00     0.234 C 
BRANCH  27  28
HETATM   28  C17 UNL     1      40.422 164.422  58.081  1.00  0.00     0.055 C 
BRANCH  28  29
HETATM   29  C18 UNL     1      41.191 163.114  57.771  1.00  0.00     0.231 C 
BRANCH  29  30
HETATM   30  N6  UNL     1      41.286 162.858  56.377  1.00  0.00    -0.079 N 
ATOM     31  H63 UNL     1      41.585 161.899  56.199  1.00  0.00     0.274 HD
ATOM     32  H62 UNL     1      40.362 162.824  55.947  1.00  0.00     0.274 HD
ATOM     33  H61 UNL     1      41.889 163.527  55.899  1.00  0.00     0.274 HD
ENDBRANCH  29  30
ENDBRANCH  28  29
ENDBRANCH  27  28
ENDBRANCH  24  27
ENDBRANCH  22  24
ENDBRANCH  18  19
ENDBRANCH   1  18
TORSDOF 10
ENDMDL
