MODEL 1
REMARK VINA RESULT: -7.879878979      0.000      0.000
REMARK  9 active torsions:
REMARK  status: ('A' for Active; 'I' for Inactive)
REMARK    1  A    between atoms: C2_2  and  C5_5 
REMARK    2  A    between atoms: C5_5  and  C6_6 
REMARK    3  A    between atoms: C7_7  and  C8_8 
REMARK    4  A    between atoms: C8_8  and  N1_9 
REMARK       I    between atoms: N1_9  and  C9_11 
REMARK    5  A    between atoms: C9_11  and  C10_13 
REMARK    6  A    between atoms: C10_13  and  C11_14 
REMARK    7  A    between atoms: C11_14  and  C12_15 
REMARK    8  A    between atoms: C12_15  and  C14_18 
REMARK       I    between atoms: C14_18  and  N3_20 
REMARK    9  A    between atoms: N3_20  and  C15_22 
ROOT
HETATM    1  C12 UNL     1      40.636 163.169  58.333  1.00  0.00     0.185 C 
HETATM    2  C13 UNL     1      41.184 162.626  57.141  1.00  0.00     0.073 C 
HETATM    3  N2  UNL     1      41.646 162.141  56.192  1.00  0.00    -0.196 NA
ENDROOT
BRANCH   1   4
HETATM    4  C11 UNL     1      39.874 164.424  58.262  1.00  0.00     0.038 C 
BRANCH   4   5
HETATM    5  C10 UNL     1      38.849 164.642  57.240  1.00  0.00     0.104 C 
BRANCH   5   6
HETATM    6  C9  UNL     1      37.442 164.797  57.631  1.00  0.00     0.217 C 
HETATM    7  N1  UNL     1      36.434 164.036  57.014  1.00  0.00    -0.358 N 
ATOM      8  H1  UNL     1      36.760 163.391  56.294  1.00  0.00     0.162 HD
HETATM    9  O1  UNL     1      37.150 165.598  58.506  1.00  0.00    -0.274 OA
BRANCH   7  10
HETATM   10  C8  UNL     1      35.027 164.026  57.240  1.00  0.00     0.149 C 
BRANCH  10  11
HETATM   11  C7  UNL     1      34.356 162.955  56.486  1.00  0.00    -0.011 C 
HETATM   12  C6  UNL     1      33.367 162.177  56.825  1.00  0.00    -0.028 C 
BRANCH  12  13
HETATM   13  C5  UNL     1      32.678 162.212  58.123  1.00  0.00     0.035 C 
BRANCH  13  14
HETATM   14  C2  UNL     1      31.707 161.121  58.370  1.00  0.00    -0.048 C 
HETATM   15  C1  UNL     1      32.095 160.331  59.628  1.00  0.00     0.014 C 
HETATM   16  C3  UNL     1      31.530 160.131  57.284  1.00  0.00     0.014 C 
HETATM   17  C4  UNL     1      30.348 161.813  58.640  1.00  0.00     0.014 C 
ENDBRANCH  13  14
ENDBRANCH  12  13
ENDBRANCH  10  11
ENDBRANCH   7  10
ENDBRANCH   5   6
ENDBRANCH   4   5
ENDBRANCH   1   4
BRANCH   1  18
HETATM   18  C14 UNL     1      39.750 162.146  59.023  1.00  0.00     0.235 C 
HETATM   19  O2  UNL     1      39.653 162.125  60.262  1.00  0.00    -0.272 OA
HETATM   20  N3  UNL     1      39.046 161.230  58.232  1.00  0.00    -0.354 N 
ATOM     21  H3  UNL     1      39.157 161.285  57.219  1.00  0.00     0.162 HD
BRANCH  20  22
HETATM   22  C15 UNL     1      38.169 160.205  58.766  1.00  0.00     0.099 C 
HETATM   23  C16 UNL     1      38.260 159.013  57.856  1.00  0.00     0.041 C 
HETATM   24  C17 UNL     1      37.208 158.027  58.298  1.00  0.00     0.142 C 
HETATM   25  S1  UNL     1      35.862 159.131  58.750  1.00  0.00     0.146 S 
HETATM   26  O3  UNL     1      35.428 158.774  60.121  1.00  0.00    -0.228 OA
HETATM   27  O4  UNL     1      34.775 159.092  57.736  1.00  0.00    -0.228 OA
HETATM   28  C18 UNL     1      36.736 160.693  58.717  1.00  0.00     0.165 C 
ENDBRANCH  20  22
ENDBRANCH   1  18
TORSDOF 9
ENDMDL
MODEL 2
REMARK VINA RESULT: -7.793747514      1.635      2.010
REMARK  9 active torsions:
REMARK  status: ('A' for Active; 'I' for Inactive)
REMARK    1  A    between atoms: C2_2  and  C5_5 
REMARK    2  A    between atoms: C5_5  and  C6_6 
REMARK    3  A    between atoms: C7_7  and  C8_8 
REMARK    4  A    between atoms: C8_8  and  N1_9 
REMARK       I    between atoms: N1_9  and  C9_11 
REMARK    5  A    between atoms: C9_11  and  C10_13 
REMARK    6  A    between atoms: C10_13  and  C11_14 
REMARK    7  A    between atoms: C11_14  and  C12_15 
REMARK    8  A    between atoms: C12_15  and  C14_18 
REMARK       I    between atoms: C14_18  and  N3_20 
REMARK    9  A    between atoms: N3_20  and  C15_22 
ROOT
HETATM    1  C12 UNL     1      40.010 163.482  58.616  1.00  0.00     0.185 C 
HETATM    2  C13 UNL     1      40.915 164.155  57.754  1.00  0.00     0.073 C 
HETATM    3  N2  UNL     1      41.688 164.669  57.055  1.00  0.00    -0.196 NA
ENDROOT
BRANCH   1   4
HETATM    4  C11 UNL     1      38.641 163.999  58.761  1.00  0.00     0.038 C 
BRANCH   4   5
HETATM    5  C10 UNL     1      38.051 164.894  57.765  1.00  0.00     0.104 C 
BRANCH   5   6
HETATM    6  C9  UNL     1      36.706 164.627  57.242  1.00  0.00     0.217 C 
HETATM    7  N1  UNL     1      36.331 163.331  56.843  1.00  0.00    -0.358 N 
ATOM      8  H1  UNL     1      37.056 162.622  56.946  1.00  0.00     0.162 HD
HETATM    9  O1  UNL     1      35.905 165.545  57.155  1.00  0.00    -0.274 OA
BRANCH   7  10
HETATM   10  C8  UNL     1      35.094 162.858  56.318  1.00  0.00     0.149 C 
BRANCH  10  11
HETATM   11  C7  UNL     1      33.971 163.124  57.232  1.00  0.00    -0.011 C 
HETATM   12  C6  UNL     1      33.170 162.300  57.848  1.00  0.00    -0.028 C 
BRANCH  12  13
HETATM   13  C5  UNL     1      33.230 160.835  57.742  1.00  0.00     0.035 C 
BRANCH  13  14
HETATM   14  C2  UNL     1      32.854 160.082  58.960  1.00  0.00    -0.048 C 
HETATM   15  C1  UNL     1      31.936 160.928  59.852  1.00  0.00     0.014 C 
HETATM   16  C3  UNL     1      33.964 159.611  59.819  1.00  0.00     0.014 C 
HETATM   17  C4  UNL     1      32.047 158.854  58.470  1.00  0.00     0.014 C 
ENDBRANCH  13  14
ENDBRANCH  12  13
ENDBRANCH  10  11
ENDBRANCH   7  10
ENDBRANCH   5   6
ENDBRANCH   4   5
ENDBRANCH   1   4
BRANCH   1  18
HETATM   18  C14 UNL     1      39.896 162.018  58.226  1.00  0.00     0.235 C 
HETATM   19  O2  UNL     1      40.884 161.399  57.796  1.00  0.00    -0.272 OA
HETATM   20  N3  UNL     1      38.654 161.385  58.362  1.00  0.00    -0.354 N 
ATOM     21  H3  UNL     1      37.872 161.934  58.719  1.00  0.00     0.162 HD
BRANCH  20  22
HETATM   22  C15 UNL     1      38.413 159.995  58.024  1.00  0.00     0.099 C 
HETATM   23  C16 UNL     1      36.985 159.880  57.574  1.00  0.00     0.041 C 
HETATM   24  C17 UNL     1      36.680 158.412  57.411  1.00  0.00     0.142 C 
HETATM   25  S1  UNL     1      37.596 157.709  58.790  1.00  0.00     0.146 S 
HETATM   26  O3  UNL     1      38.454 156.627  58.256  1.00  0.00    -0.228 OA
HETATM   27  O4  UNL     1      36.677 157.280  59.879  1.00  0.00    -0.228 OA
HETATM   28  C18 UNL     1      38.556 159.143  59.269  1.00  0.00     0.165 C 
ENDBRANCH  20  22
ENDBRANCH   1  18
TORSDOF 9
ENDMDL
MODEL 3
REMARK VINA RESULT: -7.668345572      1.216      1.499
REMARK  9 active torsions:
REMARK  status: ('A' for Active; 'I' for Inactive)
REMARK    1  A    between atoms: C2_2  and  C5_5 
REMARK    2  A    between atoms: C5_5  and  C6_6 
REMARK    3  A    between atoms: C7_7  and  C8_8 
REMARK    4  A    between atoms: C8_8  and  N1_9 
REMARK       I    between atoms: N1_9  and  C9_11 
REMARK    5  A    between atoms: C9_11  and  C10_13 
REMARK    6  A    between atoms: C10_13  and  C11_14 
REMARK    7  A    between atoms: C11_14  and  C12_15 
REMARK    8  A    between atoms: C12_15  and  C14_18 
REMARK       I    between atoms: C14_18  and  N3_20 
REMARK    9  A    between atoms: N3_20  and  C15_22 
ROOT
HETATM    1  C12 UNL     1      40.094 162.620  58.649  1.00  0.00     0.185 C 
HETATM    2  C13 UNL     1      40.877 162.512  57.469  1.00  0.00     0.073 C 
HETATM    3  N2  UNL     1      41.540 162.385  56.523  1.00  0.00    -0.196 NA
ENDROOT
BRANCH   1   4
HETATM    4  C11 UNL     1      39.010 163.611  58.700  1.00  0.00     0.038 C 
BRANCH   4   5
HETATM    5  C10 UNL     1      38.386 164.127  57.480  1.00  0.00     0.104 C 
BRANCH   5   6
HETATM    6  C9  UNL     1      37.126 163.547  56.998  1.00  0.00     0.217 C 
HETATM    7  N1  UNL     1      35.887 164.092  57.380  1.00  0.00    -0.358 N 
ATOM      8  H1  UNL     1      35.945 164.898  58.003  1.00  0.00     0.162 HD
HETATM    9  O1  UNL     1      37.160 162.579  56.254  1.00  0.00    -0.274 OA
BRANCH   7  10
HETATM   10  C8  UNL     1      34.565 163.693  57.031  1.00  0.00     0.149 C 
BRANCH  10  11
HETATM   11  C7  UNL     1      34.390 162.235  57.118  1.00  0.00    -0.011 C 
HETATM   12  C6  UNL     1      33.354 161.529  57.474  1.00  0.00    -0.028 C 
BRANCH  12  13
HETATM   13  C5  UNL     1      32.061 162.089  57.895  1.00  0.00     0.035 C 
BRANCH  13  14
HETATM   14  C2  UNL     1      31.278 161.267  58.846  1.00  0.00    -0.048 C 
HETATM   15  C1  UNL     1      30.465 160.204  58.095  1.00  0.00     0.014 C 
HETATM   16  C3  UNL     1      30.327 161.989  59.721  1.00  0.00     0.014 C 
HETATM   17  C4  UNL     1      32.316 160.537  59.733  1.00  0.00     0.014 C 
ENDBRANCH  13  14
ENDBRANCH  12  13
ENDBRANCH  10  11
ENDBRANCH   7  10
ENDBRANCH   5   6
ENDBRANCH   4   5
ENDBRANCH   1   4
BRANCH   1  18
HETATM   18  C14 UNL     1      39.487 161.274  59.006  1.00  0.00     0.235 C 
HETATM   19  O2  UNL     1      39.810 160.693  60.056  1.00  0.00    -0.272 OA
HETATM   20  N3  UNL     1      38.558 160.705  58.126  1.00  0.00    -0.354 N 
ATOM     21  H3  UNL     1      38.325 161.219  57.277  1.00  0.00     0.162 HD
BRANCH  20  22
HETATM   22  C15 UNL     1      37.909 159.428  58.351  1.00  0.00     0.099 C 
HETATM   23  C16 UNL     1      37.813 158.730  57.024  1.00  0.00     0.041 C 
HETATM   24  C17 UNL     1      36.968 157.497  57.222  1.00  0.00     0.142 C 
HETATM   25  S1  UNL     1      35.737 158.099  58.387  1.00  0.00     0.146 S 
HETATM   26  O3  UNL     1      35.703 157.161  59.532  1.00  0.00    -0.228 OA
HETATM   27  O4  UNL     1      34.423 158.299  57.721  1.00  0.00    -0.228 OA
HETATM   28  C18 UNL     1      36.492 159.662  58.833  1.00  0.00     0.165 C 
ENDBRANCH  20  22
ENDBRANCH   1  18
TORSDOF 9
ENDMDL
MODEL 4
REMARK VINA RESULT: -7.599644714      0.717      1.103
REMARK  9 active torsions:
REMARK  status: ('A' for Active; 'I' for Inactive)
REMARK    1  A    between atoms: C2_2  and  C5_5 
REMARK    2  A    between atoms: C5_5  and  C6_6 
REMARK    3  A    between atoms: C7_7  and  C8_8 
REMARK    4  A    between atoms: C8_8  and  N1_9 
REMARK       I    between atoms: N1_9  and  C9_11 
REMARK    5  A    between atoms: C9_11  and  C10_13 
REMARK    6  A    between atoms: C10_13  and  C11_14 
REMARK    7  A    between atoms: C11_14  and  C12_15 
REMARK    8  A    between atoms: C12_15  and  C14_18 
REMARK       I    between atoms: C14_18  and  N3_20 
REMARK    9  A    between atoms: N3_20  and  C15_22 
ROOT
HETATM    1  C12 UNL     1      40.491 162.530  58.446  1.00  0.00     0.185 C 
HETATM    2  C13 UNL     1      41.701 161.896  58.057  1.00  0.00     0.073 C 
HETATM    3  N2  UNL     1      42.694 161.359  57.785  1.00  0.00    -0.196 NA
ENDROOT
BRANCH   1   4
HETATM    4  C11 UNL     1      39.681 163.210  57.426  1.00  0.00     0.038 C 
BRANCH   4   5
HETATM    5  C10 UNL     1      39.193 164.576  57.621  1.00  0.00     0.104 C 
BRANCH   5   6
HETATM    6  C9  UNL     1      37.752 164.830  57.753  1.00  0.00     0.217 C 
HETATM    7  N1  UNL     1      36.809 163.914  57.252  1.00  0.00    -0.358 N 
ATOM      8  H1  UNL     1      37.206 163.089  56.804  1.00  0.00     0.162 HD
HETATM    9  O1  UNL     1      37.374 165.851  58.306  1.00  0.00    -0.274 OA
BRANCH   7  10
HETATM   10  C8  UNL     1      35.386 163.963  57.275  1.00  0.00     0.149 C 
BRANCH  10  11
HETATM   11  C7  UNL     1      34.785 162.789  56.620  1.00  0.00    -0.011 C 
HETATM   12  C6  UNL     1      33.718 162.106  56.926  1.00  0.00    -0.028 C 
BRANCH  12  13
HETATM   13  C5  UNL     1      32.840 162.389  58.071  1.00  0.00     0.035 C 
BRANCH  13  14
HETATM   14  C2  UNL     1      31.801 161.373  58.356  1.00  0.00    -0.048 C 
HETATM   15  C1  UNL     1      31.716 160.355  57.210  1.00  0.00     0.014 C 
HETATM   16  C3  UNL     1      30.426 161.875  58.581  1.00  0.00     0.014 C 
HETATM   17  C4  UNL     1      32.272 160.625  59.627  1.00  0.00     0.014 C 
ENDBRANCH  13  14
ENDBRANCH  12  13
ENDBRANCH  10  11
ENDBRANCH   7  10
ENDBRANCH   5   6
ENDBRANCH   4   5
ENDBRANCH   1   4
BRANCH   1  18
HETATM   18  C14 UNL     1      39.580 161.543  59.157  1.00  0.00     0.235 C 
HETATM   19  O2  UNL     1      39.576 161.467  60.397  1.00  0.00    -0.272 OA
HETATM   20  N3  UNL     1      38.749 160.725  58.383  1.00  0.00    -0.354 N 
ATOM     21  H3  UNL     1      38.788 160.823  57.368  1.00  0.00     0.162 HD
BRANCH  20  22
HETATM   22  C15 UNL     1      37.836 159.744  58.938  1.00  0.00     0.099 C 
HETATM   23  C16 UNL     1      37.949 158.499  58.105  1.00  0.00     0.041 C 
HETATM   24  C17 UNL     1      36.865 157.553  58.558  1.00  0.00     0.142 C 
HETATM   25  S1  UNL     1      35.516 158.697  58.885  1.00  0.00     0.146 S 
HETATM   26  O3  UNL     1      35.019 158.427  60.254  1.00  0.00    -0.228 OA
HETATM   27  O4  UNL     1      34.474 158.610  57.828  1.00  0.00    -0.228 OA
HETATM   28  C18 UNL     1      36.413 160.244  58.798  1.00  0.00     0.165 C 
ENDBRANCH  20  22
ENDBRANCH   1  18
TORSDOF 9
ENDMDL
MODEL 5
REMARK VINA RESULT: -7.542820710      2.304      6.564
REMARK  9 active torsions:
REMARK  status: ('A' for Active; 'I' for Inactive)
REMARK    1  A    between atoms: C2_2  and  C5_5 
REMARK    2  A    between atoms: C5_5  and  C6_6 
REMARK    3  A    between atoms: C7_7  and  C8_8 
REMARK    4  A    between atoms: C8_8  and  N1_9 
REMARK       I    between atoms: N1_9  and  C9_11 
REMARK    5  A    between atoms: C9_11  and  C10_13 
REMARK    6  A    between atoms: C10_13  and  C11_14 
REMARK    7  A    between atoms: C11_14  and  C12_15 
REMARK    8  A    between atoms: C12_15  and  C14_18 
REMARK       I    between atoms: C14_18  and  N3_20 
REMARK    9  A    between atoms: N3_20  and  C15_22 
ROOT
HETATM    1  C12 UNL     1      32.338 161.318  57.600  1.00  0.00     0.185 C 
HETATM    2  C13 UNL     1      31.907 161.639  58.914  1.00  0.00     0.073 C 
HETATM    3  N2  UNL     1      31.539 161.855  59.994  1.00  0.00    -0.196 NA
ENDROOT
BRANCH   1   4
HETATM    4  C11 UNL     1      33.093 162.317  56.831  1.00  0.00     0.038 C 
BRANCH   4   5
HETATM    5  C10 UNL     1      33.994 163.267  57.486  1.00  0.00     0.104 C 
BRANCH   5   6
HETATM    6  C9  UNL     1      35.387 163.389  57.037  1.00  0.00     0.217 C 
HETATM    7  N1  UNL     1      36.147 164.530  57.348  1.00  0.00    -0.358 N 
ATOM      8  H1  UNL     1      35.657 165.240  57.893  1.00  0.00     0.162 HD
HETATM    9  O1  UNL     1      35.886 162.484  56.387  1.00  0.00    -0.274 OA
BRANCH   7  10
HETATM   10  C8  UNL     1      37.497 164.848  57.020  1.00  0.00     0.149 C 
BRANCH  10  11
HETATM   11  C7  UNL     1      38.323 165.049  58.222  1.00  0.00    -0.011 C 
HETATM   12  C6  UNL     1      39.527 164.633  58.497  1.00  0.00    -0.028 C 
BRANCH  12  13
HETATM   13  C5  UNL     1      40.360 163.818  57.600  1.00  0.00     0.035 C 
BRANCH  13  14
HETATM   14  C2  UNL     1      41.021 162.646  58.218  1.00  0.00    -0.048 C 
HETATM   15  C1  UNL     1      41.668 163.037  59.554  1.00  0.00     0.014 C 
HETATM   16  C3  UNL     1      42.072 161.978  57.417  1.00  0.00     0.014 C 
HETATM   17  C4  UNL     1      39.894 161.627  58.513  1.00  0.00     0.014 C 
ENDBRANCH  13  14
ENDBRANCH  12  13
ENDBRANCH  10  11
ENDBRANCH   7  10
ENDBRANCH   5   6
ENDBRANCH   4   5
ENDBRANCH   1   4
BRANCH   1  18
HETATM   18  C14 UNL     1      33.163 160.043  57.609  1.00  0.00     0.235 C 
HETATM   19  O2  UNL     1      32.680 158.973  57.200  1.00  0.00    -0.272 OA
HETATM   20  N3  UNL     1      34.477 160.101  58.089  1.00  0.00    -0.354 N 
ATOM     21  H3  UNL     1      34.830 161.001  58.415  1.00  0.00     0.162 HD
BRANCH  20  22
HETATM   22  C15 UNL     1      35.367 158.957  58.152  1.00  0.00     0.099 C 
HETATM   23  C16 UNL     1      35.299 158.409  59.549  1.00  0.00     0.041 C 
HETATM   24  C17 UNL     1      36.364 157.347  59.669  1.00  0.00     0.142 C 
HETATM   25  S1  UNL     1      37.691 158.071  58.693  1.00  0.00     0.146 S 
HETATM   26  O3  UNL     1      38.123 157.060  57.701  1.00  0.00    -0.228 OA
HETATM   27  O4  UNL     1      38.783 158.575  59.568  1.00  0.00    -0.228 OA
HETATM   28  C18 UNL     1      36.792 159.415  57.923  1.00  0.00     0.165 C 
ENDBRANCH  20  22
ENDBRANCH   1  18
TORSDOF 9
ENDMDL
