MODEL 1
REMARK VINA RESULT: -6.788233855      0.000      0.000
REMARK  11 active torsions:
REMARK  status: ('A' for Active; 'I' for Inactive)
REMARK    1  A    between atoms: S1_2  and  C2_4 
REMARK    2  A    between atoms: S1_2  and  C11_16 
REMARK    3  A    between atoms: C2_4  and  C3_5 
REMARK    4  A    between atoms: C3_5  and  C4_6 
REMARK    5  A    between atoms: C4_6  and  C5_7 
REMARK    6  A    between atoms: C5_7  and  N1_8 
REMARK    7  A    between atoms: N2_11  and  C8_12 
REMARK    8  A    between atoms: C11_16  and  C12_17 
REMARK    9  A    between atoms: C12_17  and  C13_18 
REMARK   10  A    between atoms: C13_18  and  O3_19 
REMARK   11  A    between atoms: N3_21  and  O4_23 
ROOT
HETATM    1  C1  UNL     1      36.912 158.204  57.277  1.00  0.00     0.113 C 
HETATM    2  S1  UNL     1      35.404 158.559  58.259  1.00  0.00    -0.058 S 
HETATM    3  O1  UNL     1      35.610 158.282  60.239  1.00  0.00    -0.270 OA
ENDROOT
BRANCH   2   4
HETATM    4  C2  UNL     1      35.941 160.316  58.767  1.00  0.00     0.096 C 
BRANCH   4   5
HETATM    5  C3  UNL     1      35.725 161.396  57.737  1.00  0.00     0.013 C 
BRANCH   5   6
HETATM    6  C4  UNL     1      37.046 161.855  57.202  1.00  0.00     0.031 C 
BRANCH   6   7
HETATM    7  C5  UNL     1      37.540 163.151  57.742  1.00  0.00     0.272 C 
BRANCH   7   8
HETATM    8  N1  UNL     1      38.866 163.001  58.336  1.00  0.00     0.091 N 
HETATM    9  C6  UNL     1      39.216 161.607  58.539  1.00  0.00     0.292 C 
HETATM   10  C7  UNL     1      40.471 161.609  59.419  1.00  0.00     0.155 C 
HETATM   11  N2  UNL     1      41.449 162.427  58.754  1.00  0.00    -0.356 N 
HETATM   12  C9  UNL     1      41.126 163.783  58.404  1.00  0.00     0.155 C 
HETATM   13  C10 UNL     1      39.857 163.695  57.543  1.00  0.00     0.292 C 
BRANCH  11  14
HETATM   14  C8  UNL     1      42.717 161.903  58.446  1.00  0.00     0.350 C 
HETATM   15  O2  UNL     1      42.867 161.086  57.509  1.00  0.00    -0.284 OA
ENDBRANCH  11  14
ENDBRANCH   7   8
ENDBRANCH   6   7
ENDBRANCH   5   6
ENDBRANCH   4   5
ENDBRANCH   2   4
BRANCH   2  16
HETATM   16  C11 UNL     1      33.730 159.044  57.699  1.00  0.00     0.113 C 
BRANCH  16  17
HETATM   17  C12 UNL     1      32.485 158.824  58.533  1.00  0.00     0.036 C 
HETATM   18  C14 UNL     1      32.454 159.690  59.770  1.00  0.00     0.019 C 
HETATM   19  C15 UNL     1      32.041 161.099  59.400  1.00  0.00     0.001 C 
HETATM   20  C16 UNL     1      30.530 161.053  59.182  1.00  0.00     0.000 C 
HETATM   21  C17 UNL     1      30.152 159.765  58.536  1.00  0.00     0.001 C 
HETATM   22  C18 UNL     1      31.238 159.123  57.727  1.00  0.00     0.019 C 
BRANCH  17  23
HETATM   23  C13 UNL     1      32.352 157.420  59.003  1.00  0.00     0.145 C 
HETATM   24  N3  UNL     1      32.834 157.005  60.112  1.00  0.00    -0.250 N 
ATOM     25  H3  UNL     1      33.339 157.651  60.720  1.00  0.00     0.196 HD
BRANCH  23  26
HETATM   26  O3  UNL     1      31.668 156.547  58.183  1.00  0.00    -0.347 OA
ATOM     27  H3  UNL     1      30.922 156.097  58.560  1.00  0.00     0.219 HD
ENDBRANCH  23  26
BRANCH  24  28
HETATM   28  O4  UNL     1      32.677 155.716  60.480  1.00  0.00    -0.288 OA
ATOM     29  H4  UNL     1      33.208 155.351  61.178  1.00  0.00     0.244 HD
ENDBRANCH  24  28
ENDBRANCH  17  23
ENDBRANCH  16  17
ENDBRANCH   2  16
TORSDOF 11
ENDMDL
MODEL 2
REMARK VINA RESULT: -6.631577277      2.120      2.668
REMARK  11 active torsions:
REMARK  status: ('A' for Active; 'I' for Inactive)
REMARK    1  A    between atoms: S1_2  and  C2_4 
REMARK    2  A    between atoms: S1_2  and  C11_16 
REMARK    3  A    between atoms: C2_4  and  C3_5 
REMARK    4  A    between atoms: C3_5  and  C4_6 
REMARK    5  A    between atoms: C4_6  and  C5_7 
REMARK    6  A    between atoms: C5_7  and  N1_8 
REMARK    7  A    between atoms: N2_11  and  C8_12 
REMARK    8  A    between atoms: C11_16  and  C12_17 
REMARK    9  A    between atoms: C12_17  and  C13_18 
REMARK   10  A    between atoms: C13_18  and  O3_19 
REMARK   11  A    between atoms: N3_21  and  O4_23 
ROOT
HETATM    1  C1  UNL     1      33.694 163.729  56.937  1.00  0.00     0.113 C 
HETATM    2  S1  UNL     1      34.842 162.305  57.074  1.00  0.00    -0.058 S 
HETATM    3  O1  UNL     1      36.226 162.202  55.620  1.00  0.00    -0.270 OA
ENDROOT
BRANCH   2   4
HETATM    4  C2  UNL     1      36.243 163.296  57.904  1.00  0.00     0.096 C 
BRANCH   4   5
HETATM    5  C3  UNL     1      36.364 164.742  57.491  1.00  0.00     0.013 C 
BRANCH   5   6
HETATM    6  C4  UNL     1      37.790 165.183  57.611  1.00  0.00     0.031 C 
BRANCH   6   7
HETATM    7  C5  UNL     1      38.449 164.869  58.908  1.00  0.00     0.272 C 
BRANCH   7   8
HETATM    8  N1  UNL     1      39.748 164.236  58.697  1.00  0.00     0.091 N 
HETATM    9  C6  UNL     1      39.746 162.843  59.103  1.00  0.00     0.292 C 
HETATM   10  C7  UNL     1      41.214 162.399  59.105  1.00  0.00     0.155 C 
HETATM   11  N2  UNL     1      41.740 162.687  57.799  1.00  0.00    -0.356 N 
HETATM   12  C9  UNL     1      41.660 164.023  57.276  1.00  0.00     0.155 C 
HETATM   13  C10 UNL     1      40.172 164.395  57.323  1.00  0.00     0.292 C 
BRANCH  11  14
HETATM   14  C8  UNL     1      42.332 161.666  57.035  1.00  0.00     0.350 C 
HETATM   15  O2  UNL     1      42.044 161.516  55.825  1.00  0.00    -0.284 OA
ENDBRANCH  11  14
ENDBRANCH   7   8
ENDBRANCH   6   7
ENDBRANCH   5   6
ENDBRANCH   4   5
ENDBRANCH   2   4
BRANCH   2  16
HETATM   16  C11 UNL     1      34.862 160.930  58.283  1.00  0.00     0.113 C 
BRANCH  16  17
HETATM   17  C12 UNL     1      33.702 159.974  58.463  1.00  0.00     0.036 C 
HETATM   18  C14 UNL     1      32.896 160.265  59.706  1.00  0.00     0.019 C 
HETATM   19  C15 UNL     1      31.975 161.441  59.457  1.00  0.00     0.001 C 
HETATM   20  C16 UNL     1      30.817 160.902  58.620  1.00  0.00     0.000 C 
HETATM   21  C17 UNL     1      31.322 159.886  57.655  1.00  0.00     0.001 C 
HETATM   22  C18 UNL     1      32.763 160.037  57.276  1.00  0.00     0.019 C 
BRANCH  17  23
HETATM   23  C13 UNL     1      34.141 158.557  58.573  1.00  0.00     0.145 C 
HETATM   24  N3  UNL     1      34.408 157.993  59.689  1.00  0.00    -0.250 N 
ATOM     25  H3  UNL     1      34.324 158.520  60.558  1.00  0.00     0.196 HD
BRANCH  23  26
HETATM   26  O3  UNL     1      34.254 157.843  57.399  1.00  0.00    -0.347 OA
ATOM     27  H3  UNL     1      34.882 158.160  56.761  1.00  0.00     0.219 HD
ENDBRANCH  23  26
BRANCH  24  28
HETATM   28  O4  UNL     1      34.802 156.702  59.718  1.00  0.00    -0.288 OA
ATOM     29  H4  UNL     1      35.203 156.307  58.953  1.00  0.00     0.244 HD
ENDBRANCH  24  28
ENDBRANCH  17  23
ENDBRANCH  16  17
ENDBRANCH   2  16
TORSDOF 11
ENDMDL
MODEL 3
REMARK VINA RESULT: -6.581514701      1.859      2.670
REMARK  11 active torsions:
REMARK  status: ('A' for Active; 'I' for Inactive)
REMARK    1  A    between atoms: S1_2  and  C2_4 
REMARK    2  A    between atoms: S1_2  and  C11_16 
REMARK    3  A    between atoms: C2_4  and  C3_5 
REMARK    4  A    between atoms: C3_5  and  C4_6 
REMARK    5  A    between atoms: C4_6  and  C5_7 
REMARK    6  A    between atoms: C5_7  and  N1_8 
REMARK    7  A    between atoms: N2_11  and  C8_12 
REMARK    8  A    between atoms: C11_16  and  C12_17 
REMARK    9  A    between atoms: C12_17  and  C13_18 
REMARK   10  A    between atoms: C13_18  and  O3_19 
REMARK   11  A    between atoms: N3_21  and  O4_23 
ROOT
HETATM    1  C1  UNL     1      36.805 162.340  56.601  1.00  0.00     0.113 C 
HETATM    2  S1  UNL     1      36.586 160.738  57.466  1.00  0.00    -0.058 S 
HETATM    3  O1  UNL     1      37.622 159.209  56.672  1.00  0.00    -0.270 OA
ENDROOT
BRANCH   2   4
HETATM    4  C2  UNL     1      38.186 160.878  58.492  1.00  0.00     0.096 C 
BRANCH   4   5
HETATM    5  C3  UNL     1      38.139 161.828  59.663  1.00  0.00     0.013 C 
BRANCH   5   6
HETATM    6  C4  UNL     1      39.532 162.201  60.065  1.00  0.00     0.031 C 
BRANCH   6   7
HETATM    7  C5  UNL     1      40.092 163.403  59.390  1.00  0.00     0.272 C 
BRANCH   7   8
HETATM    8  N1  UNL     1      41.210 163.044  58.522  1.00  0.00     0.091 N 
HETATM    9  C6  UNL     1      41.858 161.818  58.949  1.00  0.00     0.292 C 
HETATM   10  C7  UNL     1      43.162 161.725  58.147  1.00  0.00     0.155 C 
HETATM   11  N2  UNL     1      42.806 161.812  56.757  1.00  0.00    -0.356 N 
HETATM   12  C9  UNL     1      42.049 162.939  56.284  1.00  0.00     0.155 C 
HETATM   13  C10 UNL     1      40.777 162.971  57.143  1.00  0.00     0.292 C 
BRANCH  11  14
HETATM   14  C8  UNL     1      43.196 160.800  55.863  1.00  0.00     0.350 C 
HETATM   15  O2  UNL     1      43.541 159.671  56.278  1.00  0.00    -0.284 OA
ENDBRANCH  11  14
ENDBRANCH   7   8
ENDBRANCH   6   7
ENDBRANCH   5   6
ENDBRANCH   4   5
ENDBRANCH   2   4
BRANCH   2  16
HETATM   16  C11 UNL     1      35.507 160.310  58.882  1.00  0.00     0.113 C 
BRANCH  16  17
HETATM   17  C12 UNL     1      34.372 159.314  58.783  1.00  0.00     0.036 C 
HETATM   18  C14 UNL     1      33.440 159.374  59.971  1.00  0.00     0.019 C 
HETATM   19  C15 UNL     1      32.506 160.557  59.831  1.00  0.00     0.001 C 
HETATM   20  C16 UNL     1      31.453 160.145  58.804  1.00  0.00     0.000 C 
HETATM   21  C17 UNL     1      32.083 159.317  57.739  1.00  0.00     0.001 C 
HETATM   22  C18 UNL     1      33.548 159.560  57.536  1.00  0.00     0.019 C 
BRANCH  17  23
HETATM   23  C13 UNL     1      34.849 157.908  58.698  1.00  0.00     0.145 C 
HETATM   24  N3  UNL     1      34.881 157.119  59.703  1.00  0.00    -0.250 N 
ATOM     25  H3  UNL     1      34.569 157.447  60.618  1.00  0.00     0.196 HD
BRANCH  23  26
HETATM   26  O3  UNL     1      35.270 157.464  57.463  1.00  0.00    -0.347 OA
ATOM     27  H3  UNL     1      34.606 157.107  56.884  1.00  0.00     0.219 HD
ENDBRANCH  23  26
BRANCH  24  28
HETATM   28  O4  UNL     1      35.327 155.853  59.557  1.00  0.00    -0.288 OA
ATOM     29  H4  UNL     1      34.846 155.130  59.944  1.00  0.00     0.244 HD
ENDBRANCH  24  28
ENDBRANCH  17  23
ENDBRANCH  16  17
ENDBRANCH   2  16
TORSDOF 11
ENDMDL
MODEL 4
REMARK VINA RESULT: -6.567374638      2.681      3.736
REMARK  11 active torsions:
REMARK  status: ('A' for Active; 'I' for Inactive)
REMARK    1  A    between atoms: S1_2  and  C2_4 
REMARK    2  A    between atoms: S1_2  and  C11_16 
REMARK    3  A    between atoms: C2_4  and  C3_5 
REMARK    4  A    between atoms: C3_5  and  C4_6 
REMARK    5  A    between atoms: C4_6  and  C5_7 
REMARK    6  A    between atoms: C5_7  and  N1_8 
REMARK    7  A    between atoms: N2_11  and  C8_12 
REMARK    8  A    between atoms: C11_16  and  C12_17 
REMARK    9  A    between atoms: C12_17  and  C13_18 
REMARK   10  A    between atoms: C13_18  and  O3_19 
REMARK   11  A    between atoms: N3_21  and  O4_23 
ROOT
HETATM    1  C1  UNL     1      34.521 164.065  57.314  1.00  0.00     0.113 C 
HETATM    2  S1  UNL     1      35.371 162.447  57.164  1.00  0.00    -0.058 S 
HETATM    3  O1  UNL     1      36.554 162.270  55.548  1.00  0.00    -0.270 OA
ENDROOT
BRANCH   2   4
HETATM    4  C2  UNL     1      37.017 163.050  57.913  1.00  0.00     0.096 C 
BRANCH   4   5
HETATM    5  C3  UNL     1      37.254 164.539  57.876  1.00  0.00     0.013 C 
BRANCH   5   6
HETATM    6  C4  UNL     1      38.623 164.846  58.398  1.00  0.00     0.031 C 
BRANCH   6   7
HETATM    7  C5  UNL     1      39.263 163.761  59.190  1.00  0.00     0.272 C 
BRANCH   7   8
HETATM    8  N1  UNL     1      40.536 163.360  58.598  1.00  0.00     0.091 N 
HETATM    9  C6  UNL     1      40.982 162.069  59.090  1.00  0.00     0.292 C 
HETATM   10  C7  UNL     1      42.435 161.916  58.624  1.00  0.00     0.155 C 
HETATM   11  N2  UNL     1      42.440 162.097  57.198  1.00  0.00    -0.356 N 
HETATM   12  C9  UNL     1      41.894 163.299  56.630  1.00  0.00     0.155 C 
HETATM   13  C10 UNL     1      40.454 163.386  57.154  1.00  0.00     0.292 C 
BRANCH  11  14
HETATM   14  C8  UNL     1      42.975 161.102  56.362  1.00  0.00     0.350 C 
HETATM   15  O2  UNL     1      42.323 160.657  55.390  1.00  0.00    -0.284 OA
ENDBRANCH  11  14
ENDBRANCH   7   8
ENDBRANCH   6   7
ENDBRANCH   5   6
ENDBRANCH   4   5
ENDBRANCH   2   4
BRANCH   2  16
HETATM   16  C11 UNL     1      35.239 160.954  58.215  1.00  0.00     0.113 C 
BRANCH  16  17
HETATM   17  C12 UNL     1      33.971 160.134  58.327  1.00  0.00     0.036 C 
HETATM   18  C14 UNL     1      33.990 158.909  57.444  1.00  0.00     0.019 C 
HETATM   19  C15 UNL     1      34.829 157.826  58.089  1.00  0.00     0.001 C 
HETATM   20  C16 UNL     1      33.967 157.227  59.199  1.00  0.00     0.000 C 
HETATM   21  C17 UNL     1      33.162 158.300  59.847  1.00  0.00     0.001 C 
HETATM   22  C18 UNL     1      33.752 159.674  59.754  1.00  0.00     0.019 C 
BRANCH  17  23
HETATM   23  C13 UNL     1      32.757 160.903  57.946  1.00  0.00     0.145 C 
HETATM   24  N3  UNL     1      32.170 161.719  58.735  1.00  0.00    -0.250 N 
ATOM     25  H3  UNL     1      32.533 161.867  59.676  1.00  0.00     0.196 HD
BRANCH  23  26
HETATM   26  O3  UNL     1      32.265 160.706  56.673  1.00  0.00    -0.347 OA
ATOM     27  H3  UNL     1      31.746 161.408  56.298  1.00  0.00     0.219 HD
ENDBRANCH  23  26
BRANCH  24  28
HETATM   28  O4  UNL     1      31.070 162.387  58.325  1.00  0.00    -0.288 OA
ATOM     29  H4  UNL     1      31.089 162.888  57.518  1.00  0.00     0.244 HD
ENDBRANCH  24  28
ENDBRANCH  17  23
ENDBRANCH  16  17
ENDBRANCH   2  16
TORSDOF 11
ENDMDL
MODEL 5
REMARK VINA RESULT: -6.539282860      2.546      8.577
REMARK  11 active torsions:
REMARK  status: ('A' for Active; 'I' for Inactive)
REMARK    1  A    between atoms: S1_2  and  C2_4 
REMARK    2  A    between atoms: S1_2  and  C11_16 
REMARK    3  A    between atoms: C2_4  and  C3_5 
REMARK    4  A    between atoms: C3_5  and  C4_6 
REMARK    5  A    between atoms: C4_6  and  C5_7 
REMARK    6  A    between atoms: C5_7  and  N1_8 
REMARK    7  A    between atoms: N2_11  and  C8_12 
REMARK    8  A    between atoms: C11_16  and  C12_17 
REMARK    9  A    between atoms: C12_17  and  C13_18 
REMARK   10  A    between atoms: C13_18  and  O3_19 
REMARK   11  A    between atoms: N3_21  and  O4_23 
ROOT
HETATM    1  C1  UNL     1      37.140 158.726  57.237  1.00  0.00     0.113 C 
HETATM    2  S1  UNL     1      36.874 160.435  57.848  1.00  0.00    -0.058 S 
HETATM    3  O1  UNL     1      35.081 161.219  57.387  1.00  0.00    -0.270 OA
ENDROOT
BRANCH   2   4
HETATM    4  C2  UNL     1      35.895 159.911  59.398  1.00  0.00     0.096 C 
BRANCH   4   5
HETATM    5  C3  UNL     1      35.274 158.538  59.354  1.00  0.00     0.013 C 
BRANCH   5   6
HETATM    6  C4  UNL     1      33.906 158.583  59.960  1.00  0.00     0.031 C 
BRANCH   6   7
HETATM    7  C5  UNL     1      32.789 158.225  59.045  1.00  0.00     0.272 C 
BRANCH   7   8
HETATM    8  N1  UNL     1      31.937 159.382  58.779  1.00  0.00     0.091 N 
HETATM    9  C6  UNL     1      30.527 159.045  58.846  1.00  0.00     0.292 C 
HETATM   10  C7  UNL     1      29.775 160.250  58.269  1.00  0.00     0.155 C 
HETATM   11  N2  UNL     1      30.196 161.404  59.015  1.00  0.00    -0.356 N 
HETATM   12  C9  UNL     1      31.594 161.727  59.101  1.00  0.00     0.155 C 
HETATM   13  C10 UNL     1      32.272 160.473  59.669  1.00  0.00     0.292 C 
BRANCH  11  14
HETATM   14  C8  UNL     1      29.246 162.215  59.658  1.00  0.00     0.350 C 
HETATM   15  O2  UNL     1      29.600 163.151  60.412  1.00  0.00    -0.284 OA
ENDBRANCH  11  14
ENDBRANCH   7   8
ENDBRANCH   6   7
ENDBRANCH   5   6
ENDBRANCH   4   5
ENDBRANCH   2   4
BRANCH   2  16
HETATM   16  C11 UNL     1      38.021 161.552  58.736  1.00  0.00     0.113 C 
BRANCH  16  17
HETATM   17  C12 UNL     1      38.712 162.723  58.070  1.00  0.00     0.036 C 
HETATM   18  C14 UNL     1      37.875 163.349  56.979  1.00  0.00     0.019 C 
HETATM   19  C15 UNL     1      36.813 164.236  57.593  1.00  0.00     0.001 C 
HETATM   20  C16 UNL     1      37.528 165.517  58.021  1.00  0.00     0.000 C 
HETATM   21  C17 UNL     1      38.886 165.189  58.534  1.00  0.00     0.001 C 
HETATM   22  C18 UNL     1      39.036 163.803  59.082  1.00  0.00     0.019 C 
BRANCH  17  23
HETATM   23  C13 UNL     1      40.003 162.342  57.438  1.00  0.00     0.145 C 
HETATM   24  N3  UNL     1      40.624 163.092  56.611  1.00  0.00    -0.250 N 
ATOM     25  H3  UNL     1      40.236 164.000  56.356  1.00  0.00     0.196 HD
BRANCH  23  26
HETATM   26  O3  UNL     1      40.530 161.115  57.782  1.00  0.00    -0.347 OA
ATOM     27  H3  UNL     1      40.818 160.555  57.070  1.00  0.00     0.219 HD
ENDBRANCH  23  26
BRANCH  24  28
HETATM   28  O4  UNL     1      41.794 162.685  56.073  1.00  0.00    -0.288 OA
ATOM     29  H4  UNL     1      42.602 163.136  56.288  1.00  0.00     0.244 HD
ENDBRANCH  24  28
ENDBRANCH  17  23
ENDBRANCH  16  17
ENDBRANCH   2  16
TORSDOF 11
ENDMDL
