MODEL 1
REMARK VINA RESULT: -7.527284073      0.000      0.000
REMARK  13 active torsions:
REMARK  status: ('A' for Active; 'I' for Inactive)
REMARK    1  A    between atoms: C3_3  and  C4_4 
REMARK    2  A    between atoms: C4_4  and  C5_5 
REMARK    3  A    between atoms: C5_5  and  C6_6 
REMARK    4  A    between atoms: C7_7  and  C8_8 
REMARK    5  A    between atoms: C9_9  and  C10_10 
REMARK    6  A    between atoms: C10_10  and  O2_12 
REMARK    7  A    between atoms: O2_12  and  C11_13 
REMARK    8  A    between atoms: C11_13  and  C12_14 
REMARK    9  A    between atoms: C11_13  and  C17_19 
REMARK   10  A    between atoms: C12_14  and  C13_15 
REMARK   11  A    between atoms: C13_15  and  C14_16 
REMARK       I    between atoms: C17_19  and  N1_21 
REMARK   12  A    between atoms: N1_21  and  C18_23 
REMARK   13  A    between atoms: C21_28  and  O6_29 
ROOT
HETATM    1  C1  UNL     1      26.752 165.287  57.005  1.00  0.00     0.112 C 
HETATM    2  C2  UNL     1      27.199 164.069  57.676  1.00  0.00    -0.110 C 
HETATM    3  C3  UNL     1      27.585 163.094  58.231  1.00  0.00    -0.096 C 
ENDROOT
BRANCH   3   4
HETATM    4  C4  UNL     1      28.100 161.881  58.959  1.00  0.00     0.178 C 
BRANCH   4   5
HETATM    5  C5  UNL     1      29.321 161.841  59.254  1.00  0.00    -0.144 C 
BRANCH   5   6
HETATM    6  C6  UNL     1      30.649 161.809  59.585  1.00  0.00     0.051 C 
HETATM    7  C7  UNL     1      31.308 160.623  59.374  1.00  0.00     0.008 C 
BRANCH   7   8
HETATM    8  C8  UNL     1      32.702 160.520  59.710  1.00  0.00     0.007 C 
HETATM    9  C9  UNL     1      33.478 159.787  58.939  1.00  0.00     0.082 C 
BRANCH   9  10
HETATM   10  C10 UNL     1      34.879 159.539  59.083  1.00  0.00     0.283 C 
HETATM   11  O1  UNL     1      35.295 159.052  60.193  1.00  0.00    -0.260 OA
BRANCH  10  12
HETATM   12  O2  UNL     1      35.873 159.776  58.135  1.00  0.00    -0.303 OA
BRANCH  12  13
HETATM   13  C11 UNL     1      36.541 161.051  58.140  1.00  0.00     0.224 C 
BRANCH  13  14
HETATM   14  C12 UNL     1      36.515 161.608  56.717  1.00  0.00     0.043 C 
BRANCH  14  15
HETATM   15  C13 UNL     1      36.171 163.066  56.696  1.00  0.00     0.007 C 
BRANCH  15  16
HETATM   16  C14 UNL     1      34.804 163.257  57.296  1.00  0.00    -0.023 C 
HETATM   17  C15 UNL     1      33.695 162.687  56.472  1.00  0.00     0.009 C 
HETATM   18  C16 UNL     1      34.496 164.709  57.590  1.00  0.00     0.009 C 
ENDBRANCH  15  16
ENDBRANCH  14  15
ENDBRANCH  13  14
BRANCH  13  19
HETATM   19  C17 UNL     1      37.919 160.895  58.630  1.00  0.00     0.247 C 
HETATM   20  O3  UNL     1      38.300 159.781  59.052  1.00  0.00    -0.271 OA
HETATM   21  N1  UNL     1      38.830 161.985  58.639  1.00  0.00    -0.349 N 
ATOM     22  H1  UNL     1      38.525 162.899  58.304  1.00  0.00     0.163 HD
BRANCH  21  23
HETATM   23  C18 UNL     1      40.172 161.817  59.114  1.00  0.00     0.149 C 
HETATM   24  C19 UNL     1      41.125 161.486  57.982  1.00  0.00     0.141 C 
HETATM   25  C20 UNL     1      42.406 161.985  58.518  1.00  0.00     0.263 C 
HETATM   26  O4  UNL     1      43.537 161.500  58.302  1.00  0.00    -0.265 OA
HETATM   27  O5  UNL     1      42.115 163.075  59.294  1.00  0.00    -0.288 OA
HETATM   28  C21 UNL     1      40.744 163.165  59.585  1.00  0.00     0.289 C 
BRANCH  28  29
HETATM   29  O6  UNL     1      40.202 164.217  58.859  1.00  0.00    -0.369 OA
ATOM     30  H6  UNL     1      40.298 164.071  57.925  1.00  0.00     0.212 HD
ENDBRANCH  28  29
ENDBRANCH  21  23
ENDBRANCH  13  19
ENDBRANCH  12  13
ENDBRANCH  10  12
ENDBRANCH   9  10
ENDBRANCH   7   8
ENDBRANCH   5   6
ENDBRANCH   4   5
ENDBRANCH   3   4
TORSDOF 13
ENDMDL
MODEL 2
REMARK VINA RESULT: -7.443972262      2.482      7.750
REMARK  13 active torsions:
REMARK  status: ('A' for Active; 'I' for Inactive)
REMARK    1  A    between atoms: C3_3  and  C4_4 
REMARK    2  A    between atoms: C4_4  and  C5_5 
REMARK    3  A    between atoms: C5_5  and  C6_6 
REMARK    4  A    between atoms: C7_7  and  C8_8 
REMARK    5  A    between atoms: C9_9  and  C10_10 
REMARK    6  A    between atoms: C10_10  and  O2_12 
REMARK    7  A    between atoms: O2_12  and  C11_13 
REMARK    8  A    between atoms: C11_13  and  C12_14 
REMARK    9  A    between atoms: C11_13  and  C17_19 
REMARK   10  A    between atoms: C12_14  and  C13_15 
REMARK   11  A    between atoms: C13_15  and  C14_16 
REMARK       I    between atoms: C17_19  and  N1_21 
REMARK   12  A    between atoms: N1_21  and  C18_23 
REMARK   13  A    between atoms: C21_28  and  O6_29 
ROOT
HETATM    1  C1  UNL     1      42.802 160.932  56.243  1.00  0.00     0.112 C 
HETATM    2  C2  UNL     1      42.236 162.166  56.783  1.00  0.00    -0.110 C 
HETATM    3  C3  UNL     1      41.761 163.171  57.198  1.00  0.00    -0.096 C 
ENDROOT
BRANCH   3   4
HETATM    4  C4  UNL     1      41.126 164.442  57.696  1.00  0.00     0.178 C 
BRANCH   4   5
HETATM    5  C5  UNL     1      39.900 164.425  57.972  1.00  0.00    -0.144 C 
BRANCH   5   6
HETATM    6  C6  UNL     1      38.568 164.418  58.282  1.00  0.00     0.051 C 
HETATM    7  C7  UNL     1      37.730 165.079  57.418  1.00  0.00     0.008 C 
BRANCH   7   8
HETATM    8  C8  UNL     1      36.319 165.117  57.693  1.00  0.00     0.007 C 
HETATM    9  C9  UNL     1      35.570 164.131  57.247  1.00  0.00     0.082 C 
BRANCH   9  10
HETATM   10  C10 UNL     1      34.157 163.964  57.395  1.00  0.00     0.283 C 
HETATM   11  O1  UNL     1      33.388 164.854  56.888  1.00  0.00    -0.260 OA
BRANCH  10  12
HETATM   12  O2  UNL     1      33.500 162.921  58.048  1.00  0.00    -0.303 OA
BRANCH  12  13
HETATM   13  C11 UNL     1      33.506 161.616  57.442  1.00  0.00     0.224 C 
BRANCH  13  14
HETATM   14  C12 UNL     1      32.066 161.111  57.384  1.00  0.00     0.043 C 
BRANCH  14  15
HETATM   15  C13 UNL     1      31.137 161.986  58.168  1.00  0.00     0.007 C 
BRANCH  15  16
HETATM   16  C14 UNL     1      30.366 161.136  59.142  1.00  0.00    -0.023 C 
HETATM   17  C15 UNL     1      30.385 159.676  58.822  1.00  0.00     0.009 C 
HETATM   18  C16 UNL     1      28.928 161.582  59.293  1.00  0.00     0.009 C 
ENDBRANCH  15  16
ENDBRANCH  14  15
ENDBRANCH  13  14
BRANCH  13  19
HETATM   19  C17 UNL     1      34.362 160.706  58.220  1.00  0.00     0.247 C 
HETATM   20  O3  UNL     1      33.849 159.973  59.094  1.00  0.00    -0.271 OA
HETATM   21  N1  UNL     1      35.765 160.644  58.005  1.00  0.00    -0.349 N 
ATOM     22  H1  UNL     1      36.193 161.245  57.300  1.00  0.00     0.163 HD
BRANCH  21  23
HETATM   23  C18 UNL     1      36.587 159.749  58.766  1.00  0.00     0.149 C 
HETATM   24  C19 UNL     1      36.798 158.435  58.039  1.00  0.00     0.141 C 
HETATM   25  C20 UNL     1      38.083 157.986  58.606  1.00  0.00     0.263 C 
HETATM   26  O4  UNL     1      38.430 156.803  58.807  1.00  0.00    -0.265 OA
HETATM   27  O5  UNL     1      38.817 159.112  58.869  1.00  0.00    -0.288 OA
HETATM   28  C21 UNL     1      38.031 160.275  58.830  1.00  0.00     0.289 C 
BRANCH  28  29
HETATM   29  O6  UNL     1      38.352 160.992  57.685  1.00  0.00    -0.369 OA
ATOM     30  H6  UNL     1      38.925 161.721  57.889  1.00  0.00     0.212 HD
ENDBRANCH  28  29
ENDBRANCH  21  23
ENDBRANCH  13  19
ENDBRANCH  12  13
ENDBRANCH  10  12
ENDBRANCH   9  10
ENDBRANCH   7   8
ENDBRANCH   5   6
ENDBRANCH   4   5
ENDBRANCH   3   4
TORSDOF 13
ENDMDL
MODEL 3
REMARK VINA RESULT: -7.356485329      3.192      5.207
REMARK  13 active torsions:
REMARK  status: ('A' for Active; 'I' for Inactive)
REMARK    1  A    between atoms: C3_3  and  C4_4 
REMARK    2  A    between atoms: C4_4  and  C5_5 
REMARK    3  A    between atoms: C5_5  and  C6_6 
REMARK    4  A    between atoms: C7_7  and  C8_8 
REMARK    5  A    between atoms: C9_9  and  C10_10 
REMARK    6  A    between atoms: C10_10  and  O2_12 
REMARK    7  A    between atoms: O2_12  and  C11_13 
REMARK    8  A    between atoms: C11_13  and  C12_14 
REMARK    9  A    between atoms: C11_13  and  C17_19 
REMARK   10  A    between atoms: C12_14  and  C13_15 
REMARK   11  A    between atoms: C13_15  and  C14_16 
REMARK       I    between atoms: C17_19  and  N1_21 
REMARK   12  A    between atoms: N1_21  and  C18_23 
REMARK   13  A    between atoms: C21_28  and  O6_29 
ROOT
HETATM    1  C1  UNL     1      29.403 156.930  55.688  1.00  0.00     0.112 C 
HETATM    2  C2  UNL     1      29.883 157.691  56.838  1.00  0.00    -0.110 C 
HETATM    3  C3  UNL     1      30.291 158.325  57.754  1.00  0.00    -0.096 C 
ENDROOT
BRANCH   3   4
HETATM    4  C4  UNL     1      30.825 159.157  58.891  1.00  0.00     0.178 C 
BRANCH   4   5
HETATM    5  C5  UNL     1      31.560 160.138  58.613  1.00  0.00    -0.144 C 
BRANCH   5   6
HETATM    6  C6  UNL     1      32.360 161.210  58.325  1.00  0.00     0.051 C 
HETATM    7  C7  UNL     1      32.651 161.425  57.001  1.00  0.00     0.008 C 
BRANCH   7   8
HETATM    8  C8  UNL     1      33.495 162.528  56.632  1.00  0.00     0.007 C 
HETATM    9  C9  UNL     1      33.829 163.396  57.564  1.00  0.00     0.082 C 
BRANCH   9  10
HETATM   10  C10 UNL     1      34.646 164.562  57.428  1.00  0.00     0.283 C 
HETATM   11  O1  UNL     1      34.157 165.688  57.798  1.00  0.00    -0.260 OA
BRANCH  10  12
HETATM   12  O2  UNL     1      35.943 164.623  56.921  1.00  0.00    -0.303 OA
BRANCH  12  13
HETATM   13  C11 UNL     1      36.996 163.955  57.640  1.00  0.00     0.224 C 
BRANCH  13  14
HETATM   14  C12 UNL     1      38.315 164.652  57.310  1.00  0.00     0.043 C 
BRANCH  14  15
HETATM   15  C13 UNL     1      39.115 164.942  58.544  1.00  0.00     0.007 C 
BRANCH  15  16
HETATM   16  C14 UNL     1      40.350 164.082  58.541  1.00  0.00    -0.023 C 
HETATM   17  C15 UNL     1      40.751 163.599  57.186  1.00  0.00     0.009 C 
HETATM   18  C16 UNL     1      40.231 162.891  59.467  1.00  0.00     0.009 C 
ENDBRANCH  15  16
ENDBRANCH  14  15
ENDBRANCH  13  14
BRANCH  13  19
HETATM   19  C17 UNL     1      37.034 162.532  57.267  1.00  0.00     0.247 C 
HETATM   20  O3  UNL     1      36.978 162.209  56.060  1.00  0.00    -0.271 OA
HETATM   21  N1  UNL     1      37.128 161.511  58.251  1.00  0.00    -0.349 N 
ATOM     22  H1  UNL     1      37.166 161.765  59.238  1.00  0.00     0.163 HD
BRANCH  21  23
HETATM   23  C18 UNL     1      37.170 160.129  57.873  1.00  0.00     0.149 C 
HETATM   24  C19 UNL     1      38.302 159.396  58.567  1.00  0.00     0.141 C 
HETATM   25  C20 UNL     1      37.795 158.011  58.579  1.00  0.00     0.263 C 
HETATM   26  O4  UNL     1      38.482 156.971  58.496  1.00  0.00    -0.265 OA
HETATM   27  O5  UNL     1      36.432 158.087  58.696  1.00  0.00    -0.288 OA
HETATM   28  C21 UNL     1      35.952 159.382  58.445  1.00  0.00     0.289 C 
BRANCH  28  29
HETATM   29  O6  UNL     1      35.543 159.946  59.647  1.00  0.00    -0.369 OA
ATOM     30  H6  UNL     1      36.183 159.791  60.331  1.00  0.00     0.212 HD
ENDBRANCH  28  29
ENDBRANCH  21  23
ENDBRANCH  13  19
ENDBRANCH  12  13
ENDBRANCH  10  12
ENDBRANCH   9  10
ENDBRANCH   7   8
ENDBRANCH   5   6
ENDBRANCH   4   5
ENDBRANCH   3   4
TORSDOF 13
ENDMDL
MODEL 4
REMARK VINA RESULT: -7.232925916      2.361      5.528
REMARK  13 active torsions:
REMARK  status: ('A' for Active; 'I' for Inactive)
REMARK    1  A    between atoms: C3_3  and  C4_4 
REMARK    2  A    between atoms: C4_4  and  C5_5 
REMARK    3  A    between atoms: C5_5  and  C6_6 
REMARK    4  A    between atoms: C7_7  and  C8_8 
REMARK    5  A    between atoms: C9_9  and  C10_10 
REMARK    6  A    between atoms: C10_10  and  O2_12 
REMARK    7  A    between atoms: O2_12  and  C11_13 
REMARK    8  A    between atoms: C11_13  and  C12_14 
REMARK    9  A    between atoms: C11_13  and  C17_19 
REMARK   10  A    between atoms: C12_14  and  C13_15 
REMARK   11  A    between atoms: C13_15  and  C14_16 
REMARK       I    between atoms: C17_19  and  N1_21 
REMARK   12  A    between atoms: N1_21  and  C18_23 
REMARK   13  A    between atoms: C21_28  and  O6_29 
ROOT
HETATM    1  C1  UNL     1      27.937 164.212  58.256  1.00  0.00     0.112 C 
HETATM    2  C2  UNL     1      28.932 163.178  58.534  1.00  0.00    -0.110 C 
HETATM    3  C3  UNL     1      29.732 162.326  58.734  1.00  0.00    -0.096 C 
ENDROOT
BRANCH   3   4
HETATM    4  C4  UNL     1      30.745 161.233  58.947  1.00  0.00     0.178 C 
BRANCH   4   5
HETATM    5  C5  UNL     1      31.923 161.431  58.557  1.00  0.00    -0.144 C 
BRANCH   5   6
HETATM    6  C6  UNL     1      33.205 161.660  58.137  1.00  0.00     0.051 C 
HETATM    7  C7  UNL     1      33.374 162.607  57.158  1.00  0.00     0.008 C 
BRANCH   7   8
HETATM    8  C8  UNL     1      34.696 162.887  56.666  1.00  0.00     0.007 C 
HETATM    9  C9  UNL     1      35.724 162.571  57.425  1.00  0.00     0.082 C 
BRANCH   9  10
HETATM   10  C10 UNL     1      37.114 162.760  57.146  1.00  0.00     0.283 C 
HETATM   11  O1  UNL     1      37.485 163.890  56.670  1.00  0.00    -0.260 OA
BRANCH  10  12
HETATM   12  O2  UNL     1      38.140 161.834  57.331  1.00  0.00    -0.303 OA
BRANCH  12  13
HETATM   13  C11 UNL     1      38.126 161.017  58.516  1.00  0.00     0.224 C 
BRANCH  13  14
HETATM   14  C12 UNL     1      39.464 161.192  59.231  1.00  0.00     0.043 C 
BRANCH  14  15
HETATM   15  C13 UNL     1      39.613 162.569  59.805  1.00  0.00     0.007 C 
BRANCH  15  16
HETATM   16  C14 UNL     1      40.891 163.178  59.293  1.00  0.00    -0.023 C 
HETATM   17  C15 UNL     1      40.699 164.127  58.155  1.00  0.00     0.009 C 
HETATM   18  C16 UNL     1      41.912 162.135  58.891  1.00  0.00     0.009 C 
ENDBRANCH  15  16
ENDBRANCH  14  15
ENDBRANCH  13  14
BRANCH  13  19
HETATM   19  C17 UNL     1      37.891 159.611  58.154  1.00  0.00     0.247 C 
HETATM   20  O3  UNL     1      38.476 159.124  57.162  1.00  0.00    -0.271 OA
HETATM   21  N1  UNL     1      37.007 158.790  58.905  1.00  0.00    -0.349 N 
ATOM     22  H1  UNL     1      36.519 159.182  59.711  1.00  0.00     0.163 HD
BRANCH  21  23
HETATM   23  C18 UNL     1      36.792 157.420  58.544  1.00  0.00     0.149 C 
HETATM   24  C19 UNL     1      37.594 156.480  59.424  1.00  0.00     0.141 C 
HETATM   25  C20 UNL     1      36.788 155.247  59.353  1.00  0.00     0.263 C 
HETATM   26  O4  UNL     1      37.223 154.077  59.392  1.00  0.00    -0.265 OA
HETATM   27  O5  UNL     1      35.480 155.633  59.236  1.00  0.00    -0.288 OA
HETATM   28  C21 UNL     1      35.358 156.992  58.904  1.00  0.00     0.289 C 
BRANCH  28  29
HETATM   29  O6  UNL     1      34.896 157.684  60.016  1.00  0.00    -0.369 OA
ATOM     30  H6  UNL     1      34.007 157.990  59.881  1.00  0.00     0.212 HD
ENDBRANCH  28  29
ENDBRANCH  21  23
ENDBRANCH  13  19
ENDBRANCH  12  13
ENDBRANCH  10  12
ENDBRANCH   9  10
ENDBRANCH   7   8
ENDBRANCH   5   6
ENDBRANCH   4   5
ENDBRANCH   3   4
TORSDOF 13
ENDMDL
MODEL 5
REMARK VINA RESULT: -7.046267605      2.913      7.835
REMARK  13 active torsions:
REMARK  status: ('A' for Active; 'I' for Inactive)
REMARK    1  A    between atoms: C3_3  and  C4_4 
REMARK    2  A    between atoms: C4_4  and  C5_5 
REMARK    3  A    between atoms: C5_5  and  C6_6 
REMARK    4  A    between atoms: C7_7  and  C8_8 
REMARK    5  A    between atoms: C9_9  and  C10_10 
REMARK    6  A    between atoms: C10_10  and  O2_12 
REMARK    7  A    between atoms: O2_12  and  C11_13 
REMARK    8  A    between atoms: C11_13  and  C12_14 
REMARK    9  A    between atoms: C11_13  and  C17_19 
REMARK   10  A    between atoms: C12_14  and  C13_15 
REMARK   11  A    between atoms: C13_15  and  C14_16 
REMARK       I    between atoms: C17_19  and  N1_21 
REMARK   12  A    between atoms: N1_21  and  C18_23 
REMARK   13  A    between atoms: C21_28  and  O6_29 
ROOT
HETATM    1  C1  UNL     1      42.928 160.709  55.899  1.00  0.00     0.112 C 
HETATM    2  C2  UNL     1      42.425 161.949  56.487  1.00  0.00    -0.110 C 
HETATM    3  C3  UNL     1      42.043 162.958  56.978  1.00  0.00    -0.096 C 
ENDROOT
BRANCH   3   4
HETATM    4  C4  UNL     1      41.597 164.250  57.611  1.00  0.00     0.178 C 
BRANCH   4   5
HETATM    5  C5  UNL     1      40.402 164.344  57.989  1.00  0.00    -0.144 C 
BRANCH   5   6
HETATM    6  C6  UNL     1      39.097 164.436  58.390  1.00  0.00     0.051 C 
HETATM    7  C7  UNL     1      38.330 165.397  57.780  1.00  0.00     0.008 C 
BRANCH   7   8
HETATM    8  C8  UNL     1      36.954 165.553  58.165  1.00  0.00     0.007 C 
HETATM    9  C9  UNL     1      36.033 164.940  57.450  1.00  0.00     0.082 C 
BRANCH   9  10
HETATM   10  C10 UNL     1      34.616 164.956  57.641  1.00  0.00     0.283 C 
HETATM   11  O1  UNL     1      33.997 166.065  57.472  1.00  0.00    -0.260 OA
BRANCH  10  12
HETATM   12  O2  UNL     1      33.807 163.880  58.005  1.00  0.00    -0.303 OA
BRANCH  12  13
HETATM   13  C11 UNL     1      33.780 162.719  57.155  1.00  0.00     0.224 C 
BRANCH  13  14
HETATM   14  C12 UNL     1      32.810 161.707  57.762  1.00  0.00     0.043 C 
BRANCH  14  15
HETATM   15  C13 UNL     1      32.367 160.689  56.756  1.00  0.00     0.007 C 
BRANCH  15  16
HETATM   16  C14 UNL     1      32.143 159.374  57.454  1.00  0.00    -0.023 C 
HETATM   17  C15 UNL     1      30.725 158.904  57.425  1.00  0.00     0.009 C 
HETATM   18  C16 UNL     1      32.622 159.388  58.889  1.00  0.00     0.009 C 
ENDBRANCH  15  16
ENDBRANCH  14  15
ENDBRANCH  13  14
BRANCH  13  19
HETATM   19  C17 UNL     1      35.133 162.157  57.029  1.00  0.00     0.247 C 
HETATM   20  O3  UNL     1      35.830 162.444  56.030  1.00  0.00    -0.271 OA
HETATM   21  N1  UNL     1      35.669 161.288  58.018  1.00  0.00    -0.349 N 
ATOM     22  H1  UNL     1      35.105 161.043  58.831  1.00  0.00     0.163 HD
BRANCH  21  23
HETATM   23  C18 UNL     1      36.992 160.752  57.885  1.00  0.00     0.149 C 
HETATM   24  C19 UNL     1      37.983 161.495  58.760  1.00  0.00     0.141 C 
HETATM   25  C20 UNL     1      39.016 160.465  58.980  1.00  0.00     0.263 C 
HETATM   26  O4  UNL     1      40.241 160.663  59.117  1.00  0.00    -0.265 OA
HETATM   27  O5  UNL     1      38.373 159.256  59.002  1.00  0.00    -0.288 OA
HETATM   28  C21 UNL     1      37.062 159.346  58.505  1.00  0.00     0.289 C 
BRANCH  28  29
HETATM   29  O6  UNL     1      36.174 159.224  59.566  1.00  0.00    -0.369 OA
ATOM     30  H6  UNL     1      36.259 158.376  59.985  1.00  0.00     0.212 HD
ENDBRANCH  28  29
ENDBRANCH  21  23
ENDBRANCH  13  19
ENDBRANCH  12  13
ENDBRANCH  10  12
ENDBRANCH   9  10
ENDBRANCH   7   8
ENDBRANCH   5   6
ENDBRANCH   4   5
ENDBRANCH   3   4
TORSDOF 13
ENDMDL
