MODEL 1
REMARK VINA RESULT: -4.172340971      0.000      0.000
REMARK  2 active torsions:
REMARK  status: ('A' for Active; 'I' for Inactive)
REMARK    1  A    between atoms: N1_2  and  C2_5 
REMARK    2  A    between atoms: C5_8  and  C6_9 
ROOT
HETATM    1  C2  UNL     1       7.403  31.213  20.328  1.00  0.00     0.230 C 
HETATM    2  C3  UNL     1       6.636  31.648  19.113  1.00  0.00     0.040 C 
HETATM    3  C4  UNL     1       5.952  30.472  18.446  1.00  0.00     0.013 C 
HETATM    4  C5  UNL     1       6.829  29.279  18.252  1.00  0.00     0.029 C 
HETATM    5  C7  UNL     1       7.615  28.880  19.485  1.00  0.00     0.064 C 
HETATM    6  C8  UNL     1       7.157  29.782  20.579  1.00  0.00     0.011 C 
HETATM    7  N3  UNL     1       6.600  29.304  21.621  1.00  0.00    -0.404 N 
ATOM      8  H31 UNL     1       6.430  28.313  21.794  1.00  0.00     0.155 HD
ATOM      9  H32 UNL     1       6.287  29.922  22.369  1.00  0.00     0.155 HD
ENDROOT
BRANCH   1  10
HETATM   10  N1  UNL     1       7.187  32.088  21.425  1.00  0.00    -0.070 N 
HETATM   11  C1  UNL     1       6.879  33.412  20.935  1.00  0.00     0.267 C 
ATOM     12  H12 UNL     1       7.974  32.092  22.075  1.00  0.00     0.277 HD
ATOM     13  H11 UNL     1       6.473  31.737  22.063  1.00  0.00     0.277 HD
ENDBRANCH   1  10
BRANCH   4  14
HETATM   14  C6  UNL     1       7.711  29.539  17.097  1.00  0.00     0.057 C 
HETATM   15  N2  UNL     1       8.680  28.777  16.853  1.00  0.00    -0.411 N 
ATOM     16  H22 UNL     1       8.843  27.978  17.466  1.00  0.00     0.155 HD
ATOM     17  H21 UNL     1       9.290  28.957  16.055  1.00  0.00     0.155 HD
ENDBRANCH   4  14
TORSDOF 2
ENDMDL
MODEL 2
REMARK VINA RESULT: -3.781969454      1.946      2.311
REMARK  2 active torsions:
REMARK  status: ('A' for Active; 'I' for Inactive)
REMARK    1  A    between atoms: N1_2  and  C2_5 
REMARK    2  A    between atoms: C5_8  and  C6_9 
ROOT
HETATM    1  C2  UNL     1       7.406  32.042  20.828  1.00  0.00     0.230 C 
HETATM    2  C3  UNL     1       6.617  31.199  19.868  1.00  0.00     0.040 C 
HETATM    3  C4  UNL     1       6.216  29.880  20.497  1.00  0.00     0.013 C 
HETATM    4  C5  UNL     1       7.325  29.172  21.202  1.00  0.00     0.029 C 
HETATM    5  C7  UNL     1       8.125  30.053  22.142  1.00  0.00     0.064 C 
HETATM    6  C8  UNL     1       7.447  31.379  22.144  1.00  0.00     0.011 C 
HETATM    7  N3  UNL     1       6.957  31.853  23.221  1.00  0.00    -0.404 N 
ATOM      8  H31 UNL     1       6.986  31.395  24.131  1.00  0.00     0.155 HD
ATOM      9  H32 UNL     1       6.493  32.762  23.221  1.00  0.00     0.155 HD
ENDROOT
BRANCH   1  10
HETATM   10  N1  UNL     1       6.970  33.393  20.820  1.00  0.00    -0.070 N 
HETATM   11  C1  UNL     1       5.976  33.575  19.787  1.00  0.00     0.267 C 
ATOM     12  H12 UNL     1       7.747  34.048  20.726  1.00  0.00     0.277 HD
ATOM     13  H11 UNL     1       6.634  33.695  21.734  1.00  0.00     0.277 HD
ENDBRANCH   1  10
BRANCH   4  14
HETATM   14  C6  UNL     1       8.183  28.532  20.184  1.00  0.00     0.057 C 
HETATM   15  N2  UNL     1       7.802  28.456  18.989  1.00  0.00    -0.411 N 
ATOM     16  H22 UNL     1       6.893  28.845  18.737  1.00  0.00     0.155 HD
ATOM     17  H21 UNL     1       8.395  28.014  18.286  1.00  0.00     0.155 HD
ENDBRANCH   4  14
TORSDOF 2
ENDMDL
MODEL 3
REMARK VINA RESULT: -3.602257413      1.812      4.250
REMARK  2 active torsions:
REMARK  status: ('A' for Active; 'I' for Inactive)
REMARK    1  A    between atoms: N1_2  and  C2_5 
REMARK    2  A    between atoms: C5_8  and  C6_9 
ROOT
HETATM    1  C2  UNL     1       7.262  30.464  19.024  1.00  0.00     0.230 C 
HETATM    2  C3  UNL     1       7.347  29.378  20.058  1.00  0.00     0.040 C 
HETATM    3  C4  UNL     1       6.571  29.747  21.306  1.00  0.00     0.013 C 
HETATM    4  C5  UNL     1       6.836  31.127  21.810  1.00  0.00     0.029 C 
HETATM    5  C7  UNL     1       6.774  32.200  20.741  1.00  0.00     0.064 C 
HETATM    6  C8  UNL     1       6.341  31.516  19.491  1.00  0.00     0.011 C 
HETATM    7  N3  UNL     1       5.253  31.848  18.916  1.00  0.00    -0.404 N 
ATOM      8  H31 UNL     1       4.616  32.576  19.238  1.00  0.00     0.155 HD
ATOM      9  H32 UNL     1       4.957  31.379  18.060  1.00  0.00     0.155 HD
ENDROOT
BRANCH   1  10
HETATM   10  N1  UNL     1       7.009  29.938  17.730  1.00  0.00    -0.070 N 
HETATM   11  C1  UNL     1       7.803  28.748  17.528  1.00  0.00     0.267 C 
ATOM     12  H12 UNL     1       7.159  30.631  16.996  1.00  0.00     0.277 HD
ATOM     13  H11 UNL     1       6.015  29.769  17.570  1.00  0.00     0.277 HD
ENDBRANCH   1  10
BRANCH   4  14
HETATM   14  C6  UNL     1       8.137  31.120  22.509  1.00  0.00     0.057 C 
HETATM   15  N2  UNL     1       8.334  30.343  23.476  1.00  0.00    -0.411 N 
ATOM     16  H22 UNL     1       7.581  29.720  23.767  1.00  0.00     0.155 HD
ATOM     17  H21 UNL     1       9.233  30.339  23.959  1.00  0.00     0.155 HD
ENDBRANCH   4  14
TORSDOF 2
ENDMDL
MODEL 4
REMARK VINA RESULT: -3.543048925      1.749      3.741
REMARK  2 active torsions:
REMARK  status: ('A' for Active; 'I' for Inactive)
REMARK    1  A    between atoms: N1_2  and  C2_5 
REMARK    2  A    between atoms: C5_8  and  C6_9 
ROOT
HETATM    1  C2  UNL     1       7.009  29.799  19.978  1.00  0.00     0.230 C 
HETATM    2  C3  UNL     1       6.959  30.634  18.731  1.00  0.00     0.040 C 
HETATM    3  C4  UNL     1       7.314  32.079  19.023  1.00  0.00     0.013 C 
HETATM    4  C5  UNL     1       6.611  32.658  20.206  1.00  0.00     0.029 C 
HETATM    5  C7  UNL     1       6.651  31.781  21.442  1.00  0.00     0.064 C 
HETATM    6  C8  UNL     1       7.512  30.616  21.097  1.00  0.00     0.011 C 
HETATM    7  N3  UNL     1       8.587  30.393  21.744  1.00  0.00    -0.404 N 
ATOM      8  H31 UNL     1       8.935  30.959  22.518  1.00  0.00     0.155 HD
ATOM      9  H32 UNL     1       9.178  29.596  21.507  1.00  0.00     0.155 HD
ENDROOT
BRANCH   1  10
HETATM   10  N1  UNL     1       7.673  28.564  19.756  1.00  0.00    -0.070 N 
HETATM   11  C1  UNL     1       7.718  28.287  18.338  1.00  0.00     0.267 C 
ATOM     12  H12 UNL     1       7.252  27.800  20.285  1.00  0.00     0.277 HD
ATOM     13  H11 UNL     1       8.600  28.543  20.182  1.00  0.00     0.277 HD
ENDBRANCH   1  10
BRANCH   4  14
HETATM   14  C6  UNL     1       5.227  32.982  19.805  1.00  0.00     0.057 C 
HETATM   15  N2  UNL     1       4.406  32.064  19.555  1.00  0.00    -0.411 N 
ATOM     16  H22 UNL     1       4.714  31.094  19.635  1.00  0.00     0.155 HD
ATOM     17  H21 UNL     1       3.450  32.288  19.278  1.00  0.00     0.155 HD
ENDBRANCH   4  14
TORSDOF 2
ENDMDL
MODEL 5
REMARK VINA RESULT: -3.266754083      1.487      3.810
REMARK  2 active torsions:
REMARK  status: ('A' for Active; 'I' for Inactive)
REMARK    1  A    between atoms: N1_2  and  C2_5 
REMARK    2  A    between atoms: C5_8  and  C6_9 
ROOT
HETATM    1  C2  UNL     1       6.841  29.247  19.153  1.00  0.00     0.230 C 
HETATM    2  C3  UNL     1       7.149  30.538  18.452  1.00  0.00     0.040 C 
HETATM    3  C4  UNL     1       7.692  31.572  19.418  1.00  0.00     0.013 C 
HETATM    4  C5  UNL     1       6.907  31.704  20.681  1.00  0.00     0.029 C 
HETATM    5  C7  UNL     1       6.584  30.384  21.352  1.00  0.00     0.064 C 
HETATM    6  C8  UNL     1       7.278  29.333  20.557  1.00  0.00     0.011 C 
HETATM    7  N3  UNL     1       8.172  28.601  21.095  1.00  0.00    -0.404 N 
ATOM      8  H31 UNL     1       8.475  28.661  22.067  1.00  0.00     0.155 HD
ATOM      9  H32 UNL     1       8.648  27.882  20.550  1.00  0.00     0.155 HD
ENDROOT
BRANCH   1  10
HETATM   10  N1  UNL     1       7.311  28.126  18.418  1.00  0.00    -0.070 N 
HETATM   11  C1  UNL     1       8.030  28.580  17.250  1.00  0.00     0.267 C 
ATOM     12  H12 UNL     1       6.559  27.479  18.180  1.00  0.00     0.277 HD
ATOM     13  H11 UNL     1       7.870  27.495  18.993  1.00  0.00     0.277 HD
ENDBRANCH   1  10
BRANCH   4  14
HETATM   14  C6  UNL     1       5.689  32.485  20.386  1.00  0.00     0.057 C 
HETATM   15  N2  UNL     1       5.740  33.473  19.611  1.00  0.00    -0.411 N 
ATOM     16  H22 UNL     1       6.636  33.723  19.192  1.00  0.00     0.155 HD
ATOM     17  H21 UNL     1       4.898  34.012  19.408  1.00  0.00     0.155 HD
ENDBRANCH   4  14
TORSDOF 2
ENDMDL
