MODEL 1
REMARK VINA RESULT: -5.716775205      0.000      0.000
REMARK  1 active torsions:
REMARK  status: ('A' for Active; 'I' for Inactive)
REMARK    1  A    between atoms: N1_2  and  N2_3 
REMARK       I    between atoms: N2_3  and  C2_5 
ROOT
HETATM    1  N2  UNL     1       7.464  29.203  22.305  1.00  0.00    -0.137 N 
ATOM      2  H2  UNL     1       6.955  28.365  22.586  1.00  0.00     0.201 HD
HETATM    3  C2  UNL     1       7.394  29.651  20.954  1.00  0.00     0.685 C 
HETATM    4  N3  UNL     1       7.222  30.925  20.912  1.00  0.00    -0.225 N 
ATOM      5  H3  UNL     1       7.170  31.349  21.838  1.00  0.00     0.177 HD
HETATM    6  C3  UNL     1       7.084  31.895  19.839  1.00  0.00     0.138 C 
HETATM    7  C4  UNL     1       6.256  31.247  18.744  1.00  0.00     0.020 C 
HETATM    8  C5  UNL     1       7.189  30.662  17.698  1.00  0.00     0.003 C 
HETATM    9  C6  UNL     1       7.019  29.170  17.626  1.00  0.00     0.020 C 
HETATM   10  C7  UNL     1       7.958  28.518  18.614  1.00  0.00     0.138 C 
HETATM   11  N4  UNL     1       7.526  28.627  19.972  1.00  0.00    -0.225 N 
ATOM     12  H4  UNL     1       7.229  27.722  20.338  1.00  0.00     0.177 HD
ENDROOT
BRANCH   1  13
HETATM   13  N1  UNL     1       8.219  29.897  23.244  1.00  0.00    -0.131 NA
HETATM   14  C1  UNL     1       7.686  31.247  23.466  1.00  0.00     0.159 C 
ENDBRANCH   1  13
TORSDOF 1
ENDMDL
MODEL 2
REMARK VINA RESULT: -5.417190124      1.432      4.071
REMARK  1 active torsions:
REMARK  status: ('A' for Active; 'I' for Inactive)
REMARK    1  A    between atoms: N1_2  and  N2_3 
REMARK       I    between atoms: N2_3  and  C2_5 
ROOT
HETATM    1  N2  UNL     1       8.084  28.540  19.147  1.00  0.00    -0.137 N 
ATOM      2  H2  UNL     1       9.013  28.132  19.245  1.00  0.00     0.201 HD
HETATM    3  C2  UNL     1       7.657  29.550  20.059  1.00  0.00     0.685 C 
HETATM    4  N3  UNL     1       7.078  30.509  19.426  1.00  0.00    -0.225 N 
ATOM      5  H3  UNL     1       7.043  30.355  18.418  1.00  0.00     0.177 HD
HETATM    6  C3  UNL     1       6.463  31.762  19.828  1.00  0.00     0.138 C 
HETATM    7  C4  UNL     1       7.308  32.345  20.946  1.00  0.00     0.020 C 
HETATM    8  C5  UNL     1       6.697  31.958  22.282  1.00  0.00     0.003 C 
HETATM    9  C6  UNL     1       7.657  31.104  23.063  1.00  0.00     0.020 C 
HETATM   10  C7  UNL     1       7.429  29.653  22.706  1.00  0.00     0.138 C 
HETATM   11  N4  UNL     1       7.954  29.290  21.428  1.00  0.00    -0.225 N 
ATOM     12  H4  UNL     1       8.763  28.676  21.521  1.00  0.00     0.177 HD
ENDROOT
BRANCH   1  13
HETATM   13  N1  UNL     1       7.246  28.107  18.126  1.00  0.00    -0.131 NA
HETATM   14  C1  UNL     1       7.825  28.381  16.805  1.00  0.00     0.159 C 
ENDBRANCH   1  13
TORSDOF 1
ENDMDL
MODEL 3
REMARK VINA RESULT: -5.176585120      1.695      4.222
REMARK  1 active torsions:
REMARK  status: ('A' for Active; 'I' for Inactive)
REMARK    1  A    between atoms: N1_2  and  N2_3 
REMARK       I    between atoms: N2_3  and  C2_5 
ROOT
HETATM    1  N2  UNL     1       6.765  28.809  18.524  1.00  0.00    -0.137 N 
ATOM      2  H2  UNL     1       5.850  28.711  18.085  1.00  0.00     0.201 HD
HETATM    3  C2  UNL     1       6.962  29.798  19.531  1.00  0.00     0.685 C 
HETATM    4  N3  UNL     1       7.627  29.306  20.517  1.00  0.00    -0.225 N 
ATOM      5  H3  UNL     1       7.873  28.326  20.380  1.00  0.00     0.177 HD
HETATM    6  C3  UNL     1       8.105  29.836  21.783  1.00  0.00     0.138 C 
HETATM    7  C4  UNL     1       7.030  30.762  22.323  1.00  0.00     0.020 C 
HETATM    8  C5  UNL     1       7.366  32.191  21.934  1.00  0.00     0.003 C 
HETATM    9  C6  UNL     1       6.295  32.752  21.039  1.00  0.00     0.020 C 
HETATM   10  C7  UNL     1       6.639  32.436  19.602  1.00  0.00     0.138 C 
HETATM   11  N4  UNL     1       6.400  31.074  19.242  1.00  0.00    -0.225 N 
ATOM     12  H4  UNL     1       5.609  30.994  18.602  1.00  0.00     0.177 HD
ENDROOT
BRANCH   1  13
HETATM   13  N1  UNL     1       7.809  27.979  18.131  1.00  0.00    -0.131 NA
HETATM   14  C1  UNL     1       8.396  28.421  16.860  1.00  0.00     0.159 C 
ENDBRANCH   1  13
TORSDOF 1
ENDMDL
MODEL 4
REMARK VINA RESULT: -4.469201340      1.665      4.517
REMARK  1 active torsions:
REMARK  status: ('A' for Active; 'I' for Inactive)
REMARK    1  A    between atoms: N1_2  and  N2_3 
REMARK       I    between atoms: N2_3  and  C2_5 
ROOT
HETATM    1  N2  UNL     1       6.841  30.146  18.162  1.00  0.00    -0.137 N 
ATOM      2  H2  UNL     1       5.958  30.500  17.794  1.00  0.00     0.201 HD
HETATM    3  C2  UNL     1       7.172  30.363  19.531  1.00  0.00     0.685 C 
HETATM    4  N3  UNL     1       7.646  29.287  20.053  1.00  0.00    -0.225 N 
ATOM      5  H3  UNL     1       7.688  28.510  19.393  1.00  0.00     0.177 HD
HETATM    6  C3  UNL     1       8.136  28.931  21.374  1.00  0.00     0.138 C 
HETATM    7  C4  UNL     1       7.247  29.625  22.390  1.00  0.00     0.020 C 
HETATM    8  C5  UNL     1       7.907  30.925  22.819  1.00  0.00     0.003 C 
HETATM    9  C6  UNL     1       7.045  32.096  22.434  1.00  0.00     0.020 C 
HETATM   10  C7  UNL     1       7.414  32.541  21.038  1.00  0.00     0.138 C 
HETATM   11  N4  UNL     1       6.916  31.679  20.012  1.00  0.00    -0.225 N 
ATOM     12  H4  UNL     1       6.174  32.131  19.478  1.00  0.00     0.177 HD
ENDROOT
BRANCH   1  13
HETATM   13  N1  UNL     1       7.709  29.456  17.323  1.00  0.00    -0.131 NA
HETATM   14  C1  UNL     1       7.711  28.019  17.620  1.00  0.00     0.159 C 
ENDBRANCH   1  13
TORSDOF 1
ENDMDL
MODEL 5
REMARK VINA RESULT: -4.385280011      8.364      9.324
REMARK  1 active torsions:
REMARK  status: ('A' for Active; 'I' for Inactive)
REMARK    1  A    between atoms: N1_2  and  N2_3 
REMARK       I    between atoms: N2_3  and  C2_5 
ROOT
HETATM    1  N2  UNL     1       9.417  22.167  17.408  1.00  0.00    -0.137 N 
ATOM      2  H2  UNL     1      10.331  21.933  17.796  1.00  0.00     0.201 HD
HETATM    3  C2  UNL     1       9.297  22.475  16.022  1.00  0.00     0.685 C 
HETATM    4  N3  UNL     1       8.272  21.881  15.519  1.00  0.00    -0.225 N 
ATOM      5  H3  UNL     1       7.764  21.320  16.202  1.00  0.00     0.177 HD
HETATM    6  C3  UNL     1       7.679  21.831  14.193  1.00  0.00     0.138 C 
HETATM    7  C4  UNL     1       8.815  21.797  13.188  1.00  0.00     0.020 C 
HETATM    8  C5  UNL     1       9.081  23.209  12.693  1.00  0.00     0.003 C 
HETATM    9  C6  UNL     1      10.473  23.637  13.070  1.00  0.00     0.020 C 
HETATM   10  C7  UNL     1      10.436  24.281  14.437  1.00  0.00     0.138 C 
HETATM   11  N4  UNL     1      10.302  23.344  15.507  1.00  0.00    -0.225 N 
ATOM     12  H4  UNL     1      11.161  23.280  16.053  1.00  0.00     0.177 HD
ENDROOT
BRANCH   1  13
HETATM   13  N1  UNL     1       8.302  22.184  18.238  1.00  0.00    -0.131 NA
HETATM   14  C1  UNL     1       8.688  22.161  19.654  1.00  0.00     0.159 C 
ENDBRANCH   1  13
TORSDOF 1
ENDMDL
