MODEL 1
REMARK VINA RESULT: -3.466881068      0.000      0.000
REMARK  1 active torsions:
REMARK  status: ('A' for Active; 'I' for Inactive)
REMARK    1  A    between atoms: C2_2  and  C3_3 
ROOT
HETATM    1  C1  UNL     1       5.125  31.241  19.558  1.00  0.00     0.040 C 
HETATM    2  C2  UNL     1       6.603  30.935  19.404  1.00  0.00     0.046 C 
HETATM    3  C4  UNL     1       6.992  30.057  20.576  1.00  0.00     0.113 C 
HETATM    4  S2  UNL     1       7.020  31.333  21.901  1.00  0.00    -0.092 SA
HETATM    5  C5  UNL     1       7.230  32.759  20.803  1.00  0.00     0.134 C 
HETATM    6  N1  UNL     1       7.290  34.003  21.135  1.00  0.00    -0.380 N 
ATOM      7  H11 UNL     1       7.409  34.806  20.517  1.00  0.00     0.158 HD
ATOM      8  H12 UNL     1       7.232  34.420  22.065  1.00  0.00     0.158 HD
HETATM    9  N2  UNL     1       7.311  32.180  19.512  1.00  0.00    -0.361 N 
ATOM     10  H2  UNL     1       7.820  32.605  18.737  1.00  0.00     0.162 HD
ENDROOT
BRANCH   2  11
HETATM   11  C3  UNL     1       6.907  30.270  18.095  1.00  0.00     0.117 C 
HETATM   12  S1  UNL     1       7.526  28.598  18.387  1.00  0.00    -0.095 SA
ENDBRANCH   2  11
TORSDOF 1
ENDMDL
MODEL 2
REMARK VINA RESULT: -2.965011437      1.203      1.292
REMARK  1 active torsions:
REMARK  status: ('A' for Active; 'I' for Inactive)
REMARK    1  A    between atoms: C2_2  and  C3_3 
ROOT
HETATM    1  C1  UNL     1       5.575  29.925  20.559  1.00  0.00     0.040 C 
HETATM    2  C2  UNL     1       7.084  29.923  20.397  1.00  0.00     0.046 C 
HETATM    3  C4  UNL     1       7.670  29.630  21.763  1.00  0.00     0.113 C 
HETATM    4  S2  UNL     1       7.391  31.264  22.558  1.00  0.00    -0.092 SA
HETATM    5  C5  UNL     1       7.256  32.215  21.023  1.00  0.00     0.134 C 
HETATM    6  N1  UNL     1       7.017  33.477  20.899  1.00  0.00    -0.380 N 
ATOM      7  H11 UNL     1       6.940  34.012  20.034  1.00  0.00     0.158 HD
ATOM      8  H12 UNL     1       6.860  34.172  21.629  1.00  0.00     0.158 HD
HETATM    9  N2  UNL     1       7.473  31.249  20.009  1.00  0.00    -0.361 N 
ATOM     10  H2  UNL     1       7.868  31.475  19.095  1.00  0.00     0.162 HD
ENDROOT
BRANCH   2  11
HETATM   11  C3  UNL     1       7.539  28.922  19.377  1.00  0.00     0.117 C 
HETATM   12  S1  UNL     1       7.226  29.556  17.714  1.00  0.00    -0.095 SA
ENDBRANCH   2  11
TORSDOF 1
ENDMDL
MODEL 3
REMARK VINA RESULT: -2.678519700      2.600      3.472
REMARK  1 active torsions:
REMARK  status: ('A' for Active; 'I' for Inactive)
REMARK    1  A    between atoms: C2_2  and  C3_3 
ROOT
HETATM    1  C1  UNL     1       8.646  32.159  20.918  1.00  0.00     0.040 C 
HETATM    2  C2  UNL     1       7.200  31.777  21.171  1.00  0.00     0.046 C 
HETATM    3  C4  UNL     1       7.023  31.705  22.675  1.00  0.00     0.113 C 
HETATM    4  S2  UNL     1       7.883  30.111  22.994  1.00  0.00    -0.092 SA
HETATM    5  C5  UNL     1       7.731  29.459  21.312  1.00  0.00     0.134 C 
HETATM    6  N1  UNL     1       8.184  28.339  20.859  1.00  0.00    -0.380 N 
ATOM      7  H11 UNL     1       8.098  27.972  19.911  1.00  0.00     0.158 HD
ATOM      8  H12 UNL     1       8.708  27.616  21.353  1.00  0.00     0.158 HD
HETATM    9  N2  UNL     1       7.003  30.463  20.626  1.00  0.00    -0.361 N 
ATOM     10  H2  UNL     1       6.400  30.272  19.826  1.00  0.00     0.162 HD
ENDROOT
BRANCH   2  11
HETATM   11  C3  UNL     1       6.244  32.752  20.552  1.00  0.00     0.117 C 
HETATM   12  S1  UNL     1       5.175  31.897  19.372  1.00  0.00    -0.095 SA
ENDBRANCH   2  11
TORSDOF 1
ENDMDL
MODEL 4
REMARK VINA RESULT: -2.673822885      1.829      3.320
REMARK  1 active torsions:
REMARK  status: ('A' for Active; 'I' for Inactive)
REMARK    1  A    between atoms: C2_2  and  C3_3 
ROOT
HETATM    1  C1  UNL     1       5.070  31.018  19.726  1.00  0.00     0.040 C 
HETATM    2  C2  UNL     1       6.515  31.418  19.496  1.00  0.00     0.046 C 
HETATM    3  C4  UNL     1       7.001  30.628  18.297  1.00  0.00     0.113 C 
HETATM    4  S2  UNL     1       7.201  28.983  19.093  1.00  0.00    -0.092 SA
HETATM    5  C5  UNL     1       7.333  29.595  20.792  1.00  0.00     0.134 C 
HETATM    6  N1  UNL     1       7.461  28.899  21.870  1.00  0.00    -0.380 N 
ATOM      7  H11 UNL     1       7.535  29.244  22.828  1.00  0.00     0.158 HD
ATOM      8  H12 UNL     1       7.512  27.885  21.974  1.00  0.00     0.158 HD
HETATM    9  N2  UNL     1       7.263  31.003  20.648  1.00  0.00    -0.361 N 
ATOM     10  H2  UNL     1       7.699  31.656  21.299  1.00  0.00     0.162 HD
ENDROOT
BRANCH   2  11
HETATM   11  C3  UNL     1       6.661  32.894  19.277  1.00  0.00     0.117 C 
HETATM   12  S1  UNL     1       7.090  33.705  20.833  1.00  0.00    -0.095 SA
ENDBRANCH   2  11
TORSDOF 1
ENDMDL
MODEL 5
REMARK VINA RESULT: -2.671938020      1.380      1.380
REMARK  1 active torsions:
REMARK  status: ('A' for Active; 'I' for Inactive)
REMARK    1  A    between atoms: C2_2  and  C3_3 
ROOT
HETATM    1  C1  UNL     1       5.417  30.905  19.876  1.00  0.00     0.040 C 
HETATM    2  C2  UNL     1       6.898  30.721  19.607  1.00  0.00     0.046 C 
HETATM    3  C4  UNL     1       7.253  29.317  20.054  1.00  0.00     0.113 C 
HETATM    4  S2  UNL     1       7.242  29.577  21.874  1.00  0.00    -0.092 SA
HETATM    5  C5  UNL     1       7.485  31.371  21.823  1.00  0.00     0.134 C 
HETATM    6  N1  UNL     1       7.536  32.185  22.822  1.00  0.00    -0.380 N 
ATOM      7  H11 UNL     1       7.673  33.196  22.792  1.00  0.00     0.158 HD
ATOM      8  H12 UNL     1       7.451  31.981  23.818  1.00  0.00     0.158 HD
HETATM    9  N2  UNL     1       7.603  31.655  20.439  1.00  0.00    -0.361 N 
ATOM     10  H2  UNL     1       8.135  32.444  20.072  1.00  0.00     0.162 HD
ENDROOT
BRANCH   2  11
HETATM   11  C3  UNL     1       7.240  30.941  18.164  1.00  0.00     0.117 C 
HETATM   12  S1  UNL     1       7.622  29.361  17.377  1.00  0.00    -0.095 SA
ENDBRANCH   2  11
TORSDOF 1
ENDMDL
