MODEL 1
REMARK VINA RESULT: -3.426367919      0.000      0.000
REMARK  2 active torsions:
REMARK  status: ('A' for Active; 'I' for Inactive)
REMARK    1  A    between atoms: C2_2  and  C3_3 
REMARK    2  A    between atoms: C3_3  and  O1_4 
ROOT
HETATM    1  C3  UNL     1       6.913  30.321  20.046  1.00  0.00     0.258 C 
HETATM    2  N1  UNL     1       8.004  30.279  20.982  1.00  0.00    -0.017 N 
ATOM      3  H11 UNL     1       8.912  30.551  20.606  1.00  0.00     0.282 HD
ATOM      4  H12 UNL     1       8.299  29.346  21.267  1.00  0.00     0.282 HD
HETATM    5  C4  UNL     1       7.489  31.133  22.060  1.00  0.00     0.467 C 
HETATM    6  N2  UNL     1       6.752  32.185  21.413  1.00  0.00    -0.038 N 
ATOM      7  H21 UNL     1       7.273  33.061  21.363  1.00  0.00     0.280 HD
ATOM      8  H22 UNL     1       5.970  32.524  21.973  1.00  0.00     0.280 HD
HETATM    9  C5  UNL     1       6.345  31.703  20.115  1.00  0.00     0.177 C 
HETATM   10  C6  UNL     1       6.811  32.597  18.993  1.00  0.00     0.051 C 
HETATM   11  C7  UNL     1       4.830  31.660  20.102  1.00  0.00     0.051 C 
ENDROOT
BRANCH   1  12
HETATM   12  C2  UNL     1       7.388  29.941  18.666  1.00  0.00     0.067 C 
HETATM   13  C1  UNL     1       7.438  28.429  18.576  1.00  0.00     0.010 C 
ENDBRANCH   1  12
BRANCH   1  14
HETATM   14  O1  UNL     1       5.931  29.432  20.518  1.00  0.00    -0.363 OA
ATOM     15  H1  UNL     1       5.305  29.211  19.838  1.00  0.00     0.212 HD
ENDBRANCH   1  14
TORSDOF 2
ENDMDL
MODEL 2
REMARK VINA RESULT: -3.331995111      1.626      2.374
REMARK  2 active torsions:
REMARK  status: ('A' for Active; 'I' for Inactive)
REMARK    1  A    between atoms: C2_2  and  C3_3 
REMARK    2  A    between atoms: C3_3  and  O1_4 
ROOT
HETATM    1  C3  UNL     1       6.825  31.521  20.932  1.00  0.00     0.258 C 
HETATM    2  N1  UNL     1       7.904  32.454  21.112  1.00  0.00    -0.017 N 
ATOM      3  H11 UNL     1       8.814  32.139  20.776  1.00  0.00     0.282 HD
ATOM      4  H12 UNL     1       8.206  32.591  22.076  1.00  0.00     0.282 HD
HETATM    5  C4  UNL     1       7.366  33.646  20.446  1.00  0.00     0.467 C 
HETATM    6  N2  UNL     1       6.626  33.165  19.310  1.00  0.00    -0.038 N 
ATOM      7  H21 UNL     1       7.138  33.263  18.433  1.00  0.00     0.280 HD
ATOM      8  H22 UNL     1       5.834  33.761  19.072  1.00  0.00     0.280 HD
HETATM    9  C5  UNL     1       6.241  31.802  19.583  1.00  0.00     0.177 C 
HETATM   10  C6  UNL     1       6.711  30.843  18.517  1.00  0.00     0.051 C 
HETATM   11  C7  UNL     1       4.727  31.761  19.637  1.00  0.00     0.051 C 
ENDROOT
BRANCH   1  12
HETATM   12  C2  UNL     1       7.321  30.106  21.082  1.00  0.00     0.067 C 
HETATM   13  C1  UNL     1       7.925  29.954  22.463  1.00  0.00     0.010 C 
ENDBRANCH   1  12
BRANCH   1  14
HETATM   14  O1  UNL     1       5.847  31.831  21.892  1.00  0.00    -0.363 OA
ATOM     15  H1  UNL     1       5.692  32.767  21.944  1.00  0.00     0.212 HD
ENDBRANCH   1  14
TORSDOF 2
ENDMDL
MODEL 3
REMARK VINA RESULT: -3.318645871      1.573      3.038
REMARK  2 active torsions:
REMARK  status: ('A' for Active; 'I' for Inactive)
REMARK    1  A    between atoms: C2_2  and  C3_3 
REMARK    2  A    between atoms: C3_3  and  O1_4 
ROOT
HETATM    1  C3  UNL     1       7.116  30.869  20.836  1.00  0.00     0.258 C 
HETATM    2  N1  UNL     1       7.102  29.433  20.763  1.00  0.00    -0.017 N 
ATOM      3  H11 UNL     1       6.266  28.985  21.136  1.00  0.00     0.282 HD
ATOM      4  H12 UNL     1       7.748  28.958  21.393  1.00  0.00     0.282 HD
HETATM    5  C4  UNL     1       7.347  29.217  19.332  1.00  0.00     0.467 C 
HETATM    6  N2  UNL     1       6.645  30.270  18.647  1.00  0.00    -0.038 N 
ATOM      7  H21 UNL     1       5.760  29.961  18.245  1.00  0.00     0.280 HD
ATOM      8  H22 UNL     1       7.099  30.548  17.778  1.00  0.00     0.280 HD
HETATM    9  C5  UNL     1       6.487  31.365  19.573  1.00  0.00     0.177 C 
HETATM   10  C6  UNL     1       5.045  31.774  19.744  1.00  0.00     0.051 C 
HETATM   11  C7  UNL     1       7.260  32.544  19.018  1.00  0.00     0.051 C 
ENDROOT
BRANCH   1  12
HETATM   12  C2  UNL     1       6.406  31.340  22.079  1.00  0.00     0.067 C 
HETATM   13  C1  UNL     1       7.404  31.367  23.220  1.00  0.00     0.010 C 
ENDBRANCH   1  12
BRANCH   1  14
HETATM   14  O1  UNL     1       8.463  31.270  20.827  1.00  0.00    -0.363 OA
ATOM     15  H1  UNL     1       9.018  30.642  21.276  1.00  0.00     0.212 HD
ENDBRANCH   1  14
TORSDOF 2
ENDMDL
MODEL 4
REMARK VINA RESULT: -3.163473739      1.686      2.591
REMARK  2 active torsions:
REMARK  status: ('A' for Active; 'I' for Inactive)
REMARK    1  A    between atoms: C2_2  and  C3_3 
REMARK    2  A    between atoms: C3_3  and  O1_4 
ROOT
HETATM    1  C3  UNL     1       6.675  31.026  19.938  1.00  0.00     0.258 C 
HETATM    2  N1  UNL     1       5.349  31.487  19.627  1.00  0.00    -0.017 N 
ATOM      3  H11 UNL     1       4.596  31.032  20.142  1.00  0.00     0.282 HD
ATOM      4  H12 UNL     1       5.000  31.225  18.705  1.00  0.00     0.282 HD
HETATM    5  C4  UNL     1       5.487  32.930  19.859  1.00  0.00     0.467 C 
HETATM    6  N2  UNL     1       6.365  33.066  20.991  1.00  0.00    -0.038 N 
ATOM      7  H21 UNL     1       5.866  33.270  21.857  1.00  0.00     0.280 HD
ATOM      8  H22 UNL     1       6.927  33.916  20.955  1.00  0.00     0.280 HD
HETATM    9  C5  UNL     1       7.164  31.868  21.073  1.00  0.00     0.177 C 
HETATM   10  C6  UNL     1       7.049  31.187  22.415  1.00  0.00     0.051 C 
HETATM   11  C7  UNL     1       8.608  32.271  20.857  1.00  0.00     0.051 C 
ENDROOT
BRANCH   1  12
HETATM   12  C2  UNL     1       6.659  29.552  20.255  1.00  0.00     0.067 C 
HETATM   13  C1  UNL     1       7.400  28.818  19.155  1.00  0.00     0.010 C 
ENDBRANCH   1  12
BRANCH   1  14
HETATM   14  O1  UNL     1       7.482  31.306  18.821  1.00  0.00    -0.363 OA
ATOM     15  H1  UNL     1       7.908  32.151  18.902  1.00  0.00     0.212 HD
ENDBRANCH   1  14
TORSDOF 2
ENDMDL
MODEL 5
REMARK VINA RESULT: -3.024790656      1.032      1.039
REMARK  2 active torsions:
REMARK  status: ('A' for Active; 'I' for Inactive)
REMARK    1  A    between atoms: C2_2  and  C3_3 
REMARK    2  A    between atoms: C3_3  and  O1_4 
ROOT
HETATM    1  C3  UNL     1       7.006  29.884  20.278  1.00  0.00     0.258 C 
HETATM    2  N1  UNL     1       8.039  29.167  20.975  1.00  0.00    -0.017 N 
ATOM      3  H11 UNL     1       8.970  29.231  20.562  1.00  0.00     0.282 HD
ATOM      4  H12 UNL     1       7.983  28.150  20.913  1.00  0.00     0.282 HD
HETATM    5  C4  UNL     1       7.911  29.722  22.327  1.00  0.00     0.467 C 
HETATM    6  N2  UNL     1       7.588  31.113  22.155  1.00  0.00    -0.038 N 
ATOM      7  H21 UNL     1       8.391  31.727  22.294  1.00  0.00     0.280 HD
ATOM      8  H22 UNL     1       7.005  31.481  22.906  1.00  0.00     0.280 HD
HETATM    9  C5  UNL     1       6.986  31.265  20.852  1.00  0.00     0.177 C 
HETATM   10  C6  UNL     1       7.706  32.278  19.997  1.00  0.00     0.051 C 
HETATM   11  C7  UNL     1       5.561  31.736  21.063  1.00  0.00     0.051 C 
ENDROOT
BRANCH   1  12
HETATM   12  C2  UNL     1       7.259  29.862  18.792  1.00  0.00     0.067 C 
HETATM   13  C1  UNL     1       7.560  28.435  18.379  1.00  0.00     0.010 C 
ENDBRANCH   1  12
BRANCH   1  14
HETATM   14  O1  UNL     1       5.785  29.269  20.604  1.00  0.00    -0.363 OA
ATOM     15  H1  UNL     1       5.111  29.472  19.966  1.00  0.00     0.212 HD
ENDBRANCH   1  14
TORSDOF 2
ENDMDL
