MODEL 1
REMARK VINA RESULT: -7.123816915      0.000      0.000
REMARK  17 active torsions:
REMARK  status: ('A' for Active; 'I' for Inactive)
REMARK    1  A    between atoms: C5_11  and  N3_12 
REMARK    2  A    between atoms: C6_19  and  O1_20 
REMARK    3  A    between atoms: C8_24  and  N6_25 
REMARK    4  A    between atoms: C9_29  and  O2_30 
REMARK    5  A    between atoms: O2_30  and  C10_31 
REMARK    6  A    between atoms: C10_31  and  C11_33 
REMARK    7  A    between atoms: C11_33  and  O4_34 
REMARK    8  A    between atoms: C11_33  and  C12_36 
REMARK    9  A    between atoms: C12_36  and  C13_37 
REMARK   10  A    between atoms: C13_37  and  O5_38 
REMARK   11  A    between atoms: C13_37  and  C14_40 
REMARK   12  A    between atoms: C14_40  and  O6_41 
REMARK   13  A    between atoms: C14_40  and  C15_43 
REMARK   14  A    between atoms: C15_43  and  O7_44 
REMARK   15  A    between atoms: N7_46  and  N8_47 
REMARK       I    between atoms: N8_47  and  C16_49 
REMARK   16  A    between atoms: C16_49  and  C17_51 
REMARK   17  A    between atoms: C17_51  and  N9_53 
ROOT
HETATM    1  C1  UNL     1      14.478  14.177  38.277  1.00  0.00     0.146 C 
HETATM    2  N1  UNL     1      13.138  14.613  38.567  1.00  0.00    -0.389 N 
ATOM      3  H1  UNL     1      12.327  14.062  38.287  1.00  0.00     0.159 HD
HETATM    4  C2  UNL     1      13.013  15.699  39.178  1.00  0.00     0.090 C 
HETATM    5  S1  UNL     1      14.401  16.737  39.709  1.00  0.00    -0.109 SA
HETATM    6  C3  UNL     1      13.694  17.908  40.912  1.00  0.00     0.135 C 
HETATM    7  C4  UNL     1      12.567  17.283  41.613  1.00  0.00     0.301 C 
HETATM    8  N2  UNL     1      11.726  18.246  42.350  1.00  0.00     0.000 N 
ATOM      9  H21 UNL     1      11.145  18.833  41.751  1.00  0.00     0.284 HD
ATOM     10  H22 UNL     1      12.248  19.006  42.785  1.00  0.00     0.284 HD
HETATM   11  C5  UNL     1      10.964  17.422  43.300  1.00  0.00     0.584 C 
HETATM   12  N4  UNL     1      10.118  16.447  42.602  1.00  0.00     0.023 N 
ATOM     13  H41 UNL     1       9.379  16.877  42.046  1.00  0.00     0.287 HD
ATOM     14  H42 UNL     1       9.512  15.916  43.228  1.00  0.00     0.287 HD
HETATM   15  C6  UNL     1      11.026  15.597  41.808  1.00  0.00     0.432 C 
HETATM   16  N5  UNL     1      11.668  16.473  40.911  1.00  0.00    -0.306 N 
HETATM   17  C7  UNL     1      11.690  16.325  39.571  1.00  0.00     0.191 C 
HETATM   18  C8  UNL     1      11.630  17.661  38.809  1.00  0.00     0.280 C 
HETATM   19  C9  UNL     1      11.060  16.756  37.702  1.00  0.00     0.263 C 
HETATM   20  N7  UNL     1      10.657  15.854  38.774  1.00  0.00    -0.159 NA
ENDROOT
BRANCH  18  21
HETATM   21  N6  UNL     1      10.707  18.623  39.325  1.00  0.00    -0.067 N 
ATOM     22  H63 UNL     1      10.871  18.766  40.321  1.00  0.00     0.275 HD
ATOM     23  H62 UNL     1      10.936  19.551  38.968  1.00  0.00     0.275 HD
ATOM     24  H61 UNL     1       9.721  18.419  39.160  1.00  0.00     0.275 HD
ENDBRANCH  18  21
BRANCH  20  25
HETATM   25  N8  UNL     1       9.336  16.053  39.054  1.00  0.00    -0.282 N 
HETATM   26  C16 UNL     1       8.468  14.911  39.070  1.00  0.00     0.262 C 
HETATM   27  O8  UNL     1       8.890  13.749  38.835  1.00  0.00    -0.270 OA
ATOM     28  H8  UNL     1       8.976  16.988  39.248  1.00  0.00     0.184 HD
BRANCH  26  29
HETATM   29  C17 UNL     1       7.013  15.024  39.363  1.00  0.00     0.272 C 
HETATM   30  C18 UNL     1       6.814  14.634  40.834  1.00  0.00     0.050 C 
BRANCH  29  31
HETATM   31  N9  UNL     1       6.520  16.365  39.130  1.00  0.00    -0.067 N 
ATOM     32  H93 UNL     1       7.287  17.028  39.017  1.00  0.00     0.275 HD
ATOM     33  H92 UNL     1       6.097  16.451  38.206  1.00  0.00     0.275 HD
ATOM     34  H91 UNL     1       5.877  16.665  39.863  1.00  0.00     0.275 HD
ENDBRANCH  29  31
ENDBRANCH  26  29
ENDBRANCH  20  25
BRANCH  15  35
HETATM   35  O1  UNL     1      10.458  14.465  41.340  1.00  0.00    -0.354 OA
ATOM     36  H1  UNL     1      11.025  13.946  40.782  1.00  0.00     0.213 HD
ENDBRANCH  15  35
BRANCH  19  37
HETATM   37  O2  UNL     1       9.992  17.480  37.099  1.00  0.00    -0.295 OA
BRANCH  37  38
HETATM   38  C10 UNL     1       9.701  17.244  35.775  1.00  0.00     0.289 C 
HETATM   39  O3  UNL     1      10.656  17.119  34.959  1.00  0.00    -0.262 OA
BRANCH  38  40
HETATM   40  C11 UNL     1       8.299  17.140  35.315  1.00  0.00     0.220 C 
BRANCH  40  41
HETATM   41  O4  UNL     1       7.470  16.946  36.426  1.00  0.00    -0.385 OA
ATOM     42  H4  UNL     1       7.238  17.792  36.789  1.00  0.00     0.210 HD
ENDBRANCH  40  41
BRANCH  40  43
HETATM   43  C12 UNL     1       7.874  18.361  34.528  1.00  0.00     0.076 C 
BRANCH  43  44
HETATM   44  C13 UNL     1       7.821  18.072  33.053  1.00  0.00     0.151 C 
BRANCH  44  45
HETATM   45  O5  UNL     1       8.517  16.876  32.826  1.00  0.00    -0.393 OA
ATOM     46  H5  UNL     1       7.940  16.157  33.055  1.00  0.00     0.210 HD
ENDBRANCH  44  45
BRANCH  44  47
HETATM   47  C14 UNL     1       8.396  19.193  32.214  1.00  0.00     0.170 C 
BRANCH  47  48
HETATM   48  O6  UNL     1       8.826  20.252  33.042  1.00  0.00    -0.391 OA
ATOM     49  H6  UNL     1       8.356  21.049  32.828  1.00  0.00     0.210 HD
ENDBRANCH  47  48
BRANCH  47  50
HETATM   50  C15 UNL     1       9.666  18.691  31.537  1.00  0.00     0.198 C 
BRANCH  50  51
HETATM   51  O7  UNL     1      10.755  18.918  32.343  1.00  0.00    -0.398 OA
ATOM     52  H7  UNL     1      11.537  19.031  31.814  1.00  0.00     0.209 HD
ENDBRANCH  50  51
ENDBRANCH  47  50
ENDBRANCH  44  47
ENDBRANCH  43  44
ENDBRANCH  40  43
ENDBRANCH  38  40
ENDBRANCH  37  38
ENDBRANCH  19  37
BRANCH  11  53
HETATM   53  N3  UNL     1      10.187  18.305  44.111  1.00  0.00    -0.025 N 
ATOM     54  H33 UNL     1      10.275  18.108  45.108  1.00  0.00     0.278 HD
ATOM     55  H32 UNL     1      10.556  19.256  44.130  1.00  0.00     0.278 HD
ATOM     56  H31 UNL     1       9.223  18.260  43.780  1.00  0.00     0.278 HD
ENDBRANCH  11  53
TORSDOF 17
ENDMDL
MODEL 2
REMARK VINA RESULT: -7.026789778      3.534      6.632
REMARK  17 active torsions:
REMARK  status: ('A' for Active; 'I' for Inactive)
REMARK    1  A    between atoms: C5_11  and  N3_12 
REMARK    2  A    between atoms: C6_19  and  O1_20 
REMARK    3  A    between atoms: C8_24  and  N6_25 
REMARK    4  A    between atoms: C9_29  and  O2_30 
REMARK    5  A    between atoms: O2_30  and  C10_31 
REMARK    6  A    between atoms: C10_31  and  C11_33 
REMARK    7  A    between atoms: C11_33  and  O4_34 
REMARK    8  A    between atoms: C11_33  and  C12_36 
REMARK    9  A    between atoms: C12_36  and  C13_37 
REMARK   10  A    between atoms: C13_37  and  O5_38 
REMARK   11  A    between atoms: C13_37  and  C14_40 
REMARK   12  A    between atoms: C14_40  and  O6_41 
REMARK   13  A    between atoms: C14_40  and  C15_43 
REMARK   14  A    between atoms: C15_43  and  O7_44 
REMARK   15  A    between atoms: N7_46  and  N8_47 
REMARK       I    between atoms: N8_47  and  C16_49 
REMARK   16  A    between atoms: C16_49  and  C17_51 
REMARK   17  A    between atoms: C17_51  and  N9_53 
ROOT
HETATM    1  C1  UNL     1       7.268  16.557  36.040  1.00  0.00     0.146 C 
HETATM    2  N1  UNL     1       8.285  16.635  37.054  1.00  0.00    -0.389 N 
ATOM      3  H1  UNL     1       9.017  17.344  37.019  1.00  0.00     0.159 HD
HETATM    4  C2  UNL     1       8.232  15.793  37.980  1.00  0.00     0.090 C 
HETATM    5  S1  UNL     1       6.965  14.502  38.114  1.00  0.00    -0.109 SA
HETATM    6  C3  UNL     1       7.085  13.887  39.824  1.00  0.00     0.135 C 
HETATM    7  C4  UNL     1       7.534  14.965  40.712  1.00  0.00     0.301 C 
HETATM    8  N2  UNL     1       7.983  14.489  42.035  1.00  0.00     0.000 N 
ATOM      9  H21 UNL     1       8.881  14.005  42.019  1.00  0.00     0.284 HD
ATOM     10  H22 UNL     1       7.438  13.710  42.403  1.00  0.00     0.284 HD
HETATM   11  C5  UNL     1       7.964  15.687  42.886  1.00  0.00     0.584 C 
HETATM   12  N4  UNL     1       8.884  16.715  42.383  1.00  0.00     0.023 N 
ATOM     13  H41 UNL     1       9.864  16.435  42.423  1.00  0.00     0.287 HD
ATOM     14  H42 UNL     1       8.959  17.526  42.997  1.00  0.00     0.287 HD
HETATM   15  C6  UNL     1       8.429  17.053  41.021  1.00  0.00     0.432 C 
HETATM   16  N5  UNL     1       8.526  15.855  40.286  1.00  0.00    -0.306 N 
HETATM   17  C7  UNL     1       9.210  15.710  39.133  1.00  0.00     0.191 C 
HETATM   18  C8  UNL     1       9.887  14.336  38.995  1.00  0.00     0.280 C 
HETATM   19  C9  UNL     1      10.812  15.126  38.053  1.00  0.00     0.263 C 
HETATM   20  N7  UNL     1      10.419  16.309  38.809  1.00  0.00    -0.159 NA
ENDROOT
BRANCH  18  21
HETATM   21  N6  UNL     1      10.524  13.841  40.176  1.00  0.00    -0.067 N 
ATOM     22  H63 UNL     1      11.471  13.530  39.958  1.00  0.00     0.275 HD
ATOM     23  H62 UNL     1      10.729  14.612  40.811  1.00  0.00     0.275 HD
ATOM     24  H61 UNL     1      10.021  13.104  40.671  1.00  0.00     0.275 HD
ENDBRANCH  18  21
BRANCH  20  25
HETATM   25  N8  UNL     1      11.388  16.599  39.725  1.00  0.00    -0.282 N 
HETATM   26  C16 UNL     1      11.923  17.930  39.747  1.00  0.00     0.262 C 
HETATM   27  O8  UNL     1      11.525  18.822  38.954  1.00  0.00    -0.270 OA
ATOM     28  H8  UNL     1      11.723  15.888  40.376  1.00  0.00     0.184 HD
BRANCH  26  29
HETATM   29  C17 UNL     1      12.984  18.344  40.706  1.00  0.00     0.272 C 
HETATM   30  C18 UNL     1      12.411  18.169  42.120  1.00  0.00     0.050 C 
BRANCH  29  31
HETATM   31  N9  UNL     1      14.186  17.552  40.552  1.00  0.00    -0.067 N 
ATOM     32  H93 UNL     1      14.740  17.869  39.758  1.00  0.00     0.275 HD
ATOM     33  H92 UNL     1      14.854  17.742  41.300  1.00  0.00     0.275 HD
ATOM     34  H91 UNL     1      13.978  16.556  40.486  1.00  0.00     0.275 HD
ENDBRANCH  29  31
ENDBRANCH  26  29
ENDBRANCH  20  25
BRANCH  15  35
HETATM   35  O1  UNL     1       8.969  18.185  40.521  1.00  0.00    -0.354 OA
ATOM     36  H1  UNL     1       9.877  18.101  40.258  1.00  0.00     0.213 HD
ENDBRANCH  15  35
BRANCH  19  37
HETATM   37  O2  UNL     1      12.136  14.669  38.309  1.00  0.00    -0.295 OA
BRANCH  37  38
HETATM   38  C10 UNL     1      13.086  14.815  37.324  1.00  0.00     0.289 C 
HETATM   39  O3  UNL     1      12.833  14.371  36.169  1.00  0.00    -0.262 OA
BRANCH  38  40
HETATM   40  C11 UNL     1      14.378  15.476  37.609  1.00  0.00     0.220 C 
BRANCH  40  41
HETATM   41  O4  UNL     1      14.684  15.307  38.965  1.00  0.00    -0.385 OA
ATOM     42  H4  UNL     1      15.627  15.338  39.074  1.00  0.00     0.210 HD
ENDBRANCH  40  41
BRANCH  40  43
HETATM   43  C12 UNL     1      15.488  14.941  36.732  1.00  0.00     0.076 C 
BRANCH  43  44
HETATM   44  C13 UNL     1      15.856  13.532  37.110  1.00  0.00     0.151 C 
BRANCH  44  45
HETATM   45  O5  UNL     1      16.630  13.591  38.278  1.00  0.00    -0.393 OA
ATOM     46  H5  UNL     1      16.202  14.188  38.881  1.00  0.00     0.210 HD
ENDBRANCH  44  45
BRANCH  44  47
HETATM   47  C14 UNL     1      16.601  12.804  36.012  1.00  0.00     0.170 C 
BRANCH  47  48
HETATM   48  O6  UNL     1      17.746  13.535  35.630  1.00  0.00    -0.391 OA
ATOM     49  H6  UNL     1      18.472  12.947  35.464  1.00  0.00     0.210 HD
ENDBRANCH  47  48
BRANCH  47  50
HETATM   50  C15 UNL     1      17.145  11.498  36.577  1.00  0.00     0.198 C 
BRANCH  50  51
HETATM   51  O7  UNL     1      18.471  11.640  36.907  1.00  0.00    -0.398 OA
ATOM     52  H7  UNL     1      18.615  11.379  37.809  1.00  0.00     0.209 HD
ENDBRANCH  50  51
ENDBRANCH  47  50
ENDBRANCH  44  47
ENDBRANCH  43  44
ENDBRANCH  40  43
ENDBRANCH  38  40
ENDBRANCH  37  38
ENDBRANCH  19  37
BRANCH  11  53
HETATM   53  N3  UNL     1       8.307  15.280  44.212  1.00  0.00    -0.025 N 
ATOM     54  H33 UNL     1       7.948  15.914  44.927  1.00  0.00     0.278 HD
ATOM     55  H32 UNL     1       7.808  14.443  44.513  1.00  0.00     0.278 HD
ATOM     56  H31 UNL     1       9.321  15.173  44.250  1.00  0.00     0.278 HD
ENDBRANCH  11  53
TORSDOF 17
ENDMDL
MODEL 3
REMARK VINA RESULT: -7.015600386      1.298      1.869
REMARK  17 active torsions:
REMARK  status: ('A' for Active; 'I' for Inactive)
REMARK    1  A    between atoms: C5_11  and  N3_12 
REMARK    2  A    between atoms: C6_19  and  O1_20 
REMARK    3  A    between atoms: C8_24  and  N6_25 
REMARK    4  A    between atoms: C9_29  and  O2_30 
REMARK    5  A    between atoms: O2_30  and  C10_31 
REMARK    6  A    between atoms: C10_31  and  C11_33 
REMARK    7  A    between atoms: C11_33  and  O4_34 
REMARK    8  A    between atoms: C11_33  and  C12_36 
REMARK    9  A    between atoms: C12_36  and  C13_37 
REMARK   10  A    between atoms: C13_37  and  O5_38 
REMARK   11  A    between atoms: C13_37  and  C14_40 
REMARK   12  A    between atoms: C14_40  and  O6_41 
REMARK   13  A    between atoms: C14_40  and  C15_43 
REMARK   14  A    between atoms: C15_43  and  O7_44 
REMARK   15  A    between atoms: N7_46  and  N8_47 
REMARK       I    between atoms: N8_47  and  C16_49 
REMARK   16  A    between atoms: C16_49  and  C17_51 
REMARK   17  A    between atoms: C17_51  and  N9_53 
ROOT
HETATM    1  C1  UNL     1      14.501  14.195  38.276  1.00  0.00     0.146 C 
HETATM    2  N1  UNL     1      13.167  14.628  38.593  1.00  0.00    -0.389 N 
ATOM      3  H1  UNL     1      12.352  14.067  38.345  1.00  0.00     0.159 HD
HETATM    4  C2  UNL     1      13.051  15.724  39.189  1.00  0.00     0.090 C 
HETATM    5  S1  UNL     1      14.446  16.779  39.665  1.00  0.00    -0.109 SA
HETATM    6  C3  UNL     1      13.763  17.967  40.866  1.00  0.00     0.135 C 
HETATM    7  C4  UNL     1      12.658  17.348  41.607  1.00  0.00     0.301 C 
HETATM    8  N2  UNL     1      11.831  18.318  42.348  1.00  0.00     0.000 N 
ATOM      9  H21 UNL     1      11.231  18.892  41.755  1.00  0.00     0.284 HD
ATOM     10  H22 UNL     1      12.359  19.089  42.757  1.00  0.00     0.284 HD
HETATM   11  C5  UNL     1      11.099  17.507  43.332  1.00  0.00     0.584 C 
HETATM   12  N4  UNL     1      10.241  16.515  42.673  1.00  0.00     0.023 N 
ATOM     13  H41 UNL     1       9.485  16.932  42.129  1.00  0.00     0.287 HD
ATOM     14  H42 UNL     1       9.655  15.992  43.324  1.00  0.00     0.287 HD
HETATM   15  C6  UNL     1      11.134  15.657  41.870  1.00  0.00     0.432 C 
HETATM   16  N5  UNL     1      11.747  16.521  40.942  1.00  0.00    -0.306 N 
HETATM   17  C7  UNL     1      11.735  16.349  39.604  1.00  0.00     0.191 C 
HETATM   18  C8  UNL     1      11.647  17.671  38.822  1.00  0.00     0.280 C 
HETATM   19  C9  UNL     1      11.054  16.744  37.746  1.00  0.00     0.263 C 
HETATM   20  N7  UNL     1      10.685  15.859  38.843  1.00  0.00    -0.159 NA
ENDROOT
BRANCH  18  21
HETATM   21  N6  UNL     1      10.732  18.637  39.344  1.00  0.00    -0.067 N 
ATOM     22  H63 UNL     1      10.791  18.660  40.362  1.00  0.00     0.275 HD
ATOM     23  H62 UNL     1      11.055  19.579  39.123  1.00  0.00     0.275 HD
ATOM     24  H61 UNL     1       9.760  18.524  39.055  1.00  0.00     0.275 HD
ENDBRANCH  18  21
BRANCH  20  25
HETATM   25  N8  UNL     1       9.370  16.055  39.154  1.00  0.00    -0.282 N 
HETATM   26  C16 UNL     1       8.513  14.906  39.228  1.00  0.00     0.262 C 
HETATM   27  O8  UNL     1       8.939  13.742  39.016  1.00  0.00    -0.270 OA
ATOM     28  H8  UNL     1       9.008  16.992  39.330  1.00  0.00     0.184 HD
BRANCH  26  29
HETATM   29  C17 UNL     1       7.066  15.016  39.558  1.00  0.00     0.272 C 
HETATM   30  C18 UNL     1       6.893  14.539  41.007  1.00  0.00     0.050 C 
BRANCH  29  31
HETATM   31  N9  UNL     1       6.584  16.374  39.418  1.00  0.00    -0.067 N 
ATOM     32  H93 UNL     1       7.241  16.949  38.892  1.00  0.00     0.275 HD
ATOM     33  H92 UNL     1       5.786  16.422  38.784  1.00  0.00     0.275 HD
ATOM     34  H91 UNL     1       6.365  16.793  40.322  1.00  0.00     0.275 HD
ENDBRANCH  29  31
ENDBRANCH  26  29
ENDBRANCH  20  25
BRANCH  15  35
HETATM   35  O1  UNL     1      10.561  14.513  41.437  1.00  0.00    -0.354 OA
ATOM     36  H1  UNL     1      11.179  13.852  41.150  1.00  0.00     0.213 HD
ENDBRANCH  15  35
BRANCH  19  37
HETATM   37  O2  UNL     1       9.967  17.451  37.159  1.00  0.00    -0.295 OA
BRANCH  37  38
HETATM   38  C10 UNL     1       9.618  17.163  35.859  1.00  0.00     0.289 C 
HETATM   39  O3  UNL     1      10.537  16.988  35.011  1.00  0.00    -0.262 OA
BRANCH  38  40
HETATM   40  C11 UNL     1       8.197  17.059  35.461  1.00  0.00     0.220 C 
BRANCH  40  41
HETATM   41  O4  UNL     1       7.423  16.817  36.602  1.00  0.00    -0.385 OA
ATOM     42  H4  UNL     1       6.729  17.463  36.646  1.00  0.00     0.210 HD
ENDBRANCH  40  41
BRANCH  40  43
HETATM   43  C12 UNL     1       7.725  18.302  34.739  1.00  0.00     0.076 C 
BRANCH  43  44
HETATM   44  C13 UNL     1       6.612  17.989  33.777  1.00  0.00     0.151 C 
BRANCH  44  45
HETATM   45  O5  UNL     1       6.720  18.875  32.695  1.00  0.00    -0.393 OA
ATOM     46  H5  UNL     1       6.751  18.357  31.899  1.00  0.00     0.210 HD
ENDBRANCH  44  45
BRANCH  44  47
HETATM   47  C14 UNL     1       5.242  18.086  34.412  1.00  0.00     0.170 C 
BRANCH  47  48
HETATM   48  O6  UNL     1       5.291  18.908  35.557  1.00  0.00    -0.391 OA
ATOM     49  H6  UNL     1       4.432  18.965  35.959  1.00  0.00     0.210 HD
ENDBRANCH  47  48
BRANCH  47  50
HETATM   50  C15 UNL     1       4.311  18.814  33.450  1.00  0.00     0.198 C 
BRANCH  50  51
HETATM   51  O7  UNL     1       4.183  20.131  33.820  1.00  0.00    -0.398 OA
ATOM     52  H7  UNL     1       3.311  20.293  34.162  1.00  0.00     0.209 HD
ENDBRANCH  50  51
ENDBRANCH  47  50
ENDBRANCH  44  47
ENDBRANCH  43  44
ENDBRANCH  40  43
ENDBRANCH  38  40
ENDBRANCH  37  38
ENDBRANCH  19  37
BRANCH  11  53
HETATM   53  N3  UNL     1      10.338  18.400  44.148  1.00  0.00    -0.025 N 
ATOM     54  H33 UNL     1       9.718  19.002  43.606  1.00  0.00     0.278 HD
ATOM     55  H32 UNL     1       9.618  17.924  44.692  1.00  0.00     0.278 HD
ATOM     56  H31 UNL     1      10.993  18.923  44.728  1.00  0.00     0.278 HD
ENDBRANCH  11  53
TORSDOF 17
ENDMDL
MODEL 4
REMARK VINA RESULT: -6.946887019      2.965      5.390
REMARK  17 active torsions:
REMARK  status: ('A' for Active; 'I' for Inactive)
REMARK    1  A    between atoms: C5_11  and  N3_12 
REMARK    2  A    between atoms: C6_19  and  O1_20 
REMARK    3  A    between atoms: C8_24  and  N6_25 
REMARK    4  A    between atoms: C9_29  and  O2_30 
REMARK    5  A    between atoms: O2_30  and  C10_31 
REMARK    6  A    between atoms: C10_31  and  C11_33 
REMARK    7  A    between atoms: C11_33  and  O4_34 
REMARK    8  A    between atoms: C11_33  and  C12_36 
REMARK    9  A    between atoms: C12_36  and  C13_37 
REMARK   10  A    between atoms: C13_37  and  O5_38 
REMARK   11  A    between atoms: C13_37  and  C14_40 
REMARK   12  A    between atoms: C14_40  and  O6_41 
REMARK   13  A    between atoms: C14_40  and  C15_43 
REMARK   14  A    between atoms: C15_43  and  O7_44 
REMARK   15  A    between atoms: N7_46  and  N8_47 
REMARK       I    between atoms: N8_47  and  C16_49 
REMARK   16  A    between atoms: C16_49  and  C17_51 
REMARK   17  A    between atoms: C17_51  and  N9_53 
ROOT
HETATM    1  C1  UNL     1       8.034  16.710  35.634  1.00  0.00     0.146 C 
HETATM    2  N1  UNL     1       8.995  16.741  36.703  1.00  0.00    -0.389 N 
ATOM      3  H1  UNL     1       9.804  17.360  36.675  1.00  0.00     0.159 HD
HETATM    4  C2  UNL     1       8.793  15.971  37.672  1.00  0.00     0.090 C 
HETATM    5  S1  UNL     1       7.381  14.840  37.799  1.00  0.00    -0.109 SA
HETATM    6  C3  UNL     1       7.333  14.327  39.546  1.00  0.00     0.135 C 
HETATM    7  C4  UNL     1       7.851  15.404  40.397  1.00  0.00     0.301 C 
HETATM    8  N2  UNL     1       8.167  14.968  41.771  1.00  0.00     0.000 N 
ATOM      9  H21 UNL     1       9.003  14.387  41.840  1.00  0.00     0.284 HD
ATOM     10  H22 UNL     1       7.517  14.279  42.148  1.00  0.00     0.284 HD
HETATM   11  C5  UNL     1       8.237  16.213  42.549  1.00  0.00     0.584 C 
HETATM   12  N4  UNL     1       9.296  17.097  42.047  1.00  0.00     0.023 N 
ATOM     13  H41 UNL     1      10.233  16.714  42.165  1.00  0.00     0.287 HD
ATOM     14  H42 UNL     1       9.428  17.933  42.617  1.00  0.00     0.287 HD
HETATM   15  C6  UNL     1       8.960  17.395  40.641  1.00  0.00     0.432 C 
HETATM   16  N5  UNL     1       8.961  16.149  39.985  1.00  0.00    -0.306 N 
HETATM   17  C7  UNL     1       9.689  15.855  38.888  1.00  0.00     0.191 C 
HETATM   18  C8  UNL     1      10.210  14.408  38.873  1.00  0.00     0.280 C 
HETATM   19  C9  UNL     1      11.271  15.029  37.947  1.00  0.00     0.263 C 
HETATM   20  N7  UNL     1      10.974  16.294  38.607  1.00  0.00    -0.159 NA
ENDROOT
BRANCH  18  21
HETATM   21  N6  UNL     1      10.718  13.923  40.118  1.00  0.00    -0.067 N 
ATOM     22  H63 UNL     1      11.737  13.960  40.117  1.00  0.00     0.275 HD
ATOM     23  H62 UNL     1      10.513  14.590  40.862  1.00  0.00     0.275 HD
ATOM     24  H61 UNL     1      10.404  12.990  40.387  1.00  0.00     0.275 HD
ENDBRANCH  18  21
BRANCH  20  25
HETATM   25  N8  UNL     1      11.917  16.533  39.564  1.00  0.00    -0.282 N 
HETATM   26  C16 UNL     1      12.651  17.764  39.499  1.00  0.00     0.262 C 
HETATM   27  O8  UNL     1      12.448  18.614  38.595  1.00  0.00    -0.270 OA
ATOM     28  H8  UNL     1      12.094  15.855  40.306  1.00  0.00     0.184 HD
BRANCH  26  29
HETATM   29  C17 UNL     1      13.700  18.116  40.495  1.00  0.00     0.272 C 
HETATM   30  C18 UNL     1      12.985  18.424  41.818  1.00  0.00     0.050 C 
BRANCH  29  31
HETATM   31  N9  UNL     1      14.650  17.038  40.679  1.00  0.00    -0.067 N 
ATOM     32  H93 UNL     1      14.574  16.346  39.935  1.00  0.00     0.275 HD
ATOM     33  H92 UNL     1      15.606  17.352  40.510  1.00  0.00     0.275 HD
ATOM     34  H91 UNL     1      14.559  16.606  41.598  1.00  0.00     0.275 HD
ENDBRANCH  29  31
ENDBRANCH  26  29
ENDBRANCH  20  25
BRANCH  15  35
HETATM   35  O1  UNL     1       9.654  18.426  40.112  1.00  0.00    -0.354 OA
ATOM     36  H1  UNL     1       9.451  18.606  39.202  1.00  0.00     0.213 HD
ENDBRANCH  15  35
BRANCH  19  37
HETATM   37  O2  UNL     1      12.517  14.444  38.313  1.00  0.00    -0.295 OA
BRANCH  37  38
HETATM   38  C10 UNL     1      13.541  14.445  37.392  1.00  0.00     0.289 C 
HETATM   39  O3  UNL     1      13.615  13.490  36.570  1.00  0.00    -0.262 OA
BRANCH  38  40
HETATM   40  C11 UNL     1      14.536  15.539  37.366  1.00  0.00     0.220 C 
BRANCH  40  41
HETATM   41  O4  UNL     1      15.522  15.279  38.325  1.00  0.00    -0.385 OA
ATOM     42  H4  UNL     1      16.234  15.897  38.210  1.00  0.00     0.210 HD
ENDBRANCH  40  41
BRANCH  40  43
HETATM   43  C12 UNL     1      15.146  15.710  35.992  1.00  0.00     0.076 C 
BRANCH  43  44
HETATM   44  C13 UNL     1      14.465  16.807  35.221  1.00  0.00     0.151 C 
BRANCH  44  45
HETATM   45  O5  UNL     1      13.805  17.632  36.144  1.00  0.00    -0.393 OA
ATOM     46  H5  UNL     1      13.089  18.061  35.689  1.00  0.00     0.210 HD
ENDBRANCH  44  45
BRANCH  44  47
HETATM   47  C14 UNL     1      13.495  16.282  34.185  1.00  0.00     0.170 C 
BRANCH  47  48
HETATM   48  O6  UNL     1      12.170  16.384  34.660  1.00  0.00    -0.391 OA
ATOM     49  H6  UNL     1      11.590  15.846  34.134  1.00  0.00     0.210 HD
ENDBRANCH  47  48
BRANCH  47  50
HETATM   50  C15 UNL     1      13.543  17.198  32.967  1.00  0.00     0.198 C 
BRANCH  50  51
HETATM   51  O7  UNL     1      14.486  18.180  33.149  1.00  0.00    -0.398 OA
ATOM     52  H7  UNL     1      14.063  19.014  33.318  1.00  0.00     0.209 HD
ENDBRANCH  50  51
ENDBRANCH  47  50
ENDBRANCH  44  47
ENDBRANCH  43  44
ENDBRANCH  40  43
ENDBRANCH  38  40
ENDBRANCH  37  38
ENDBRANCH  19  37
BRANCH  11  53
HETATM   53  N3  UNL     1       8.456  15.857  43.915  1.00  0.00    -0.025 N 
ATOM     54  H33 UNL     1       8.139  16.574  44.568  1.00  0.00     0.278 HD
ATOM     55  H32 UNL     1       7.842  15.106  44.233  1.00  0.00     0.278 HD
ATOM     56  H31 UNL     1       9.445  15.633  44.021  1.00  0.00     0.278 HD
ENDBRANCH  11  53
TORSDOF 17
ENDMDL
MODEL 5
REMARK VINA RESULT: -6.883970515      1.025      1.425
REMARK  17 active torsions:
REMARK  status: ('A' for Active; 'I' for Inactive)
REMARK    1  A    between atoms: C5_11  and  N3_12 
REMARK    2  A    between atoms: C6_19  and  O1_20 
REMARK    3  A    between atoms: C8_24  and  N6_25 
REMARK    4  A    between atoms: C9_29  and  O2_30 
REMARK    5  A    between atoms: O2_30  and  C10_31 
REMARK    6  A    between atoms: C10_31  and  C11_33 
REMARK    7  A    between atoms: C11_33  and  O4_34 
REMARK    8  A    between atoms: C11_33  and  C12_36 
REMARK    9  A    between atoms: C12_36  and  C13_37 
REMARK   10  A    between atoms: C13_37  and  O5_38 
REMARK   11  A    between atoms: C13_37  and  C14_40 
REMARK   12  A    between atoms: C14_40  and  O6_41 
REMARK   13  A    between atoms: C14_40  and  C15_43 
REMARK   14  A    between atoms: C15_43  and  O7_44 
REMARK   15  A    between atoms: N7_46  and  N8_47 
REMARK       I    between atoms: N8_47  and  C16_49 
REMARK   16  A    between atoms: C16_49  and  C17_51 
REMARK   17  A    between atoms: C17_51  and  N9_53 
ROOT
HETATM    1  C1  UNL     1      14.536  14.184  38.334  1.00  0.00     0.146 C 
HETATM    2  N1  UNL     1      13.198  14.628  38.618  1.00  0.00    -0.389 N 
ATOM      3  H1  UNL     1      12.385  14.079  38.340  1.00  0.00     0.159 HD
HETATM    4  C2  UNL     1      13.076  15.719  39.222  1.00  0.00     0.090 C 
HETATM    5  S1  UNL     1      14.468  16.754  39.750  1.00  0.00    -0.109 SA
HETATM    6  C3  UNL     1      13.763  17.936  40.943  1.00  0.00     0.135 C 
HETATM    7  C4  UNL     1      12.631  17.321  41.646  1.00  0.00     0.301 C 
HETATM    8  N2  UNL     1      11.793  18.292  42.374  1.00  0.00     0.000 N 
ATOM      9  H21 UNL     1      11.217  18.879  41.769  1.00  0.00     0.284 HD
ATOM     10  H22 UNL     1      12.317  19.053  42.805  1.00  0.00     0.284 HD
HETATM   11  C5  UNL     1      11.025  17.479  43.327  1.00  0.00     0.584 C 
HETATM   12  N4  UNL     1      10.175  16.503  42.633  1.00  0.00     0.023 N 
ATOM     13  H41 UNL     1       9.440  16.933  42.072  1.00  0.00     0.287 HD
ATOM     14  H42 UNL     1       9.565  15.979  43.261  1.00  0.00     0.287 HD
HETATM   15  C6  UNL     1      11.082  15.644  41.847  1.00  0.00     0.432 C 
HETATM   16  N5  UNL     1      11.730  16.511  40.946  1.00  0.00    -0.306 N 
HETATM   17  C7  UNL     1      11.755  16.354  39.607  1.00  0.00     0.191 C 
HETATM   18  C8  UNL     1      11.704  17.685  38.837  1.00  0.00     0.280 C 
HETATM   19  C9  UNL     1      11.133  16.776  37.734  1.00  0.00     0.263 C 
HETATM   20  N7  UNL     1      10.722  15.883  38.810  1.00  0.00    -0.159 NA
ENDROOT
BRANCH  18  21
HETATM   21  N6  UNL     1      10.784  18.655  39.343  1.00  0.00    -0.067 N 
ATOM     22  H63 UNL     1       9.954  18.692  38.751  1.00  0.00     0.275 HD
ATOM     23  H62 UNL     1      10.369  18.321  40.213  1.00  0.00     0.275 HD
ATOM     24  H61 UNL     1      11.162  19.593  39.473  1.00  0.00     0.275 HD
ENDBRANCH  18  21
BRANCH  20  25
HETATM   25  N8  UNL     1       9.402  16.090  39.086  1.00  0.00    -0.282 N 
HETATM   26  C16 UNL     1       8.520  14.958  39.063  1.00  0.00     0.262 C 
HETATM   27  O8  UNL     1       8.930  13.798  38.801  1.00  0.00    -0.270 OA
ATOM     28  H8  UNL     1       9.051  17.023  39.302  1.00  0.00     0.184 HD
BRANCH  26  29
HETATM   29  C17 UNL     1       7.064  15.080  39.348  1.00  0.00     0.272 C 
HETATM   30  C18 UNL     1       6.895  15.041  40.873  1.00  0.00     0.050 C 
BRANCH  29  31
HETATM   31  N9  UNL     1       6.513  16.309  38.815  1.00  0.00    -0.067 N 
ATOM     32  H93 UNL     1       7.223  16.850  38.322  1.00  0.00     0.275 HD
ATOM     33  H92 UNL     1       5.881  16.125  38.036  1.00  0.00     0.275 HD
ATOM     34  H91 UNL     1       6.059  16.866  39.539  1.00  0.00     0.275 HD
ENDBRANCH  29  31
ENDBRANCH  26  29
ENDBRANCH  20  25
BRANCH  15  35
HETATM   35  O1  UNL     1      10.510  14.511  41.385  1.00  0.00    -0.354 OA
ATOM     36  H1  UNL     1      10.963  14.118  40.649  1.00  0.00     0.213 HD
ENDBRANCH  15  35
BRANCH  19  37
HETATM   37  O2  UNL     1      10.070  17.501  37.123  1.00  0.00    -0.295 OA
BRANCH  37  38
HETATM   38  C10 UNL     1       9.455  16.962  36.016  1.00  0.00     0.289 C 
HETATM   39  O3  UNL     1       8.204  16.788  36.045  1.00  0.00    -0.262 OA
BRANCH  38  40
HETATM   40  C11 UNL     1      10.239  16.593  34.818  1.00  0.00     0.220 C 
BRANCH  40  41
HETATM   41  O4  UNL     1      10.217  15.200  34.673  1.00  0.00    -0.385 OA
ATOM     42  H4  UNL     1      11.110  14.878  34.656  1.00  0.00     0.210 HD
ENDBRANCH  40  41
BRANCH  40  43
HETATM   43  C12 UNL     1       9.717  17.276  33.573  1.00  0.00     0.076 C 
BRANCH  43  44
HETATM   44  C13 UNL     1      10.673  17.124  32.422  1.00  0.00     0.151 C 
BRANCH  44  45
HETATM   45  O5  UNL     1      11.955  16.922  32.953  1.00  0.00    -0.393 OA
ATOM     46  H5  UNL     1      12.208  17.715  33.410  1.00  0.00     0.210 HD
ENDBRANCH  44  45
BRANCH  44  47
HETATM   47  C14 UNL     1      10.663  18.315  31.488  1.00  0.00     0.170 C 
BRANCH  47  48
HETATM   48  O6  UNL     1      10.292  19.482  32.190  1.00  0.00    -0.391 OA
ATOM     49  H6  UNL     1      10.534  20.255  31.693  1.00  0.00     0.210 HD
ENDBRANCH  47  48
BRANCH  47  50
HETATM   50  C15 UNL     1      12.089  18.579  31.022  1.00  0.00     0.198 C 
BRANCH  50  51
HETATM   51  O7  UNL     1      12.684  19.522  31.825  1.00  0.00    -0.398 OA
ATOM     52  H7  UNL     1      13.610  19.588  31.622  1.00  0.00     0.209 HD
ENDBRANCH  50  51
ENDBRANCH  47  50
ENDBRANCH  44  47
ENDBRANCH  43  44
ENDBRANCH  40  43
ENDBRANCH  38  40
ENDBRANCH  37  38
ENDBRANCH  19  37
BRANCH  11  53
HETATM   53  N3  UNL     1      10.249  18.370  44.130  1.00  0.00    -0.025 N 
ATOM     54  H33 UNL     1       9.861  19.148  43.597  1.00  0.00     0.278 HD
ATOM     55  H32 UNL     1       9.365  17.963  44.436  1.00  0.00     0.278 HD
ATOM     56  H31 UNL     1      10.836  18.675  44.907  1.00  0.00     0.278 HD
ENDBRANCH  11  53
TORSDOF 17
ENDMDL
