MODEL 1
REMARK VINA RESULT: -8.330984142      0.000      0.000
REMARK  15 active torsions:
REMARK  status: ('A' for Active; 'I' for Inactive)
REMARK    1  A    between atoms: C3_8  and  C4_9 
REMARK    2  A    between atoms: C3_8  and  C5_12 
REMARK    3  A    between atoms: C4_9  and  O1_10 
REMARK    4  A    between atoms: C5_12  and  N3_13 
REMARK    5  A    between atoms: C12_29  and  C13_30 
REMARK    6  A    between atoms: C13_30  and  O6_31 
REMARK    7  A    between atoms: C13_30  and  C14_33 
REMARK    8  A    between atoms: C14_33  and  O7_34 
REMARK    9  A    between atoms: C14_33  and  C15_36 
REMARK   10  A    between atoms: C15_36  and  O8_37 
REMARK   11  A    between atoms: C15_36  and  C16_39 
REMARK   12  A    between atoms: C16_39  and  O9_40 
REMARK   13  A    between atoms: C16_39  and  C17_42 
REMARK   14  A    between atoms: C17_42  and  O10_43 
REMARK   15  A    between atoms: C19_47  and  N7_48 
ROOT
HETATM    1  N3  UNL     1       8.204  15.304  42.027  1.00  0.00    -0.262 N 
HETATM    2  C6  UNL     1       7.957  15.394  43.328  1.00  0.00     0.334 A 
HETATM    3  O2  UNL     1       7.036  14.780  43.949  1.00  0.00    -0.246 OA
HETATM    4  N4  UNL     1       8.705  16.191  44.159  1.00  0.00    -0.274 N 
ATOM      5  H4  UNL     1       8.476  16.228  45.153  1.00  0.00     0.173 HD
HETATM    6  C7  UNL     1       9.726  16.918  43.697  1.00  0.00     0.269 A 
HETATM    7  O3  UNL     1      10.437  17.659  44.420  1.00  0.00    -0.267 OA
HETATM    8  C8  UNL     1      10.031  16.859  42.349  1.00  0.00     0.145 A 
HETATM    9  C9  UNL     1      11.102  17.585  41.870  1.00  0.00     0.272 A 
HETATM   10  O4  UNL     1      11.803  18.323  42.609  1.00  0.00    -0.267 OA
HETATM   11  N5  UNL     1      11.391  17.488  40.574  1.00  0.00    -0.256 N 
HETATM   12  C10 UNL     1      10.650  16.701  39.766  1.00  0.00     0.234 A 
HETATM   13  N6  UNL     1       9.617  16.007  40.244  1.00  0.00    -0.306 N 
ATOM     14  H6  UNL     1       9.083  15.424  39.600  1.00  0.00     0.171 HD
HETATM   15  C11 UNL     1       9.251  16.041  41.532  1.00  0.00     0.140 A 
HETATM   16  O5  UNL     1      11.041  16.675  38.433  1.00  0.00    -0.287 OA
HETATM   17  C12 UNL     1      12.438  16.703  38.157  1.00  0.00     0.303 C 
HETATM   18  O11 UNL     1      13.174  17.276  39.148  1.00  0.00    -0.338 OA
HETATM   19  C18 UNL     1      12.486  18.190  39.929  1.00  0.00     0.309 C 
ENDROOT
BRANCH   1  20
HETATM   20  C5  UNL     1       7.484  14.473  41.139  1.00  0.00     0.092 C 
BRANCH  20  21
HETATM   21  C3  UNL     1       6.297  14.935  40.426  1.00  0.00     0.065 C 
HETATM   22  C2  UNL     1       5.984  13.962  39.257  1.00  0.00     0.140 C 
HETATM   23  N2  UNL     1       4.591  14.284  38.938  1.00  0.00    -0.377 N 
HETATM   24  C1  UNL     1       3.990  14.892  40.071  1.00  0.00     0.103 C 
ATOM     25  H2  UNL     1       4.129  14.101  38.047  1.00  0.00     0.160 HD
HETATM   26  N1  UNL     1       2.884  15.503  40.189  1.00  0.00    -0.387 N 
HETATM   27  C19 UNL     1       4.977  14.659  41.202  1.00  0.00     0.266 C 
ATOM     28  H12 UNL     1       2.222  15.658  39.429  1.00  0.00     0.157 HD
ATOM     29  H11 UNL     1       2.453  15.939  41.003  1.00  0.00     0.157 HD
BRANCH  27  30
HETATM   30  N7  UNL     1       4.866  13.227  41.433  1.00  0.00    -0.067 N 
ATOM     31  H73 UNL     1       3.913  12.886  41.555  1.00  0.00     0.275 HD
ATOM     32  H72 UNL     1       5.078  12.645  40.622  1.00  0.00     0.275 HD
ATOM     33  H71 UNL     1       5.479  13.082  42.235  1.00  0.00     0.275 HD
ENDBRANCH  27  30
BRANCH  21  34
HETATM   34  C4  UNL     1       6.187  16.289  39.886  1.00  0.00     0.183 C 
BRANCH  34  35
HETATM   35  O1  UNL     1       6.924  16.557  38.717  1.00  0.00    -0.400 OA
ATOM     36  H1  UNL     1       6.988  17.469  38.459  1.00  0.00     0.209 HD
ENDBRANCH  34  35
ENDBRANCH  21  34
ENDBRANCH  20  21
ENDBRANCH   1  20
BRANCH  17  37
HETATM   37  C13 UNL     1      12.901  15.282  37.796  1.00  0.00     0.209 C 
BRANCH  37  38
HETATM   38  O6  UNL     1      12.508  14.348  38.712  1.00  0.00    -0.388 OA
ATOM     39  H6  UNL     1      13.239  13.958  39.178  1.00  0.00     0.210 HD
ENDBRANCH  37  38
BRANCH  37  40
HETATM   40  C14 UNL     1      14.264  15.199  37.250  1.00  0.00     0.210 C 
BRANCH  40  41
HETATM   41  O7  UNL     1      14.604  16.522  36.801  1.00  0.00    -0.386 OA
ATOM     42  H7  UNL     1      15.218  16.412  36.082  1.00  0.00     0.210 HD
ENDBRANCH  40  41
BRANCH  40  43
HETATM   43  C15 UNL     1      15.373  14.654  38.056  1.00  0.00     0.105 C 
BRANCH  43  44
HETATM   44  O8  UNL     1      16.448  14.123  37.384  1.00  0.00    -0.360 OA
ATOM     45  H8  UNL     1      16.432  13.193  37.191  1.00  0.00     0.217 HD
ENDBRANCH  43  44
BRANCH  43  46
HETATM   46  C16 UNL     1      15.825  15.385  39.259  1.00  0.00     0.098 C 
BRANCH  46  47
HETATM   47  O9  UNL     1      17.134  15.853  39.222  1.00  0.00    -0.360 OA
ATOM     48  H9  UNL     1      17.741  15.425  39.814  1.00  0.00     0.217 HD
ENDBRANCH  46  47
BRANCH  46  49
HETATM   49  C17 UNL     1      15.463  14.796  40.592  1.00  0.00     0.231 C 
BRANCH  49  50
HETATM   50  O10 UNL     1      14.236  15.300  41.038  1.00  0.00    -0.394 OA
ATOM     51  H10 UNL     1      13.518  14.895  40.568  1.00  0.00     0.209 HD
ENDBRANCH  49  50
ENDBRANCH  46  49
ENDBRANCH  43  46
ENDBRANCH  40  43
ENDBRANCH  37  40
ENDBRANCH  17  37
TORSDOF 15
ENDMDL
MODEL 2
REMARK VINA RESULT: -8.025466736      1.678      2.649
REMARK  15 active torsions:
REMARK  status: ('A' for Active; 'I' for Inactive)
REMARK    1  A    between atoms: C3_8  and  C4_9 
REMARK    2  A    between atoms: C3_8  and  C5_12 
REMARK    3  A    between atoms: C4_9  and  O1_10 
REMARK    4  A    between atoms: C5_12  and  N3_13 
REMARK    5  A    between atoms: C12_29  and  C13_30 
REMARK    6  A    between atoms: C13_30  and  O6_31 
REMARK    7  A    between atoms: C13_30  and  C14_33 
REMARK    8  A    between atoms: C14_33  and  O7_34 
REMARK    9  A    between atoms: C14_33  and  C15_36 
REMARK   10  A    between atoms: C15_36  and  O8_37 
REMARK   11  A    between atoms: C15_36  and  C16_39 
REMARK   12  A    between atoms: C16_39  and  O9_40 
REMARK   13  A    between atoms: C16_39  and  C17_42 
REMARK   14  A    between atoms: C17_42  and  O10_43 
REMARK   15  A    between atoms: C19_47  and  N7_48 
ROOT
HETATM    1  N3  UNL     1       8.766  15.331  41.851  1.00  0.00    -0.262 N 
HETATM    2  C6  UNL     1       8.151  15.322  43.028  1.00  0.00     0.334 A 
HETATM    3  O2  UNL     1       7.128  14.631  43.321  1.00  0.00    -0.246 OA
HETATM    4  N4  UNL     1       8.583  16.088  44.083  1.00  0.00    -0.274 N 
ATOM      5  H4  UNL     1       8.077  16.048  44.967  1.00  0.00     0.173 HD
HETATM    6  C7  UNL     1       9.651  16.884  43.977  1.00  0.00     0.269 A 
HETATM    7  O3  UNL     1      10.080  17.601  44.915  1.00  0.00    -0.267 OA
HETATM    8  C8  UNL     1      10.332  16.930  42.774  1.00  0.00     0.145 A 
HETATM    9  C9  UNL     1      11.452  17.728  42.667  1.00  0.00     0.272 A 
HETATM   10  O4  UNL     1      11.868  18.441  43.616  1.00  0.00    -0.267 OA
HETATM   11  N5  UNL     1      12.106  17.733  41.507  1.00  0.00    -0.256 N 
HETATM   12  C10 UNL     1      11.675  16.975  40.477  1.00  0.00     0.234 A 
HETATM   13  N6  UNL     1      10.590  16.210  40.596  1.00  0.00    -0.306 N 
ATOM     14  H6  UNL     1      10.297  15.652  39.794  1.00  0.00     0.171 HD
HETATM   15  C11 UNL     1       9.867  16.141  41.722  1.00  0.00     0.140 A 
HETATM   16  O5  UNL     1      12.433  17.056  39.316  1.00  0.00    -0.287 OA
HETATM   17  C12 UNL     1      13.846  17.158  39.459  1.00  0.00     0.303 C 
HETATM   18  O11 UNL     1      14.233  17.689  40.650  1.00  0.00    -0.338 OA
HETATM   19  C18 UNL     1      13.298  18.520  41.246  1.00  0.00     0.309 C 
ENDROOT
BRANCH   1  20
HETATM   20  C5  UNL     1       8.381  14.535  40.748  1.00  0.00     0.092 C 
BRANCH  20  21
HETATM   21  C3  UNL     1       7.196  14.830  39.950  1.00  0.00     0.065 C 
HETATM   22  C2  UNL     1       6.843  16.336  40.082  1.00  0.00     0.140 C 
HETATM   23  N2  UNL     1       5.959  16.560  38.936  1.00  0.00    -0.377 N 
HETATM   24  C1  UNL     1       6.207  15.557  37.964  1.00  0.00     0.103 C 
ATOM     25  H2  UNL     1       5.277  17.313  38.851  1.00  0.00     0.160 HD
HETATM   26  N1  UNL     1       5.556  15.240  36.922  1.00  0.00    -0.387 N 
HETATM   27  C19 UNL     1       7.488  14.883  38.423  1.00  0.00     0.266 C 
ATOM     28  H12 UNL     1       4.695  15.693  36.614  1.00  0.00     0.157 HD
ATOM     29  H11 UNL     1       5.734  14.519  36.223  1.00  0.00     0.157 HD
BRANCH  27  30
HETATM   30  N7  UNL     1       8.493  15.907  38.180  1.00  0.00    -0.067 N 
ATOM     31  H73 UNL     1       8.124  16.796  37.843  1.00  0.00     0.275 HD
ATOM     32  H72 UNL     1       8.926  16.290  39.020  1.00  0.00     0.275 HD
ATOM     33  H71 UNL     1       9.137  15.442  37.540  1.00  0.00     0.275 HD
ENDBRANCH  27  30
BRANCH  21  34
HETATM   34  C4  UNL     1       5.943  14.092  40.107  1.00  0.00     0.183 C 
BRANCH  34  35
HETATM   35  O1  UNL     1       5.885  13.182  41.180  1.00  0.00    -0.400 OA
ATOM     36  H1  UNL     1       5.019  12.892  41.440  1.00  0.00     0.209 HD
ENDBRANCH  34  35
ENDBRANCH  21  34
ENDBRANCH  20  21
ENDBRANCH   1  20
BRANCH  17  37
HETATM   37  C13 UNL     1      14.474  15.784  39.170  1.00  0.00     0.209 C 
BRANCH  37  38
HETATM   38  O6  UNL     1      15.254  15.332  40.197  1.00  0.00    -0.388 OA
ATOM     39  H6  UNL     1      15.774  14.573  39.959  1.00  0.00     0.210 HD
ENDBRANCH  37  38
BRANCH  37  40
HETATM   40  C14 UNL     1      14.956  15.604  37.793  1.00  0.00     0.210 C 
BRANCH  40  41
HETATM   41  O7  UNL     1      16.264  15.016  37.892  1.00  0.00    -0.386 OA
ATOM     42  H7  UNL     1      16.131  14.094  38.082  1.00  0.00     0.210 HD
ENDBRANCH  40  41
BRANCH  40  43
HETATM   43  C15 UNL     1      14.158  14.861  36.800  1.00  0.00     0.105 C 
BRANCH  43  44
HETATM   44  O8  UNL     1      13.934  13.524  37.033  1.00  0.00    -0.360 OA
ATOM     45  H8  UNL     1      14.656  12.925  36.885  1.00  0.00     0.217 HD
ENDBRANCH  43  44
BRANCH  43  46
HETATM   46  C16 UNL     1      12.957  15.492  36.212  1.00  0.00     0.098 C 
BRANCH  46  47
HETATM   47  O9  UNL     1      12.914  16.881  36.279  1.00  0.00    -0.360 OA
ATOM     48  H9  UNL     1      12.527  17.316  35.528  1.00  0.00     0.217 HD
ENDBRANCH  46  47
BRANCH  46  49
HETATM   49  C17 UNL     1      11.631  14.860  36.526  1.00  0.00     0.231 C 
BRANCH  49  50
HETATM   50  O10 UNL     1      11.482  14.685  37.906  1.00  0.00    -0.394 OA
ATOM     51  H10 UNL     1      11.313  13.773  38.111  1.00  0.00     0.209 HD
ENDBRANCH  49  50
ENDBRANCH  46  49
ENDBRANCH  43  46
ENDBRANCH  40  43
ENDBRANCH  37  40
ENDBRANCH  17  37
TORSDOF 15
ENDMDL
MODEL 3
REMARK VINA RESULT: -8.010926204      2.465      6.739
REMARK  15 active torsions:
REMARK  status: ('A' for Active; 'I' for Inactive)
REMARK    1  A    between atoms: C3_8  and  C4_9 
REMARK    2  A    between atoms: C3_8  and  C5_12 
REMARK    3  A    between atoms: C4_9  and  O1_10 
REMARK    4  A    between atoms: C5_12  and  N3_13 
REMARK    5  A    between atoms: C12_29  and  C13_30 
REMARK    6  A    between atoms: C13_30  and  O6_31 
REMARK    7  A    between atoms: C13_30  and  C14_33 
REMARK    8  A    between atoms: C14_33  and  O7_34 
REMARK    9  A    between atoms: C14_33  and  C15_36 
REMARK   10  A    between atoms: C15_36  and  O8_37 
REMARK   11  A    between atoms: C15_36  and  C16_39 
REMARK   12  A    between atoms: C16_39  and  O9_40 
REMARK   13  A    between atoms: C16_39  and  C17_42 
REMARK   14  A    between atoms: C17_42  and  O10_43 
REMARK   15  A    between atoms: C19_47  and  N7_48 
ROOT
HETATM    1  N3  UNL     1       8.615  15.469  37.612  1.00  0.00    -0.262 N 
HETATM    2  C6  UNL     1       8.348  14.535  36.706  1.00  0.00     0.334 A 
HETATM    3  O2  UNL     1       8.792  14.513  35.518  1.00  0.00    -0.246 OA
HETATM    4  N4  UNL     1       7.538  13.462  36.982  1.00  0.00    -0.274 N 
ATOM      5  H4  UNL     1       7.362  12.770  36.253  1.00  0.00     0.173 HD
HETATM    6  C7  UNL     1       6.975  13.302  38.183  1.00  0.00     0.269 A 
HETATM    7  O3  UNL     1       6.228  12.336  38.478  1.00  0.00    -0.267 OA
HETATM    8  C8  UNL     1       7.221  14.243  39.166  1.00  0.00     0.145 A 
HETATM    9  C9  UNL     1       6.666  14.068  40.417  1.00  0.00     0.272 A 
HETATM   10  O4  UNL     1       5.919  13.095  40.695  1.00  0.00    -0.267 OA
HETATM   11  N5  UNL     1       6.942  14.973  41.354  1.00  0.00    -0.256 N 
HETATM   12  C10 UNL     1       7.741  16.024  41.073  1.00  0.00     0.234 A 
HETATM   13  N6  UNL     1       8.269  16.179  39.859  1.00  0.00    -0.306 N 
ATOM     14  H6  UNL     1       8.868  16.987  39.688  1.00  0.00     0.171 HD
HETATM   15  C11 UNL     1       8.048  15.321  38.854  1.00  0.00     0.140 A 
HETATM   16  O5  UNL     1       7.962  16.905  42.124  1.00  0.00    -0.287 OA
HETATM   17  C12 UNL     1       8.104  16.351  43.428  1.00  0.00     0.303 C 
HETATM   18  O11 UNL     1       7.495  15.143  43.573  1.00  0.00    -0.338 OA
HETATM   19  C18 UNL     1       6.432  14.922  42.712  1.00  0.00     0.309 C 
ENDROOT
BRANCH   1  20
HETATM   20  C5  UNL     1       9.469  16.572  37.387  1.00  0.00     0.092 C 
BRANCH  20  21
HETATM   21  C3  UNL     1      10.858  16.588  37.834  1.00  0.00     0.065 C 
HETATM   22  C2  UNL     1      11.253  15.177  38.348  1.00  0.00     0.140 C 
HETATM   23  N2  UNL     1      12.716  15.230  38.337  1.00  0.00    -0.377 N 
HETATM   24  C1  UNL     1      13.131  16.240  37.430  1.00  0.00     0.103 C 
ATOM     25  H2  UNL     1      13.336  14.639  38.891  1.00  0.00     0.160 HD
HETATM   26  N1  UNL     1      14.272  16.765  37.247  1.00  0.00    -0.387 N 
HETATM   27  C19 UNL     1      11.876  16.603  36.657  1.00  0.00     0.266 C 
ATOM     28  H12 UNL     1      15.115  16.521  37.767  1.00  0.00     0.157 HD
ATOM     29  H11 UNL     1      14.570  17.491  36.595  1.00  0.00     0.157 HD
BRANCH  27  30
HETATM   30  N7  UNL     1      11.653  15.421  35.837  1.00  0.00    -0.067 N 
ATOM     31  H73 UNL     1      12.482  14.851  35.674  1.00  0.00     0.275 HD
ATOM     32  H72 UNL     1      11.111  14.684  36.288  1.00  0.00     0.275 HD
ATOM     33  H71 UNL     1      11.228  15.810  34.995  1.00  0.00     0.275 HD
ENDBRANCH  27  30
BRANCH  21  34
HETATM   34  C4  UNL     1      11.351  17.547  38.821  1.00  0.00     0.183 C 
BRANCH  34  35
HETATM   35  O1  UNL     1      10.385  18.371  39.428  1.00  0.00    -0.400 OA
ATOM     36  H1  UNL     1      10.713  19.121  39.911  1.00  0.00     0.209 HD
ENDBRANCH  34  35
ENDBRANCH  21  34
ENDBRANCH  20  21
ENDBRANCH   1  20
BRANCH  17  37
HETATM   37  C13 UNL     1       9.597  16.330  43.798  1.00  0.00     0.209 C 
BRANCH  37  38
HETATM   38  O6  UNL     1       9.819  15.910  45.079  1.00  0.00    -0.388 OA
ATOM     39  H6  UNL     1       9.697  14.973  45.186  1.00  0.00     0.210 HD
ENDBRANCH  37  38
BRANCH  37  40
HETATM   40  C14 UNL     1      10.373  17.470  43.290  1.00  0.00     0.210 C 
BRANCH  40  41
HETATM   41  O7  UNL     1      10.447  18.424  44.363  1.00  0.00    -0.386 OA
ATOM     42  H7  UNL     1      11.073  18.078  44.989  1.00  0.00     0.210 HD
ENDBRANCH  40  41
BRANCH  40  43
HETATM   43  C15 UNL     1      11.717  17.278  42.712  1.00  0.00     0.105 C 
BRANCH  43  44
HETATM   44  O8  UNL     1      12.591  18.338  42.764  1.00  0.00    -0.360 OA
ATOM     45  H8  UNL     1      13.284  18.305  43.413  1.00  0.00     0.217 HD
ENDBRANCH  43  44
BRANCH  43  46
HETATM   46  C16 UNL     1      12.432  16.005  42.942  1.00  0.00     0.098 C 
BRANCH  46  47
HETATM   47  O9  UNL     1      12.970  15.839  44.214  1.00  0.00    -0.360 OA
ATOM     48  H9  UNL     1      12.557  15.174  44.752  1.00  0.00     0.217 HD
ENDBRANCH  46  47
BRANCH  46  49
HETATM   49  C17 UNL     1      13.362  15.538  41.860  1.00  0.00     0.231 C 
BRANCH  49  50
HETATM   50  O10 UNL     1      13.655  16.583  40.977  1.00  0.00    -0.394 OA
ATOM     51  H10 UNL     1      13.902  16.242  40.125  1.00  0.00     0.209 HD
ENDBRANCH  49  50
ENDBRANCH  46  49
ENDBRANCH  43  46
ENDBRANCH  40  43
ENDBRANCH  37  40
ENDBRANCH  17  37
TORSDOF 15
ENDMDL
MODEL 4
REMARK VINA RESULT: -7.953793545      0.935      1.743
REMARK  15 active torsions:
REMARK  status: ('A' for Active; 'I' for Inactive)
REMARK    1  A    between atoms: C3_8  and  C4_9 
REMARK    2  A    between atoms: C3_8  and  C5_12 
REMARK    3  A    between atoms: C4_9  and  O1_10 
REMARK    4  A    between atoms: C5_12  and  N3_13 
REMARK    5  A    between atoms: C12_29  and  C13_30 
REMARK    6  A    between atoms: C13_30  and  O6_31 
REMARK    7  A    between atoms: C13_30  and  C14_33 
REMARK    8  A    between atoms: C14_33  and  O7_34 
REMARK    9  A    between atoms: C14_33  and  C15_36 
REMARK   10  A    between atoms: C15_36  and  O8_37 
REMARK   11  A    between atoms: C15_36  and  C16_39 
REMARK   12  A    between atoms: C16_39  and  O9_40 
REMARK   13  A    between atoms: C16_39  and  C17_42 
REMARK   14  A    between atoms: C17_42  and  O10_43 
REMARK   15  A    between atoms: C19_47  and  N7_48 
ROOT
HETATM    1  N3  UNL     1       8.275  15.307  41.997  1.00  0.00    -0.262 N 
HETATM    2  C6  UNL     1       8.021  15.371  43.298  1.00  0.00     0.334 A 
HETATM    3  O2  UNL     1       7.108  14.731  43.904  1.00  0.00    -0.246 OA
HETATM    4  N4  UNL     1       8.753  16.165  44.147  1.00  0.00    -0.274 N 
ATOM      5  H4  UNL     1       8.519  16.181  45.140  1.00  0.00     0.173 HD
HETATM    6  C7  UNL     1       9.764  16.916  43.702  1.00  0.00     0.269 A 
HETATM    7  O3  UNL     1      10.459  17.655  44.442  1.00  0.00    -0.267 OA
HETATM    8  C8  UNL     1      10.075  16.886  42.355  1.00  0.00     0.145 A 
HETATM    9  C9  UNL     1      11.136  17.637  41.894  1.00  0.00     0.272 A 
HETATM   10  O4  UNL     1      11.822  18.374  42.648  1.00  0.00    -0.267 OA
HETATM   11  N5  UNL     1      11.433  17.569  40.598  1.00  0.00    -0.256 N 
HETATM   12  C10 UNL     1      10.708  16.784  39.772  1.00  0.00     0.234 A 
HETATM   13  N6  UNL     1       9.685  16.065  40.233  1.00  0.00    -0.306 N 
ATOM     14  H6  UNL     1       9.163  15.485  39.576  1.00  0.00     0.171 HD
HETATM   15  C11 UNL     1       9.312  16.071  41.520  1.00  0.00     0.140 A 
HETATM   16  O5  UNL     1      11.106  16.788  38.441  1.00  0.00    -0.287 OA
HETATM   17  C12 UNL     1      12.503  16.844  38.172  1.00  0.00     0.303 C 
HETATM   18  O11 UNL     1      13.226  17.411  39.176  1.00  0.00    -0.338 OA
HETATM   19  C18 UNL     1      12.519  18.299  39.970  1.00  0.00     0.309 C 
ENDROOT
BRANCH   1  20
HETATM   20  C5  UNL     1       7.573  14.481  41.090  1.00  0.00     0.092 C 
BRANCH  20  21
HETATM   21  C3  UNL     1       6.384  14.937  40.378  1.00  0.00     0.065 C 
HETATM   22  C2  UNL     1       6.078  13.966  39.205  1.00  0.00     0.140 C 
HETATM   23  N2  UNL     1       4.684  14.280  38.886  1.00  0.00    -0.377 N 
HETATM   24  C1  UNL     1       4.078  14.880  40.020  1.00  0.00     0.103 C 
ATOM     25  H2  UNL     1       4.224  14.097  37.994  1.00  0.00     0.160 HD
HETATM   26  N1  UNL     1       2.968  15.484  40.138  1.00  0.00    -0.387 N 
HETATM   27  C19 UNL     1       5.064  14.651  41.151  1.00  0.00     0.266 C 
ATOM     28  H12 UNL     1       2.305  15.638  39.378  1.00  0.00     0.157 HD
ATOM     29  H11 UNL     1       2.533  15.916  40.953  1.00  0.00     0.157 HD
BRANCH  27  30
HETATM   30  N7  UNL     1       4.963  13.218  41.378  1.00  0.00    -0.067 N 
ATOM     31  H73 UNL     1       4.015  12.843  41.331  1.00  0.00     0.275 HD
ATOM     32  H72 UNL     1       5.337  12.638  40.627  1.00  0.00     0.275 HD
ATOM     33  H71 UNL     1       5.425  13.100  42.280  1.00  0.00     0.275 HD
ENDBRANCH  27  30
BRANCH  21  34
HETATM   34  C4  UNL     1       6.266  16.292  39.841  1.00  0.00     0.183 C 
BRANCH  34  35
HETATM   35  O1  UNL     1       6.984  16.561  38.661  1.00  0.00    -0.400 OA
ATOM     36  H1  UNL     1       7.115  17.477  38.447  1.00  0.00     0.209 HD
ENDBRANCH  34  35
ENDBRANCH  21  34
ENDBRANCH  20  21
ENDBRANCH   1  20
BRANCH  17  37
HETATM   37  C13 UNL     1      12.991  15.437  37.788  1.00  0.00     0.209 C 
BRANCH  37  38
HETATM   38  O6  UNL     1      11.970  14.601  37.433  1.00  0.00    -0.388 OA
ATOM     39  H6  UNL     1      11.967  13.791  37.931  1.00  0.00     0.210 HD
ENDBRANCH  37  38
BRANCH  37  40
HETATM   40  C14 UNL     1      14.069  14.906  38.635  1.00  0.00     0.210 C 
BRANCH  40  41
HETATM   41  O7  UNL     1      13.507  13.805  39.368  1.00  0.00    -0.386 OA
ATOM     42  H7  UNL     1      13.885  13.840  40.240  1.00  0.00     0.210 HD
ENDBRANCH  40  41
BRANCH  40  43
HETATM   43  C15 UNL     1      15.362  14.499  38.053  1.00  0.00     0.105 C 
BRANCH  43  44
HETATM   44  O8  UNL     1      16.345  14.078  38.917  1.00  0.00    -0.360 OA
ATOM     45  H8  UNL     1      16.227  13.238  39.344  1.00  0.00     0.217 HD
ENDBRANCH  43  44
BRANCH  43  46
HETATM   46  C16 UNL     1      15.380  13.691  36.815  1.00  0.00     0.098 C 
BRANCH  46  47
HETATM   47  O9  UNL     1      14.526  12.594  36.801  1.00  0.00    -0.360 OA
ATOM     48  H9  UNL     1      14.867  11.813  36.381  1.00  0.00     0.217 HD
ENDBRANCH  46  47
BRANCH  46  49
HETATM   49  C17 UNL     1      16.724  13.381  36.221  1.00  0.00     0.231 C 
BRANCH  49  50
HETATM   50  O10 UNL     1      17.337  12.329  36.911  1.00  0.00    -0.394 OA
ATOM     51  H10 UNL     1      16.709  11.641  37.096  1.00  0.00     0.209 HD
ENDBRANCH  49  50
ENDBRANCH  46  49
ENDBRANCH  43  46
ENDBRANCH  40  43
ENDBRANCH  37  40
ENDBRANCH  17  37
TORSDOF 15
ENDMDL
MODEL 5
REMARK VINA RESULT: -7.928130104      1.640      2.544
REMARK  15 active torsions:
REMARK  status: ('A' for Active; 'I' for Inactive)
REMARK    1  A    between atoms: C3_8  and  C4_9 
REMARK    2  A    between atoms: C3_8  and  C5_12 
REMARK    3  A    between atoms: C4_9  and  O1_10 
REMARK    4  A    between atoms: C5_12  and  N3_13 
REMARK    5  A    between atoms: C12_29  and  C13_30 
REMARK    6  A    between atoms: C13_30  and  O6_31 
REMARK    7  A    between atoms: C13_30  and  C14_33 
REMARK    8  A    between atoms: C14_33  and  O7_34 
REMARK    9  A    between atoms: C14_33  and  C15_36 
REMARK   10  A    between atoms: C15_36  and  O8_37 
REMARK   11  A    between atoms: C15_36  and  C16_39 
REMARK   12  A    between atoms: C16_39  and  O9_40 
REMARK   13  A    between atoms: C16_39  and  C17_42 
REMARK   14  A    between atoms: C17_42  and  O10_43 
REMARK   15  A    between atoms: C19_47  and  N7_48 
ROOT
HETATM    1  N3  UNL     1       8.600  15.244  41.838  1.00  0.00    -0.262 N 
HETATM    2  C6  UNL     1       8.050  15.257  43.046  1.00  0.00     0.334 A 
HETATM    3  O2  UNL     1       7.029  14.590  43.399  1.00  0.00    -0.246 OA
HETATM    4  N4  UNL     1       8.555  16.019  44.070  1.00  0.00    -0.274 N 
ATOM      5  H4  UNL     1       8.097  15.996  44.982  1.00  0.00     0.173 HD
HETATM    6  C7  UNL     1       9.632  16.791  43.900  1.00  0.00     0.269 A 
HETATM    7  O3  UNL     1      10.128  17.504  44.808  1.00  0.00    -0.267 OA
HETATM    8  C8  UNL     1      10.248  16.815  42.662  1.00  0.00     0.145 A 
HETATM    9  C9  UNL     1      11.377  17.587  42.488  1.00  0.00     0.272 A 
HETATM   10  O4  UNL     1      11.860  18.296  43.408  1.00  0.00    -0.267 OA
HETATM   11  N5  UNL     1      11.967  17.570  41.295  1.00  0.00    -0.256 N 
HETATM   12  C10 UNL     1      11.464  16.816  40.295  1.00  0.00     0.234 A 
HETATM   13  N6  UNL     1      10.371  16.075  40.479  1.00  0.00    -0.306 N 
ATOM     14  H6  UNL     1      10.022  15.519  39.698  1.00  0.00     0.171 HD
HETATM   15  C11 UNL     1       9.710  16.030  41.643  1.00  0.00     0.140 A 
HETATM   16  O5  UNL     1      12.159  16.873  39.094  1.00  0.00    -0.287 OA
HETATM   17  C12 UNL     1      13.580  16.944  39.159  1.00  0.00     0.303 C 
HETATM   18  O11 UNL     1      14.043  17.474  40.324  1.00  0.00    -0.338 OA
HETATM   19  C18 UNL     1      13.160  18.329  40.964  1.00  0.00     0.309 C 
ENDROOT
BRANCH   1  20
HETATM   20  C5  UNL     1       8.138  14.451  40.763  1.00  0.00     0.092 C 
BRANCH  20  21
HETATM   21  C3  UNL     1       6.889  14.735  40.064  1.00  0.00     0.065 C 
HETATM   22  C2  UNL     1       6.482  16.214  40.310  1.00  0.00     0.140 C 
HETATM   23  N2  UNL     1       5.512  16.461  39.241  1.00  0.00    -0.377 N 
HETATM   24  C1  UNL     1       5.736  15.528  38.195  1.00  0.00     0.103 C 
ATOM     25  H2  UNL     1       4.794  17.185  39.247  1.00  0.00     0.160 HD
HETATM   26  N1  UNL     1       5.029  15.241  37.181  1.00  0.00    -0.387 N 
HETATM   27  C19 UNL     1       7.073  14.890  38.527  1.00  0.00     0.266 C 
ATOM     28  H12 UNL     1       4.130  15.670  36.958  1.00  0.00     0.157 HD
ATOM     29  H11 UNL     1       5.190  14.571  36.430  1.00  0.00     0.157 HD
BRANCH  27  30
HETATM   30  N7  UNL     1       8.014  15.972  38.280  1.00  0.00    -0.067 N 
ATOM     31  H73 UNL     1       7.746  16.608  37.530  1.00  0.00     0.275 HD
ATOM     32  H72 UNL     1       8.047  16.685  39.009  1.00  0.00     0.275 HD
ATOM     33  H71 UNL     1       8.891  15.475  38.128  1.00  0.00     0.275 HD
ENDBRANCH  27  30
BRANCH  21  34
HETATM   34  C4  UNL     1       5.683  13.931  40.259  1.00  0.00     0.183 C 
BRANCH  34  35
HETATM   35  O1  UNL     1       5.657  13.113  41.405  1.00  0.00    -0.400 OA
ATOM     36  H1  UNL     1       5.632  12.176  41.252  1.00  0.00     0.209 HD
ENDBRANCH  34  35
ENDBRANCH  21  34
ENDBRANCH  20  21
ENDBRANCH   1  20
BRANCH  17  37
HETATM   37  C13 UNL     1      14.161  15.555  38.847  1.00  0.00     0.209 C 
BRANCH  37  38
HETATM   38  O6  UNL     1      13.855  14.626  39.801  1.00  0.00    -0.388 OA
ATOM     39  H6  UNL     1      13.112  14.084  39.563  1.00  0.00     0.210 HD
ENDBRANCH  37  38
BRANCH  37  40
HETATM   40  C14 UNL     1      15.523  15.568  38.292  1.00  0.00     0.210 C 
BRANCH  40  41
HETATM   41  O7  UNL     1      16.377  16.098  39.321  1.00  0.00    -0.386 OA
ATOM     42  H7  UNL     1      16.634  15.362  39.863  1.00  0.00     0.210 HD
ENDBRANCH  40  41
BRANCH  40  43
HETATM   43  C15 UNL     1      16.128  14.344  37.735  1.00  0.00     0.105 C 
BRANCH  43  44
HETATM   44  O8  UNL     1      16.542  13.377  38.621  1.00  0.00    -0.360 OA
ATOM     45  H8  UNL     1      17.246  12.801  38.348  1.00  0.00     0.217 HD
ENDBRANCH  43  44
BRANCH  43  46
HETATM   46  C16 UNL     1      15.537  13.723  36.531  1.00  0.00     0.098 C 
BRANCH  46  47
HETATM   47  O9  UNL     1      14.654  12.674  36.767  1.00  0.00    -0.360 OA
ATOM     48  H9  UNL     1      13.861  12.902  37.237  1.00  0.00     0.217 HD
ENDBRANCH  46  47
BRANCH  46  49
HETATM   49  C17 UNL     1      16.461  13.448  35.380  1.00  0.00     0.231 C 
BRANCH  49  50
HETATM   50  O10 UNL     1      17.791  13.422  35.811  1.00  0.00    -0.394 OA
ATOM     51  H10 UNL     1      18.095  12.527  35.906  1.00  0.00     0.209 HD
ENDBRANCH  49  50
ENDBRANCH  46  49
ENDBRANCH  43  46
ENDBRANCH  40  43
ENDBRANCH  37  40
ENDBRANCH  17  37
TORSDOF 15
ENDMDL
