MODEL 1
REMARK VINA RESULT: -8.556822712      0.000      0.000
REMARK  16 active torsions:
REMARK  status: ('A' for Active; 'I' for Inactive)
REMARK    1  A    between atoms: N1_1  and  C1_4 
REMARK    2  A    between atoms: C3_9  and  C4_10 
REMARK       I    between atoms: C4_10  and  N3_12 
REMARK    3  A    between atoms: N3_12  and  C5_14 
REMARK    4  A    between atoms: C6_16  and  C7_17 
REMARK    5  A    between atoms: C7_17  and  O4_18 
REMARK    6  A    between atoms: C8_20  and  N4_21 
REMARK    7  A    between atoms: C9_22  and  O5_23 
REMARK    8  A    between atoms: C13_33  and  N7_34 
REMARK    9  A    between atoms: N8_37  and  C14_38 
REMARK   10  A    between atoms: C14_38  and  O7_39 
REMARK   11  A    between atoms: C15_41  and  O8_42 
REMARK   12  A    between atoms: N10_46  and  C16_47 
REMARK   13  A    between atoms: C16_47  and  C17_48 
REMARK   14  A    between atoms: C17_48  and  O9_49 
REMARK   15  A    between atoms: C17_48  and  C18_51 
REMARK   16  A    between atoms: C18_51  and  O10_52 
ROOT
HETATM    1  C5  UNL     1      13.107  16.286  40.266  1.00  0.00     0.255 C 
HETATM    2  O3  UNL     1      13.315  15.178  41.042  1.00  0.00    -0.354 OA
HETATM    3  C6  UNL     1      12.208  14.906  41.791  1.00  0.00     0.173 C 
HETATM    4  C8  UNL     1      11.244  16.071  41.681  1.00  0.00     0.158 C 
HETATM    5  C15 UNL     1      11.679  16.694  40.371  1.00  0.00     0.192 C 
ENDROOT
BRANCH   1   6
HETATM    6  N3  UNL     1      13.526  15.991  38.899  1.00  0.00    -0.327 N 
HETATM    7  C4  UNL     1      14.876  15.896  38.528  1.00  0.00     0.277 C 
HETATM    8  O2  UNL     1      15.770  16.068  39.383  1.00  0.00    -0.266 OA
ATOM      9  H3  UNL     1      12.810  15.849  38.186  1.00  0.00     0.165 HD
BRANCH   7  10
HETATM   10  C3  UNL     1      15.263  15.602  37.160  1.00  0.00     0.185 A 
HETATM   11  C2  UNL     1      14.766  16.342  36.090  1.00  0.00     0.293 A 
HETATM   12  N2  UNL     1      15.110  16.088  34.818  1.00  0.00    -0.153 N 
HETATM   13  O1  UNL     1      13.974  17.267  36.361  1.00  0.00    -0.265 OA
HETATM   14  C1  UNL     1      15.976  15.069  34.569  1.00  0.00     0.695 A 
ATOM     15  H2  UNL     1      14.730  16.646  34.054  1.00  0.00     0.187 HD
HETATM   16  N10 UNL     1      16.465  14.347  35.591  1.00  0.00    -0.121 N 
HETATM   17  N9  UNL     1      16.114  14.609  36.861  1.00  0.00    -0.274 N 
ATOM     18  H9  UNL     1      16.503  14.041  37.614  1.00  0.00     0.188 HD
BRANCH  14  19
HETATM   19  N1  UNL     1      16.333  14.778  33.359  1.00  0.00    -0.233 N 
ATOM     20  H12 UNL     1      16.146  13.845  32.994  1.00  0.00     0.174 HD
ATOM     21  H11 UNL     1      16.791  15.471  32.766  1.00  0.00     0.174 HD
ENDBRANCH  14  19
BRANCH  16  22
HETATM   22  C16 UNL     1      17.398  13.268  35.309  1.00  0.00     0.201 C 
BRANCH  22  23
HETATM   23  C17 UNL     1      16.760  11.946  35.618  1.00  0.00     0.162 C 
BRANCH  23  24
HETATM   24  O9  UNL     1      15.436  12.029  36.001  1.00  0.00    -0.392 OA
ATOM     25  H9  UNL     1      14.931  11.241  35.837  1.00  0.00     0.210 HD
ENDBRANCH  23  24
BRANCH  23  26
HETATM   26  C18 UNL     1      17.527  11.275  36.743  1.00  0.00     0.197 C 
BRANCH  26  27
HETATM   27  O10 UNL     1      18.870  11.650  36.651  1.00  0.00    -0.398 OA
ATOM     28  H10 UNL     1      18.912  12.557  36.374  1.00  0.00     0.209 HD
ENDBRANCH  26  27
ENDBRANCH  23  26
ENDBRANCH  22  23
ENDBRANCH  16  22
ENDBRANCH   7  10
ENDBRANCH   1   6
BRANCH   5  29
HETATM   29  O8  UNL     1      11.645  18.101  40.505  1.00  0.00    -0.389 OA
ATOM     30  H8  UNL     1      11.938  18.314  41.383  1.00  0.00     0.210 HD
ENDBRANCH   5  29
BRANCH   3  31
HETATM   31  C7  UNL     1      12.671  14.807  43.252  1.00  0.00     0.198 C 
BRANCH  31  32
HETATM   32  O4  UNL     1      12.718  16.073  43.833  1.00  0.00    -0.398 OA
ATOM     33  H4  UNL     1      13.578  16.235  44.203  1.00  0.00     0.209 HD
ENDBRANCH  31  32
ENDBRANCH   3  31
BRANCH   4  34
HETATM   34  N4  UNL     1       9.919  15.580  41.609  1.00  0.00    -0.295 N 
HETATM   35  C9  UNL     1       9.329  15.159  40.486  1.00  0.00     0.226 A 
HETATM   36  N5  UNL     1       8.075  14.753  40.741  1.00  0.00    -0.305 N 
HETATM   37  C10 UNL     1       7.837  14.915  42.071  1.00  0.00     0.161 A 
ATOM     38  H5  UNL     1       7.415  14.387  40.056  1.00  0.00     0.171 HD
HETATM   39  C11 UNL     1       9.016  15.434  42.580  1.00  0.00     0.152 A 
HETATM   40  N8  UNL     1       6.751  14.666  42.841  1.00  0.00    -0.144 N 
HETATM   41  C12 UNL     1       9.015  15.688  43.946  1.00  0.00     0.290 A 
HETATM   42  O6  UNL     1      10.054  16.154  44.439  1.00  0.00    -0.265 OA
HETATM   43  N6  UNL     1       7.907  15.424  44.682  1.00  0.00    -0.154 N 
HETATM   44  C13 UNL     1       6.779  14.920  44.156  1.00  0.00     0.684 A 
ATOM     45  H6  UNL     1       7.932  15.618  45.683  1.00  0.00     0.187 HD
BRANCH  35  46
HETATM   46  O5  UNL     1       9.847  15.102  39.176  1.00  0.00    -0.332 OA
ATOM     47  H5  UNL     1       9.382  15.053  38.349  1.00  0.00     0.221 HD
ENDBRANCH  35  46
BRANCH  44  48
HETATM   48  N7  UNL     1       5.735  14.684  44.916  1.00  0.00    -0.234 N 
ATOM     49  H72 UNL     1       4.885  15.243  44.833  1.00  0.00     0.174 HD
ATOM     50  H71 UNL     1       5.754  13.935  45.608  1.00  0.00     0.174 HD
ENDBRANCH  44  48
BRANCH  40  51
HETATM   51  C14 UNL     1       5.549  14.122  42.248  1.00  0.00     0.316 C 
BRANCH  51  52
HETATM   52  O7  UNL     1       5.794  13.062  41.405  1.00  0.00    -0.381 OA
ATOM     53  H7  UNL     1       5.162  12.993  40.699  1.00  0.00     0.211 HD
ENDBRANCH  51  52
ENDBRANCH  40  51
ENDBRANCH   4  34
TORSDOF 16
ENDMDL
MODEL 2
REMARK VINA RESULT: -8.267946525      3.105      4.504
REMARK  16 active torsions:
REMARK  status: ('A' for Active; 'I' for Inactive)
REMARK    1  A    between atoms: N1_1  and  C1_4 
REMARK    2  A    between atoms: C3_9  and  C4_10 
REMARK       I    between atoms: C4_10  and  N3_12 
REMARK    3  A    between atoms: N3_12  and  C5_14 
REMARK    4  A    between atoms: C6_16  and  C7_17 
REMARK    5  A    between atoms: C7_17  and  O4_18 
REMARK    6  A    between atoms: C8_20  and  N4_21 
REMARK    7  A    between atoms: C9_22  and  O5_23 
REMARK    8  A    between atoms: C13_33  and  N7_34 
REMARK    9  A    between atoms: N8_37  and  C14_38 
REMARK   10  A    between atoms: C14_38  and  O7_39 
REMARK   11  A    between atoms: C15_41  and  O8_42 
REMARK   12  A    between atoms: N10_46  and  C16_47 
REMARK   13  A    between atoms: C16_47  and  C17_48 
REMARK   14  A    between atoms: C17_48  and  O9_49 
REMARK   15  A    between atoms: C17_48  and  C18_51 
REMARK   16  A    between atoms: C18_51  and  O10_52 
ROOT
HETATM    1  C5  UNL     1      13.944  14.997  37.292  1.00  0.00     0.255 C 
HETATM    2  O3  UNL     1      14.770  14.554  38.290  1.00  0.00    -0.354 OA
HETATM    3  C6  UNL     1      14.378  15.062  39.493  1.00  0.00     0.173 C 
HETATM    4  C8  UNL     1      13.328  16.129  39.255  1.00  0.00     0.158 C 
HETATM    5  C15 UNL     1      12.795  15.725  37.896  1.00  0.00     0.192 C 
ENDROOT
BRANCH   1   6
HETATM    6  N3  UNL     1      13.541  13.858  36.471  1.00  0.00    -0.327 N 
HETATM    7  C4  UNL     1      14.304  13.404  35.385  1.00  0.00     0.277 C 
HETATM    8  O2  UNL     1      15.371  13.982  35.089  1.00  0.00    -0.266 OA
ATOM      9  H3  UNL     1      12.671  13.374  36.697  1.00  0.00     0.165 HD
BRANCH   7  10
HETATM   10  C3  UNL     1      13.877  12.269  34.586  1.00  0.00     0.185 A 
HETATM   11  C2  UNL     1      12.674  12.286  33.885  1.00  0.00     0.293 A 
HETATM   12  N2  UNL     1      12.260  11.248  33.141  1.00  0.00    -0.153 N 
HETATM   13  O1  UNL     1      11.981  13.320  33.975  1.00  0.00    -0.265 OA
HETATM   14  C1  UNL     1      13.048  10.142  33.072  1.00  0.00     0.695 A 
ATOM     15  H2  UNL     1      11.374  11.289  32.638  1.00  0.00     0.187 HD
HETATM   16  N10 UNL     1      14.212  10.111  33.742  1.00  0.00    -0.121 N 
HETATM   17  N9  UNL     1      14.617  11.154  34.485  1.00  0.00    -0.274 N 
ATOM     18  H9  UNL     1      15.506  11.098  34.981  1.00  0.00     0.188 HD
BRANCH  14  19
HETATM   19  N1  UNL     1      12.690   9.112  32.374  1.00  0.00    -0.233 N 
ATOM     20  H12 UNL     1      13.397   8.584  31.863  1.00  0.00     0.174 HD
ATOM     21  H11 UNL     1      11.714   8.818  32.336  1.00  0.00     0.174 HD
ENDBRANCH  14  19
BRANCH  16  22
HETATM   22  C16 UNL     1      15.047   8.925  33.650  1.00  0.00     0.201 C 
BRANCH  22  23
HETATM   23  C17 UNL     1      16.288   9.107  34.473  1.00  0.00     0.162 C 
BRANCH  23  24
HETATM   24  O9  UNL     1      17.266   9.870  33.866  1.00  0.00    -0.392 OA
ATOM     25  H9  UNL     1      17.499   9.582  32.992  1.00  0.00     0.210 HD
ENDBRANCH  23  24
BRANCH  23  26
HETATM   26  C18 UNL     1      16.885   7.745  34.780  1.00  0.00     0.197 C 
BRANCH  26  27
HETATM   27  O10 UNL     1      17.672   7.853  35.930  1.00  0.00    -0.398 OA
ATOM     28  H10 UNL     1      18.583   7.738  35.685  1.00  0.00     0.209 HD
ENDBRANCH  26  27
ENDBRANCH  23  26
ENDBRANCH  22  23
ENDBRANCH  16  22
ENDBRANCH   7  10
ENDBRANCH   1   6
BRANCH   5  29
HETATM   29  O8  UNL     1      12.578  16.893  37.130  1.00  0.00    -0.389 OA
ATOM     30  H8  UNL     1      12.977  17.620  37.592  1.00  0.00     0.210 HD
ENDBRANCH   5  29
BRANCH   3  31
HETATM   31  C7  UNL     1      15.609  15.735  40.116  1.00  0.00     0.198 C 
BRANCH  31  32
HETATM   32  O4  UNL     1      16.717  15.585  39.284  1.00  0.00    -0.398 OA
ATOM     33  H4  UNL     1      17.137  16.425  39.137  1.00  0.00     0.209 HD
ENDBRANCH  31  32
ENDBRANCH   3  31
BRANCH   4  34
HETATM   34  N4  UNL     1      12.329  16.038  40.254  1.00  0.00    -0.295 N 
HETATM   35  C9  UNL     1      11.442  15.042  40.345  1.00  0.00     0.226 A 
HETATM   36  N5  UNL     1      10.629  15.238  41.395  1.00  0.00    -0.305 N 
HETATM   37  C10 UNL     1      10.994  16.397  42.008  1.00  0.00     0.161 A 
ATOM     38  H5  UNL     1       9.867  14.623  41.684  1.00  0.00     0.171 HD
HETATM   39  C11 UNL     1      12.063  16.867  41.264  1.00  0.00     0.152 A 
HETATM   40  N8  UNL     1      10.512  17.046  43.094  1.00  0.00    -0.144 N 
HETATM   41  C12 UNL     1      12.616  18.063  41.706  1.00  0.00     0.290 A 
HETATM   42  O6  UNL     1      13.577  18.517  41.064  1.00  0.00    -0.265 OA
HETATM   43  N6  UNL     1      12.105  18.682  42.797  1.00  0.00    -0.154 N 
HETATM   44  C13 UNL     1      11.067  18.197  43.498  1.00  0.00     0.684 A 
ATOM     45  H6  UNL     1      12.530  19.557  43.103  1.00  0.00     0.187 HD
BRANCH  35  46
HETATM   46  O5  UNL     1      11.289  13.908  39.524  1.00  0.00    -0.332 OA
ATOM     47  H5  UNL     1      10.981  13.039  39.752  1.00  0.00     0.221 HD
ENDBRANCH  35  46
BRANCH  44  48
HETATM   48  N7  UNL     1      10.611  18.839  44.549  1.00  0.00    -0.234 N 
ATOM     49  H72 UNL     1       9.715  19.327  44.521  1.00  0.00     0.174 HD
ATOM     50  H71 UNL     1      11.148  18.864  45.416  1.00  0.00     0.174 HD
ENDBRANCH  44  48
BRANCH  40  51
HETATM   51  C14 UNL     1       9.392  16.501  43.830  1.00  0.00     0.316 C 
BRANCH  51  52
HETATM   52  O7  UNL     1       9.679  16.264  45.155  1.00  0.00    -0.381 OA
ATOM     53  H7  UNL     1       9.430  16.982  45.725  1.00  0.00     0.211 HD
ENDBRANCH  51  52
ENDBRANCH  40  51
ENDBRANCH   4  34
TORSDOF 16
ENDMDL
MODEL 3
REMARK VINA RESULT: -8.082489097      1.916      3.500
REMARK  16 active torsions:
REMARK  status: ('A' for Active; 'I' for Inactive)
REMARK    1  A    between atoms: N1_1  and  C1_4 
REMARK    2  A    between atoms: C3_9  and  C4_10 
REMARK       I    between atoms: C4_10  and  N3_12 
REMARK    3  A    between atoms: N3_12  and  C5_14 
REMARK    4  A    between atoms: C6_16  and  C7_17 
REMARK    5  A    between atoms: C7_17  and  O4_18 
REMARK    6  A    between atoms: C8_20  and  N4_21 
REMARK    7  A    between atoms: C9_22  and  O5_23 
REMARK    8  A    between atoms: C13_33  and  N7_34 
REMARK    9  A    between atoms: N8_37  and  C14_38 
REMARK   10  A    between atoms: C14_38  and  O7_39 
REMARK   11  A    between atoms: C15_41  and  O8_42 
REMARK   12  A    between atoms: N10_46  and  C16_47 
REMARK   13  A    between atoms: C16_47  and  C17_48 
REMARK   14  A    between atoms: C17_48  and  O9_49 
REMARK   15  A    between atoms: C17_48  and  C18_51 
REMARK   16  A    between atoms: C18_51  and  O10_52 
ROOT
HETATM    1  C5  UNL     1      13.213  16.375  40.003  1.00  0.00     0.255 C 
HETATM    2  O3  UNL     1      13.452  15.312  40.833  1.00  0.00    -0.354 OA
HETATM    3  C6  UNL     1      12.354  15.048  41.596  1.00  0.00     0.173 C 
HETATM    4  C8  UNL     1      11.358  16.179  41.431  1.00  0.00     0.158 C 
HETATM    5  C15 UNL     1      11.775  16.749  40.091  1.00  0.00     0.192 C 
ENDROOT
BRANCH   1   6
HETATM    6  N3  UNL     1      13.639  16.025  38.651  1.00  0.00    -0.327 N 
HETATM    7  C4  UNL     1      13.808  16.985  37.642  1.00  0.00     0.277 C 
HETATM    8  O2  UNL     1      13.591  18.190  37.886  1.00  0.00    -0.266 OA
ATOM      9  H3  UNL     1      13.821  15.045  38.432  1.00  0.00     0.165 HD
BRANCH   7  10
HETATM   10  C3  UNL     1      14.233  16.606  36.306  1.00  0.00     0.185 A 
HETATM   11  C2  UNL     1      15.298  15.733  36.103  1.00  0.00     0.293 A 
HETATM   12  N2  UNL     1      15.707  15.369  34.877  1.00  0.00    -0.153 N 
HETATM   13  O1  UNL     1      15.871  15.293  37.120  1.00  0.00    -0.265 OA
HETATM   14  C1  UNL     1      15.053  15.874  33.797  1.00  0.00     0.695 A 
ATOM     15  H2  UNL     1      16.490  14.728  34.758  1.00  0.00     0.187 HD
HETATM   16  N10 UNL     1      14.022  16.717  33.976  1.00  0.00    -0.121 N 
HETATM   17  N9  UNL     1      13.621  17.075  35.207  1.00  0.00    -0.274 N 
ATOM     18  H9  UNL     1      12.835  17.717  35.309  1.00  0.00     0.188 HD
BRANCH  14  19
HETATM   19  N1  UNL     1      15.414  15.560  32.593  1.00  0.00    -0.233 N 
ATOM     20  H12 UNL     1      15.115  16.146  31.814  1.00  0.00     0.174 HD
ATOM     21  H11 UNL     1      15.996  14.742  32.417  1.00  0.00     0.174 HD
ENDBRANCH  14  19
BRANCH  16  22
HETATM   22  C16 UNL     1      13.328  17.239  32.811  1.00  0.00     0.201 C 
BRANCH  22  23
HETATM   23  C17 UNL     1      14.113  18.368  32.211  1.00  0.00     0.162 C 
BRANCH  23  24
HETATM   24  O9  UNL     1      14.423  19.379  33.099  1.00  0.00    -0.392 OA
ATOM     25  H9  UNL     1      14.776  20.162  32.691  1.00  0.00     0.210 HD
ENDBRANCH  23  24
BRANCH  23  26
HETATM   26  C18 UNL     1      13.313  18.979  31.073  1.00  0.00     0.197 C 
BRANCH  26  27
HETATM   27  O10 UNL     1      12.087  19.420  31.579  1.00  0.00    -0.398 OA
ATOM     28  H10 UNL     1      11.390  19.017  31.076  1.00  0.00     0.209 HD
ENDBRANCH  26  27
ENDBRANCH  23  26
ENDBRANCH  22  23
ENDBRANCH  16  22
ENDBRANCH   7  10
ENDBRANCH   1   6
BRANCH   5  29
HETATM   29  O8  UNL     1      11.702  18.159  40.156  1.00  0.00    -0.389 OA
ATOM     30  H8  UNL     1      10.829  18.389  40.450  1.00  0.00     0.210 HD
ENDBRANCH   5  29
BRANCH   3  31
HETATM   31  C7  UNL     1      12.819  15.032  43.059  1.00  0.00     0.198 C 
BRANCH  31  32
HETATM   32  O4  UNL     1      12.890  16.332  43.559  1.00  0.00    -0.398 OA
ATOM     33  H4  UNL     1      13.494  16.853  43.043  1.00  0.00     0.209 HD
ENDBRANCH  31  32
ENDBRANCH   3  31
BRANCH   4  34
HETATM   34  N4  UNL     1      10.046  15.649  41.386  1.00  0.00    -0.295 N 
HETATM   35  C9  UNL     1       9.462  15.174  40.282  1.00  0.00     0.226 A 
HETATM   36  N5  UNL     1       8.221  14.742  40.561  1.00  0.00    -0.305 N 
HETATM   37  C10 UNL     1       7.987  14.943  41.886  1.00  0.00     0.161 A 
ATOM     38  H5  UNL     1       7.567  14.334  39.893  1.00  0.00     0.171 HD
HETATM   39  C11 UNL     1       9.154  15.511  42.368  1.00  0.00     0.152 A 
HETATM   40  N8  UNL     1       6.914  14.690  42.672  1.00  0.00    -0.144 N 
HETATM   41  C12 UNL     1       9.155  15.812  43.724  1.00  0.00     0.290 A 
HETATM   42  O6  UNL     1      10.184  16.323  44.194  1.00  0.00    -0.265 OA
HETATM   43  N6  UNL     1       8.060  15.543  44.477  1.00  0.00    -0.154 N 
HETATM   44  C13 UNL     1       6.944  14.990  43.978  1.00  0.00     0.684 A 
ATOM     45  H6  UNL     1       8.086  15.771  45.471  1.00  0.00     0.187 HD
BRANCH  35  46
HETATM   46  O5  UNL     1       9.971  15.086  38.971  1.00  0.00    -0.332 OA
ATOM     47  H5  UNL     1      10.464  14.384  38.564  1.00  0.00     0.221 HD
ENDBRANCH  35  46
BRANCH  44  48
HETATM   48  N7  UNL     1       5.911  14.751  44.753  1.00  0.00    -0.234 N 
ATOM     49  H72 UNL     1       6.004  14.179  45.593  1.00  0.00     0.174 HD
ATOM     50  H71 UNL     1       4.993  15.134  44.528  1.00  0.00     0.174 HD
ENDBRANCH  44  48
BRANCH  40  51
HETATM   51  C14 UNL     1       5.724  14.093  42.107  1.00  0.00     0.316 C 
BRANCH  51  52
HETATM   52  O7  UNL     1       5.991  13.004  41.310  1.00  0.00    -0.381 OA
ATOM     53  H7  UNL     1       5.649  13.092  40.428  1.00  0.00     0.211 HD
ENDBRANCH  51  52
ENDBRANCH  40  51
ENDBRANCH   4  34
TORSDOF 16
ENDMDL
MODEL 4
REMARK VINA RESULT: -8.055296391      0.972      2.295
REMARK  16 active torsions:
REMARK  status: ('A' for Active; 'I' for Inactive)
REMARK    1  A    between atoms: N1_1  and  C1_4 
REMARK    2  A    between atoms: C3_9  and  C4_10 
REMARK       I    between atoms: C4_10  and  N3_12 
REMARK    3  A    between atoms: N3_12  and  C5_14 
REMARK    4  A    between atoms: C6_16  and  C7_17 
REMARK    5  A    between atoms: C7_17  and  O4_18 
REMARK    6  A    between atoms: C8_20  and  N4_21 
REMARK    7  A    between atoms: C9_22  and  O5_23 
REMARK    8  A    between atoms: C13_33  and  N7_34 
REMARK    9  A    between atoms: N8_37  and  C14_38 
REMARK   10  A    between atoms: C14_38  and  O7_39 
REMARK   11  A    between atoms: C15_41  and  O8_42 
REMARK   12  A    between atoms: N10_46  and  C16_47 
REMARK   13  A    between atoms: C16_47  and  C17_48 
REMARK   14  A    between atoms: C17_48  and  O9_49 
REMARK   15  A    between atoms: C17_48  and  C18_51 
REMARK   16  A    between atoms: C18_51  and  O10_52 
ROOT
HETATM    1  C5  UNL     1      13.178  16.444  40.513  1.00  0.00     0.255 C 
HETATM    2  O3  UNL     1      13.336  15.315  41.272  1.00  0.00    -0.354 OA
HETATM    3  C6  UNL     1      12.236  15.108  42.051  1.00  0.00     0.173 C 
HETATM    4  C8  UNL     1      11.347  16.334  41.980  1.00  0.00     0.158 C 
HETATM    5  C15 UNL     1      11.784  16.943  40.664  1.00  0.00     0.192 C 
ENDROOT
BRANCH   1   6
HETATM    6  N3  UNL     1      13.538  16.137  39.130  1.00  0.00    -0.327 N 
HETATM    7  C4  UNL     1      14.869  15.987  38.714  1.00  0.00     0.277 C 
HETATM    8  O2  UNL     1      15.798  16.117  39.538  1.00  0.00    -0.266 OA
ATOM      9  H3  UNL     1      12.792  16.029  38.442  1.00  0.00     0.165 HD
BRANCH   7  10
HETATM   10  C3  UNL     1      15.195  15.683  37.332  1.00  0.00     0.185 A 
HETATM   11  C2  UNL     1      14.659  16.420  36.280  1.00  0.00     0.293 A 
HETATM   12  N2  UNL     1      14.947  16.157  34.995  1.00  0.00    -0.153 N 
HETATM   13  O1  UNL     1      13.885  17.352  36.579  1.00  0.00    -0.265 OA
HETATM   14  C1  UNL     1      15.796  15.132  34.716  1.00  0.00     0.695 A 
ATOM     15  H2  UNL     1      14.539  16.713  34.245  1.00  0.00     0.187 HD
HETATM   16  N10 UNL     1      16.323  14.411  35.721  1.00  0.00    -0.121 N 
HETATM   17  N9  UNL     1      16.028  14.683  37.003  1.00  0.00    -0.274 N 
ATOM     18  H9  UNL     1      16.445  14.116  37.742  1.00  0.00     0.188 HD
BRANCH  14  19
HETATM   19  N1  UNL     1      16.099  14.832  33.494  1.00  0.00    -0.233 N 
ATOM     20  H12 UNL     1      15.407  14.368  32.907  1.00  0.00     0.174 HD
ATOM     21  H11 UNL     1      17.016  15.060  33.110  1.00  0.00     0.174 HD
ENDBRANCH  14  19
BRANCH  16  22
HETATM   22  C16 UNL     1      17.236  13.325  35.406  1.00  0.00     0.201 C 
BRANCH  22  23
HETATM   23  C17 UNL     1      16.582  12.006  35.696  1.00  0.00     0.162 C 
BRANCH  23  24
HETATM   24  O9  UNL     1      15.296  12.106  36.188  1.00  0.00    -0.392 OA
ATOM     25  H9  UNL     1      15.160  12.834  36.782  1.00  0.00     0.210 HD
ENDBRANCH  23  24
BRANCH  23  26
HETATM   26  C18 UNL     1      17.414  11.255  36.720  1.00  0.00     0.197 C 
BRANCH  26  27
HETATM   27  O10 UNL     1      18.724  11.739  36.671  1.00  0.00    -0.398 OA
ATOM     28  H10 UNL     1      19.306  11.017  36.464  1.00  0.00     0.209 HD
ENDBRANCH  26  27
ENDBRANCH  23  26
ENDBRANCH  22  23
ENDBRANCH  16  22
ENDBRANCH   7  10
ENDBRANCH   1   6
BRANCH   5  29
HETATM   29  O8  UNL     1      11.846  18.347  40.812  1.00  0.00    -0.389 OA
ATOM     30  H8  UNL     1      11.072  18.714  40.401  1.00  0.00     0.210 HD
ENDBRANCH   5  29
BRANCH   3  31
HETATM   31  C7  UNL     1      12.733  14.962  43.496  1.00  0.00     0.198 C 
BRANCH  31  32
HETATM   32  O4  UNL     1      12.522  16.145  44.203  1.00  0.00    -0.398 OA
ATOM     33  H4  UNL     1      11.607  16.228  44.444  1.00  0.00     0.209 HD
ENDBRANCH  31  32
ENDBRANCH   3  31
BRANCH   4  34
HETATM   34  N4  UNL     1       9.991  15.931  41.943  1.00  0.00    -0.295 N 
HETATM   35  C9  UNL     1       9.113  16.144  42.927  1.00  0.00     0.226 A 
HETATM   36  N5  UNL     1       7.911  15.647  42.596  1.00  0.00    -0.305 N 
HETATM   37  C10 UNL     1       8.006  15.091  41.358  1.00  0.00     0.161 A 
ATOM     38  H5  UNL     1       7.071  15.681  43.173  1.00  0.00     0.171 HD
HETATM   39  C11 UNL     1       9.324  15.290  40.982  1.00  0.00     0.152 A 
HETATM   40  N8  UNL     1       7.103  14.462  40.568  1.00  0.00    -0.144 N 
HETATM   41  C12 UNL     1       9.668  14.797  39.729  1.00  0.00     0.290 A 
HETATM   42  O6  UNL     1      10.841  14.957  39.357  1.00  0.00    -0.265 OA
HETATM   43  N6  UNL     1       8.735  14.175  38.968  1.00  0.00    -0.154 N 
HETATM   44  C13 UNL     1       7.464  13.998  39.363  1.00  0.00     0.684 A 
ATOM     45  H6  UNL     1       9.011  13.823  38.052  1.00  0.00     0.187 HD
BRANCH  35  46
HETATM   46  O5  UNL     1       9.305  16.783  44.169  1.00  0.00    -0.332 OA
ATOM     47  H5  UNL     1       9.299  17.711  44.374  1.00  0.00     0.221 HD
ENDBRANCH  35  46
BRANCH  44  48
HETATM   48  N7  UNL     1       6.600  13.387  38.585  1.00  0.00    -0.234 N 
ATOM     49  H72 UNL     1       6.786  12.450  38.224  1.00  0.00     0.174 HD
ATOM     50  H71 UNL     1       5.724  13.839  38.325  1.00  0.00     0.174 HD
ENDBRANCH  44  48
BRANCH  40  51
HETATM   51  C14 UNL     1       5.740  14.287  41.018  1.00  0.00     0.316 C 
BRANCH  51  52
HETATM   52  O7  UNL     1       5.477  13.011  41.460  1.00  0.00    -0.381 OA
ATOM     53  H7  UNL     1       4.565  12.762  41.361  1.00  0.00     0.211 HD
ENDBRANCH  51  52
ENDBRANCH  40  51
ENDBRANCH   4  34
TORSDOF 16
ENDMDL
MODEL 5
REMARK VINA RESULT: -7.898842370      3.663      5.800
REMARK  16 active torsions:
REMARK  status: ('A' for Active; 'I' for Inactive)
REMARK    1  A    between atoms: N1_1  and  C1_4 
REMARK    2  A    between atoms: C3_9  and  C4_10 
REMARK       I    between atoms: C4_10  and  N3_12 
REMARK    3  A    between atoms: N3_12  and  C5_14 
REMARK    4  A    between atoms: C6_16  and  C7_17 
REMARK    5  A    between atoms: C7_17  and  O4_18 
REMARK    6  A    between atoms: C8_20  and  N4_21 
REMARK    7  A    between atoms: C9_22  and  O5_23 
REMARK    8  A    between atoms: C13_33  and  N7_34 
REMARK    9  A    between atoms: N8_37  and  C14_38 
REMARK   10  A    between atoms: C14_38  and  O7_39 
REMARK   11  A    between atoms: C15_41  and  O8_42 
REMARK   12  A    between atoms: N10_46  and  C16_47 
REMARK   13  A    between atoms: C16_47  and  C17_48 
REMARK   14  A    between atoms: C17_48  and  O9_49 
REMARK   15  A    between atoms: C17_48  and  C18_51 
REMARK   16  A    between atoms: C18_51  and  O10_52 
ROOT
HETATM    1  C5  UNL     1      14.089  16.198  37.232  1.00  0.00     0.255 C 
HETATM    2  O3  UNL     1      14.617  15.065  37.789  1.00  0.00    -0.354 OA
HETATM    3  C6  UNL     1      14.339  15.016  39.123  1.00  0.00     0.173 C 
HETATM    4  C8  UNL     1      13.765  16.352  39.553  1.00  0.00     0.158 C 
HETATM    5  C15 UNL     1      13.234  16.885  38.238  1.00  0.00     0.192 C 
ENDROOT
BRANCH   1   6
HETATM    6  N3  UNL     1      13.371  15.835  36.013  1.00  0.00    -0.327 N 
HETATM    7  C4  UNL     1      13.680  16.391  34.762  1.00  0.00     0.277 C 
HETATM    8  O2  UNL     1      14.599  17.231  34.664  1.00  0.00    -0.266 OA
ATOM      9  H3  UNL     1      12.616  15.152  36.073  1.00  0.00     0.165 HD
BRANCH   7  10
HETATM   10  C3  UNL     1      12.948  16.011  33.567  1.00  0.00     0.185 A 
HETATM   11  C2  UNL     1      12.872  14.683  33.154  1.00  0.00     0.293 A 
HETATM   12  N2  UNL     1      12.200  14.310  32.054  1.00  0.00    -0.153 N 
HETATM   13  O1  UNL     1      13.462  13.838  33.856  1.00  0.00    -0.265 OA
HETATM   14  C1  UNL     1      11.571  15.266  31.319  1.00  0.00     0.695 A 
ATOM     15  H2  UNL     1      12.161  13.330  31.775  1.00  0.00     0.187 HD
HETATM   16  N10 UNL     1      11.635  16.551  31.705  1.00  0.00    -0.121 N 
HETATM   17  N9  UNL     1      12.310  16.915  32.808  1.00  0.00    -0.274 N 
ATOM     18  H9  UNL     1      12.339  17.900  33.073  1.00  0.00     0.188 HD
BRANCH  14  19
HETATM   19  N1  UNL     1      10.917  14.958  30.245  1.00  0.00    -0.233 N 
ATOM     20  H12 UNL     1      11.372  14.393  29.528  1.00  0.00     0.174 HD
ATOM     21  H11 UNL     1       9.955  15.266  30.110  1.00  0.00     0.174 HD
ENDBRANCH  14  19
BRANCH  16  22
HETATM   22  C16 UNL     1      10.949  17.560  30.915  1.00  0.00     0.201 C 
BRANCH  22  23
HETATM   23  C17 UNL     1      11.916  18.628  30.498  1.00  0.00     0.162 C 
BRANCH  23  24
HETATM   24  O9  UNL     1      12.301  19.476  31.519  1.00  0.00    -0.392 OA
ATOM     25  H9  UNL     1      12.254  20.399  31.298  1.00  0.00     0.210 HD
ENDBRANCH  23  24
BRANCH  23  26
HETATM   26  C18 UNL     1      11.283  19.474  29.407  1.00  0.00     0.197 C 
BRANCH  26  27
HETATM   27  O10 UNL     1      12.062  20.619  29.223  1.00  0.00    -0.398 OA
ATOM     28  H10 UNL     1      11.508  21.310  28.879  1.00  0.00     0.209 HD
ENDBRANCH  26  27
ENDBRANCH  23  26
ENDBRANCH  22  23
ENDBRANCH  16  22
ENDBRANCH   7  10
ENDBRANCH   1   6
BRANCH   5  29
HETATM   29  O8  UNL     1      13.514  18.268  38.165  1.00  0.00    -0.389 OA
ATOM     30  H8  UNL     1      12.687  18.724  38.060  1.00  0.00     0.210 HD
ENDBRANCH   5  29
BRANCH   3  31
HETATM   31  C7  UNL     1      15.675  14.814  39.852  1.00  0.00     0.198 C 
BRANCH  31  32
HETATM   32  O4  UNL     1      16.610  15.753  39.419  1.00  0.00    -0.398 OA
ATOM     33  H4  UNL     1      16.993  16.205  40.162  1.00  0.00     0.209 HD
ENDBRANCH  31  32
ENDBRANCH   3  31
BRANCH   4  34
HETATM   34  N4  UNL     1      12.723  16.138  40.487  1.00  0.00    -0.295 N 
HETATM   35  C9  UNL     1      11.982  15.028  40.550  1.00  0.00     0.226 A 
HETATM   36  N5  UNL     1      11.079  15.126  41.538  1.00  0.00    -0.305 N 
HETATM   37  C10 UNL     1      11.233  16.338  42.138  1.00  0.00     0.161 A 
ATOM     38  H5  UNL     1      10.395  14.415  41.796  1.00  0.00     0.171 HD
HETATM   39  C11 UNL     1      12.272  16.942  41.452  1.00  0.00     0.152 A 
HETATM   40  N8  UNL     1      10.589  16.934  43.171  1.00  0.00    -0.144 N 
HETATM   41  C12 UNL     1      12.619  18.213  41.892  1.00  0.00     0.290 A 
HETATM   42  O6  UNL     1      13.547  18.788  41.301  1.00  0.00    -0.265 OA
HETATM   43  N6  UNL     1      11.951  18.775  42.929  1.00  0.00    -0.154 N 
HETATM   44  C13 UNL     1      10.946  18.161  43.574  1.00  0.00     0.684 A 
ATOM     45  H6  UNL     1      12.225  19.709  43.234  1.00  0.00     0.187 HD
BRANCH  35  46
HETATM   46  O5  UNL     1      12.049  13.866  39.755  1.00  0.00    -0.332 OA
ATOM     47  H5  UNL     1      11.403  13.511  39.157  1.00  0.00     0.221 HD
ENDBRANCH  35  46
BRANCH  44  48
HETATM   48  N7  UNL     1      10.333  18.752  44.573  1.00  0.00    -0.234 N 
ATOM     49  H72 UNL     1       9.444  19.236  44.435  1.00  0.00     0.174 HD
ATOM     50  H71 UNL     1      10.735  18.740  45.510  1.00  0.00     0.174 HD
ENDBRANCH  44  48
BRANCH  40  51
HETATM   51  C14 UNL     1       9.511  16.248  43.848  1.00  0.00     0.316 C 
BRANCH  51  52
HETATM   52  O7  UNL     1       9.698  16.155  45.207  1.00  0.00    -0.381 OA
ATOM     53  H7  UNL     1       8.931  15.839  45.670  1.00  0.00     0.211 HD
ENDBRANCH  51  52
ENDBRANCH  40  51
ENDBRANCH   4  34
TORSDOF 16
ENDMDL
