MODEL 1
REMARK VINA RESULT: -8.857574774      0.000      0.000
REMARK  14 active torsions:
REMARK  status: ('A' for Active; 'I' for Inactive)
REMARK    1  A    between atoms: C2_2  and  N1_3 
REMARK       I    between atoms: N1_3  and  C3_5 
REMARK    2  A    between atoms: C3_5  and  C4_7 
REMARK    3  A    between atoms: N2_9  and  C6_10 
REMARK    4  A    between atoms: C6_10  and  C7_11 
REMARK    5  A    between atoms: C8_13  and  N3_14 
REMARK    6  A    between atoms: C9_15  and  N4_16 
REMARK    7  A    between atoms: N6_21  and  C10_22 
REMARK    8  A    between atoms: C10_22  and  C11_23 
REMARK    9  A    between atoms: C10_22  and  C13_34 
REMARK       I    between atoms: C11_23  and  N7_25 
REMARK   10  A    between atoms: N7_25  and  N8_27 
REMARK       I    between atoms: N8_27  and  C12_29 
REMARK   11  A    between atoms: C13_34  and  O4_36 
REMARK   12  A    between atoms: C16_40  and  O6_41 
REMARK   13  A    between atoms: C17_43  and  O7_44 
REMARK   14  A    between atoms: C18_46  and  O8_47 
ROOT
HETATM    1  C7  UNL     1      11.593  17.642  41.506  1.00  0.00     0.175 C 
HETATM    2  O2  UNL     1      11.058  16.425  41.121  1.00  0.00    -0.353 OA
HETATM    3  C8  UNL     1       9.827  16.128  41.655  1.00  0.00     0.282 C 
HETATM    4  C16 UNL     1       9.368  17.153  42.668  1.00  0.00     0.199 C 
HETATM    5  C17 UNL     1      10.498  17.351  43.697  1.00  0.00     0.182 C 
HETATM    6  C18 UNL     1      11.763  17.787  43.002  1.00  0.00     0.180 C 
ENDROOT
BRANCH   3   7
HETATM    7  N3  UNL     1       8.836  15.776  40.679  1.00  0.00    -0.100 N 
HETATM    8  C9  UNL     1       8.838  16.176  39.405  1.00  0.00     0.699 A 
HETATM    9  N5  UNL     1       7.759  15.643  38.820  1.00  0.00    -0.125 N 
HETATM   10  N6  UNL     1       7.068  14.915  39.675  1.00  0.00    -0.211 N 
ATOM     11  H5  UNL     1       7.504  15.782  37.843  1.00  0.00     0.206 HD
HETATM   12  C15 UNL     1       7.759  15.007  40.852  1.00  0.00     0.361 A 
HETATM   13  O5  UNL     1       7.345  14.408  41.879  1.00  0.00    -0.244 OA
BRANCH   8  14
HETATM   14  N4  UNL     1       9.726  16.954  38.814  1.00  0.00    -0.233 N 
ATOM     15  H42 UNL     1      10.706  17.046  39.081  1.00  0.00     0.174 HD
ATOM     16  H41 UNL     1       9.573  17.569  38.015  1.00  0.00     0.174 HD
ENDBRANCH   8  14
BRANCH  10  17
HETATM   17  C10 UNL     1       5.819  14.165  39.445  1.00  0.00     0.235 C 
BRANCH  17  18
HETATM   18  C11 UNL     1       5.852  13.469  38.163  1.00  0.00     0.263 C 
HETATM   19  O3  UNL     1       5.794  14.070  37.070  1.00  0.00    -0.269 OA
HETATM   20  N7  UNL     1       5.957  12.057  38.155  1.00  0.00    -0.266 N 
ATOM     21  H7  UNL     1       5.996  11.558  39.044  1.00  0.00     0.190 HD
BRANCH  20  22
HETATM   22  N8  UNL     1       6.008  11.317  36.946  1.00  0.00    -0.271 N 
HETATM   23  C12 UNL     1       6.787  10.136  36.849  1.00  0.00     0.200 C 
HETATM   24  N9  UNL     1       7.648  10.027  35.880  1.00  0.00    -0.372 N 
HETATM   25  N10 UNL     1       6.677   9.060  37.760  1.00  0.00    -0.062 NA
ATOM     26  H92 UNL     1       7.728  10.804  35.224  1.00  0.00     0.158 HD
ATOM     27  H91 UNL     1       8.209   9.178  35.810  1.00  0.00     0.158 HD
ATOM     28  H8  UNL     1       5.478  11.637  36.137  1.00  0.00     0.189 HD
ENDBRANCH  20  22
ENDBRANCH  17  18
BRANCH  17  29
HETATM   29  C13 UNL     1       4.674  15.109  39.662  1.00  0.00     0.148 C 
HETATM   30  C14 UNL     1       4.000  14.806  40.987  1.00  0.00     0.042 C 
BRANCH  29  31
HETATM   31  O4  UNL     1       5.254  16.395  39.813  1.00  0.00    -0.393 OA
ATOM     32  H4  UNL     1       4.645  16.895  40.345  1.00  0.00     0.210 HD
ENDBRANCH  29  31
ENDBRANCH  17  29
ENDBRANCH  10  17
ENDBRANCH   3   7
BRANCH   4  33
HETATM   33  O6  UNL     1       8.271  16.701  43.399  1.00  0.00    -0.388 OA
ATOM     34  H6  UNL     1       7.571  17.342  43.416  1.00  0.00     0.210 HD
ENDBRANCH   4  33
BRANCH   1  35
HETATM   35  C6  UNL     1      12.824  17.961  40.725  1.00  0.00     0.184 C 
BRANCH  35  36
HETATM   36  N2  UNL     1      13.603  16.833  40.291  1.00  0.00    -0.284 N 
HETATM   37  C5  UNL     1      14.146  16.675  39.063  1.00  0.00     0.148 A 
HETATM   38  C4  UNL     1      14.812  15.464  39.015  1.00  0.00     0.134 A 
HETATM   39  N12 UNL     1      14.646  14.919  40.248  1.00  0.00    -0.280 N 
HETATM   40  N11 UNL     1      13.926  15.753  40.976  1.00  0.00    -0.240 N 
ATOM     41  H12 UNL     1      15.013  14.019  40.559  1.00  0.00     0.189 HD
ATOM     42  H11 UNL     1      13.655  15.585  41.945  1.00  0.00     0.208 HD
BRANCH  38  43
HETATM   43  C3  UNL     1      15.537  14.868  37.899  1.00  0.00     0.271 C 
HETATM   44  N1  UNL     1      15.296  15.313  36.577  1.00  0.00    -0.356 N 
ATOM     45  H1  UNL     1      14.613  16.053  36.417  1.00  0.00     0.162 HD
HETATM   46  O1  UNL     1      16.380  13.956  38.087  1.00  0.00    -0.266 OA
BRANCH  44  47
HETATM   47  C2  UNL     1      16.001  14.737  35.444  1.00  0.00     0.118 C 
HETATM   48  C1  UNL     1      15.612  15.405  34.150  1.00  0.00     0.026 C 
ENDBRANCH  44  47
ENDBRANCH  38  43
ENDBRANCH  35  36
ENDBRANCH   1  35
BRANCH   5  49
HETATM   49  O7  UNL     1      10.081  18.335  44.586  1.00  0.00    -0.390 OA
ATOM     50  H7  UNL     1       9.738  19.055  44.070  1.00  0.00     0.210 HD
ENDBRANCH   5  49
BRANCH   6  51
HETATM   51  O8  UNL     1      11.979  19.144  43.297  1.00  0.00    -0.390 OA
ATOM     52  H8  UNL     1      12.841  19.234  43.687  1.00  0.00     0.210 HD
ENDBRANCH   6  51
TORSDOF 14
ENDMDL
MODEL 2
REMARK VINA RESULT: -8.772774561      1.160      1.471
REMARK  14 active torsions:
REMARK  status: ('A' for Active; 'I' for Inactive)
REMARK    1  A    between atoms: C2_2  and  N1_3 
REMARK       I    between atoms: N1_3  and  C3_5 
REMARK    2  A    between atoms: C3_5  and  C4_7 
REMARK    3  A    between atoms: N2_9  and  C6_10 
REMARK    4  A    between atoms: C6_10  and  C7_11 
REMARK    5  A    between atoms: C8_13  and  N3_14 
REMARK    6  A    between atoms: C9_15  and  N4_16 
REMARK    7  A    between atoms: N6_21  and  C10_22 
REMARK    8  A    between atoms: C10_22  and  C11_23 
REMARK    9  A    between atoms: C10_22  and  C13_34 
REMARK       I    between atoms: C11_23  and  N7_25 
REMARK   10  A    between atoms: N7_25  and  N8_27 
REMARK       I    between atoms: N8_27  and  C12_29 
REMARK   11  A    between atoms: C13_34  and  O4_36 
REMARK   12  A    between atoms: C16_40  and  O6_41 
REMARK   13  A    between atoms: C17_43  and  O7_44 
REMARK   14  A    between atoms: C18_46  and  O8_47 
ROOT
HETATM    1  C7  UNL     1      11.558  17.666  41.671  1.00  0.00     0.175 C 
HETATM    2  O2  UNL     1      11.061  16.410  41.364  1.00  0.00    -0.353 OA
HETATM    3  C8  UNL     1       9.858  16.094  41.948  1.00  0.00     0.282 C 
HETATM    4  C16 UNL     1       9.388  17.152  42.922  1.00  0.00     0.199 C 
HETATM    5  C17 UNL     1      10.538  17.446  43.905  1.00  0.00     0.182 C 
HETATM    6  C18 UNL     1      11.764  17.894  43.151  1.00  0.00     0.180 C 
ENDROOT
BRANCH   3   7
HETATM    7  N3  UNL     1       8.856  15.655  41.022  1.00  0.00    -0.100 N 
HETATM    8  C9  UNL     1       8.757  16.055  39.752  1.00  0.00     0.699 A 
HETATM    9  N5  UNL     1       7.702  15.426  39.219  1.00  0.00    -0.125 N 
HETATM   10  N6  UNL     1       7.125  14.637  40.104  1.00  0.00    -0.211 N 
ATOM     11  H5  UNL     1       7.386  15.542  38.257  1.00  0.00     0.206 HD
HETATM   12  C15 UNL     1       7.863  14.790  41.245  1.00  0.00     0.361 A 
HETATM   13  O5  UNL     1       7.557  14.155  42.288  1.00  0.00    -0.244 OA
BRANCH   8  14
HETATM   14  N4  UNL     1       9.539  16.911  39.121  1.00  0.00    -0.233 N 
ATOM     15  H42 UNL     1       9.241  17.797  38.713  1.00  0.00     0.174 HD
ATOM     16  H41 UNL     1      10.540  16.822  38.952  1.00  0.00     0.174 HD
ENDBRANCH   8  14
BRANCH  10  17
HETATM   17  C10 UNL     1       5.938  13.777  39.933  1.00  0.00     0.235 C 
BRANCH  17  18
HETATM   18  C11 UNL     1       5.989  13.058  38.664  1.00  0.00     0.263 C 
HETATM   19  O3  UNL     1       7.063  12.767  38.098  1.00  0.00    -0.269 OA
HETATM   20  N7  UNL     1       4.772  12.671  38.050  1.00  0.00    -0.266 N 
ATOM     21  H7  UNL     1       3.891  12.913  38.502  1.00  0.00     0.190 HD
BRANCH  20  22
HETATM   22  N8  UNL     1       4.746  11.958  36.825  1.00  0.00    -0.271 N 
HETATM   23  C12 UNL     1       3.547  11.844  36.076  1.00  0.00     0.200 C 
HETATM   24  N9  UNL     1       3.140  10.663  35.714  1.00  0.00    -0.372 N 
HETATM   25  N10 UNL     1       2.763  12.958  35.696  1.00  0.00    -0.062 NA
ATOM     26  H92 UNL     1       3.705   9.860  35.988  1.00  0.00     0.158 HD
ATOM     27  H91 UNL     1       2.277  10.581  35.175  1.00  0.00     0.158 HD
ATOM     28  H8  UNL     1       5.599  11.522  36.478  1.00  0.00     0.189 HD
ENDBRANCH  20  22
ENDBRANCH  17  18
BRANCH  17  29
HETATM   29  C13 UNL     1       4.724  14.623  40.171  1.00  0.00     0.148 C 
HETATM   30  C14 UNL     1       4.117  14.286  41.521  1.00  0.00     0.042 C 
BRANCH  29  31
HETATM   31  O4  UNL     1       5.195  15.957  40.286  1.00  0.00    -0.393 OA
ATOM     32  H4  UNL     1       4.830  16.294  41.097  1.00  0.00     0.210 HD
ENDBRANCH  29  31
ENDBRANCH  17  29
ENDBRANCH  10  17
ENDBRANCH   3   7
BRANCH   4  33
HETATM   33  O6  UNL     1       8.331  16.697  43.708  1.00  0.00    -0.388 OA
ATOM     34  H6  UNL     1       7.819  17.415  44.061  1.00  0.00     0.210 HD
ENDBRANCH   4  33
BRANCH   1  35
HETATM   35  C6  UNL     1      12.753  17.991  40.838  1.00  0.00     0.184 C 
BRANCH  35  36
HETATM   36  N2  UNL     1      13.548  16.870  40.415  1.00  0.00    -0.284 N 
HETATM   37  C5  UNL     1      14.108  16.716  39.194  1.00  0.00     0.148 A 
HETATM   38  C4  UNL     1      14.787  15.512  39.156  1.00  0.00     0.134 A 
HETATM   39  N12 UNL     1      14.610  14.967  40.388  1.00  0.00    -0.280 N 
HETATM   40  N11 UNL     1      13.874  15.795  41.105  1.00  0.00    -0.240 N 
ATOM     41  H12 UNL     1      14.983  14.071  40.704  1.00  0.00     0.189 HD
ATOM     42  H11 UNL     1      13.593  15.625  42.071  1.00  0.00     0.208 HD
BRANCH  38  43
HETATM   43  C3  UNL     1      15.531  14.922  38.050  1.00  0.00     0.271 C 
HETATM   44  N1  UNL     1      15.281  15.342  36.721  1.00  0.00    -0.356 N 
ATOM     45  H1  UNL     1      14.577  16.060  36.549  1.00  0.00     0.162 HD
HETATM   46  O1  UNL     1      16.399  14.037  38.252  1.00  0.00    -0.266 OA
BRANCH  44  47
HETATM   47  C2  UNL     1      16.005  14.771  35.597  1.00  0.00     0.118 C 
HETATM   48  C1  UNL     1      15.595  15.405  34.293  1.00  0.00     0.026 C 
ENDBRANCH  44  47
ENDBRANCH  38  43
ENDBRANCH  35  36
ENDBRANCH   1  35
BRANCH   5  49
HETATM   49  O7  UNL     1      10.107  18.458  44.756  1.00  0.00    -0.390 OA
ATOM     50  H7  UNL     1      10.773  18.568  45.424  1.00  0.00     0.210 HD
ENDBRANCH   5  49
BRANCH   6  51
HETATM   51  O8  UNL     1      11.934  19.271  43.371  1.00  0.00    -0.390 OA
ATOM     52  H8  UNL     1      11.311  19.550  44.031  1.00  0.00     0.210 HD
ENDBRANCH   6  51
TORSDOF 14
ENDMDL
MODEL 3
REMARK VINA RESULT: -8.734450850      1.893      7.792
REMARK  14 active torsions:
REMARK  status: ('A' for Active; 'I' for Inactive)
REMARK    1  A    between atoms: C2_2  and  N1_3 
REMARK       I    between atoms: N1_3  and  C3_5 
REMARK    2  A    between atoms: C3_5  and  C4_7 
REMARK    3  A    between atoms: N2_9  and  C6_10 
REMARK    4  A    between atoms: C6_10  and  C7_11 
REMARK    5  A    between atoms: C8_13  and  N3_14 
REMARK    6  A    between atoms: C9_15  and  N4_16 
REMARK    7  A    between atoms: N6_21  and  C10_22 
REMARK    8  A    between atoms: C10_22  and  C11_23 
REMARK    9  A    between atoms: C10_22  and  C13_34 
REMARK       I    between atoms: C11_23  and  N7_25 
REMARK   10  A    between atoms: N7_25  and  N8_27 
REMARK       I    between atoms: N8_27  and  C12_29 
REMARK   11  A    between atoms: C13_34  and  O4_36 
REMARK   12  A    between atoms: C16_40  and  O6_41 
REMARK   13  A    between atoms: C17_43  and  O7_44 
REMARK   14  A    between atoms: C18_46  and  O8_47 
ROOT
HETATM    1  C7  UNL     1       8.510  16.146  41.684  1.00  0.00     0.175 C 
HETATM    2  O2  UNL     1       9.478  16.679  40.850  1.00  0.00    -0.353 OA
HETATM    3  C8  UNL     1      10.760  16.656  41.345  1.00  0.00     0.282 C 
HETATM    4  C16 UNL     1      10.824  16.161  42.773  1.00  0.00     0.199 C 
HETATM    5  C17 UNL     1       9.814  16.972  43.609  1.00  0.00     0.182 C 
HETATM    6  C18 UNL     1       8.427  16.824  43.033  1.00  0.00     0.180 C 
ENDROOT
BRANCH   3   7
HETATM    7  N3  UNL     1      11.715  16.047  40.465  1.00  0.00    -0.100 N 
HETATM    8  C9  UNL     1      11.558  14.868  39.859  1.00  0.00     0.699 A 
HETATM    9  N5  UNL     1      12.657  14.648  39.128  1.00  0.00    -0.125 N 
HETATM   10  N6  UNL     1      13.510  15.647  39.244  1.00  0.00    -0.211 N 
ATOM     11  H5  UNL     1      12.814  13.818  38.557  1.00  0.00     0.206 HD
HETATM   12  C15 UNL     1      12.904  16.529  40.095  1.00  0.00     0.361 A 
HETATM   13  O5  UNL     1      13.479  17.604  40.408  1.00  0.00    -0.244 OA
BRANCH   8  14
HETATM   14  N4  UNL     1      10.523  14.054  39.953  1.00  0.00    -0.233 N 
ATOM     15  H42 UNL     1       9.544  14.327  39.865  1.00  0.00     0.174 HD
ATOM     16  H41 UNL     1      10.542  13.049  40.122  1.00  0.00     0.174 HD
ENDBRANCH   8  14
BRANCH  10  17
HETATM   17  C10 UNL     1      14.836  15.801  38.615  1.00  0.00     0.235 C 
BRANCH  17  18
HETATM   18  C11 UNL     1      15.039  14.808  37.565  1.00  0.00     0.263 C 
HETATM   19  O3  UNL     1      14.486  13.688  37.583  1.00  0.00    -0.269 OA
HETATM   20  N7  UNL     1      15.894  15.125  36.482  1.00  0.00    -0.266 N 
ATOM     21  H7  UNL     1      16.355  16.034  36.465  1.00  0.00     0.190 HD
BRANCH  20  22
HETATM   22  N8  UNL     1      16.127  14.214  35.420  1.00  0.00    -0.271 N 
HETATM   23  C12 UNL     1      17.282  13.393  35.406  1.00  0.00     0.200 C 
HETATM   24  N9  UNL     1      18.043  13.393  34.351  1.00  0.00    -0.372 N 
HETATM   25  N10 UNL     1      17.655  12.564  36.489  1.00  0.00    -0.062 NA
ATOM     26  H92 UNL     1      17.775  13.992  33.570  1.00  0.00     0.158 HD
ATOM     27  H91 UNL     1      18.876  12.803  34.341  1.00  0.00     0.158 HD
ATOM     28  H8  UNL     1      15.454  14.149  34.657  1.00  0.00     0.189 HD
ENDBRANCH  20  22
ENDBRANCH  17  18
BRANCH  17  29
HETATM   29  C13 UNL     1      15.859  15.831  39.710  1.00  0.00     0.148 C 
HETATM   30  C14 UNL     1      15.794  14.544  40.512  1.00  0.00     0.042 C 
BRANCH  29  31
HETATM   31  O4  UNL     1      17.123  15.815  39.063  1.00  0.00    -0.393 OA
ATOM     32  H4  UNL     1      17.319  14.900  38.898  1.00  0.00     0.210 HD
ENDBRANCH  29  31
ENDBRANCH  17  29
ENDBRANCH  10  17
ENDBRANCH   3   7
BRANCH   4  33
HETATM   33  O6  UNL     1      12.068  16.408  43.349  1.00  0.00    -0.388 OA
ATOM     34  H6  UNL     1      11.987  16.736  44.237  1.00  0.00     0.210 HD
ENDBRANCH   4  33
BRANCH   1  35
HETATM   35  C6  UNL     1       7.197  16.034  40.984  1.00  0.00     0.184 C 
BRANCH  35  36
HETATM   36  N2  UNL     1       7.235  15.453  39.668  1.00  0.00    -0.284 N 
HETATM   37  C5  UNL     1       6.985  14.158  39.371  1.00  0.00     0.148 A 
HETATM   38  C4  UNL     1       7.127  13.971  38.008  1.00  0.00     0.134 A 
HETATM   39  N12 UNL     1       7.466  15.192  37.516  1.00  0.00    -0.280 N 
HETATM   40  N11 UNL     1       7.521  16.043  38.524  1.00  0.00    -0.240 N 
ATOM     41  H12 UNL     1       7.646  15.413  36.537  1.00  0.00     0.189 HD
ATOM     42  H11 UNL     1       7.754  17.032  38.430  1.00  0.00     0.208 HD
BRANCH  38  43
HETATM   43  C3  UNL     1       6.967  12.745  37.236  1.00  0.00     0.271 C 
HETATM   44  N1  UNL     1       6.799  11.505  37.899  1.00  0.00    -0.356 N 
ATOM     45  H1  UNL     1       6.792  11.482  38.919  1.00  0.00     0.162 HD
HETATM   46  O1  UNL     1       6.975  12.764  35.980  1.00  0.00    -0.266 OA
BRANCH  44  47
HETATM   47  C2  UNL     1       6.639  10.265  37.158  1.00  0.00     0.118 C 
HETATM   48  C1  UNL     1       7.376   9.127  37.813  1.00  0.00     0.026 C 
ENDBRANCH  44  47
ENDBRANCH  38  43
ENDBRANCH  35  36
ENDBRANCH   1  35
BRANCH   5  49
HETATM   49  O7  UNL     1       9.847  16.467  44.903  1.00  0.00    -0.390 OA
ATOM     50  H7  UNL     1      10.112  17.176  45.476  1.00  0.00     0.210 HD
ENDBRANCH   5  49
BRANCH   6  51
HETATM   51  O8  UNL     1       7.679  16.008  43.898  1.00  0.00    -0.390 OA
ATOM     52  H8  UNL     1       6.776  16.301  43.883  1.00  0.00     0.210 HD
ENDBRANCH   6  51
TORSDOF 14
ENDMDL
MODEL 4
REMARK VINA RESULT: -8.717011539      3.451      8.733
REMARK  14 active torsions:
REMARK  status: ('A' for Active; 'I' for Inactive)
REMARK    1  A    between atoms: C2_2  and  N1_3 
REMARK       I    between atoms: N1_3  and  C3_5 
REMARK    2  A    between atoms: C3_5  and  C4_7 
REMARK    3  A    between atoms: N2_9  and  C6_10 
REMARK    4  A    between atoms: C6_10  and  C7_11 
REMARK    5  A    between atoms: C8_13  and  N3_14 
REMARK    6  A    between atoms: C9_15  and  N4_16 
REMARK    7  A    between atoms: N6_21  and  C10_22 
REMARK    8  A    between atoms: C10_22  and  C11_23 
REMARK    9  A    between atoms: C10_22  and  C13_34 
REMARK       I    between atoms: C11_23  and  N7_25 
REMARK   10  A    between atoms: N7_25  and  N8_27 
REMARK       I    between atoms: N8_27  and  C12_29 
REMARK   11  A    between atoms: C13_34  and  O4_36 
REMARK   12  A    between atoms: C16_40  and  O6_41 
REMARK   13  A    between atoms: C17_43  and  O7_44 
REMARK   14  A    between atoms: C18_46  and  O8_47 
ROOT
HETATM    1  C7  UNL     1      12.188  16.262  41.286  1.00  0.00     0.175 C 
HETATM    2  O2  UNL     1      12.417  15.171  40.464  1.00  0.00    -0.353 OA
HETATM    3  C8  UNL     1      12.679  15.470  39.149  1.00  0.00     0.282 C 
HETATM    4  C16 UNL     1      12.532  16.945  38.846  1.00  0.00     0.199 C 
HETATM    5  C17 UNL     1      11.155  17.407  39.361  1.00  0.00     0.182 C 
HETATM    6  C18 UNL     1      11.034  17.131  40.839  1.00  0.00     0.180 C 
ENDROOT
BRANCH   3   7
HETATM    7  N3  UNL     1      13.884  14.880  38.644  1.00  0.00    -0.100 N 
HETATM    8  C9  UNL     1      15.032  14.782  39.319  1.00  0.00     0.699 A 
HETATM    9  N5  UNL     1      15.914  14.175  38.516  1.00  0.00    -0.125 N 
HETATM   10  N6  UNL     1      15.370  13.881  37.352  1.00  0.00    -0.211 N 
ATOM     11  H5  UNL     1      16.880  13.968  38.771  1.00  0.00     0.206 HD
HETATM   12  C15 UNL     1      14.082  14.333  37.442  1.00  0.00     0.361 A 
HETATM   13  O5  UNL     1      13.293  14.195  36.472  1.00  0.00    -0.244 OA
BRANCH   8  14
HETATM   14  N4  UNL     1      15.273  15.201  40.547  1.00  0.00    -0.233 N 
ATOM     15  H42 UNL     1      15.856  15.999  40.798  1.00  0.00     0.174 HD
ATOM     16  H41 UNL     1      14.919  14.801  41.416  1.00  0.00     0.174 HD
ENDBRANCH   8  14
BRANCH  10  17
HETATM   17  C10 UNL     1      15.991  13.219  36.188  1.00  0.00     0.235 C 
BRANCH  17  18
HETATM   18  C11 UNL     1      16.676  11.994  36.583  1.00  0.00     0.263 C 
HETATM   19  O3  UNL     1      17.618  11.984  37.402  1.00  0.00    -0.269 OA
HETATM   20  N7  UNL     1      16.256  10.765  36.019  1.00  0.00    -0.266 N 
ATOM     21  H7  UNL     1      15.492  10.766  35.343  1.00  0.00     0.190 HD
BRANCH  20  22
HETATM   22  N8  UNL     1      16.867   9.533  36.367  1.00  0.00    -0.271 N 
HETATM   23  C12 UNL     1      17.559   8.764  35.397  1.00  0.00     0.200 C 
HETATM   24  N9  UNL     1      17.244   7.512  35.243  1.00  0.00    -0.372 N 
HETATM   25  N10 UNL     1      18.585   9.293  34.581  1.00  0.00    -0.062 NA
ATOM     26  H92 UNL     1      16.503   7.131  35.832  1.00  0.00     0.158 HD
ATOM     27  H91 UNL     1      17.741   6.959  34.545  1.00  0.00     0.158 HD
ATOM     28  H8  UNL     1      16.807   9.196  37.327  1.00  0.00     0.189 HD
ENDBRANCH  20  22
ENDBRANCH  17  18
BRANCH  17  29
HETATM   29  C13 UNL     1      16.818  14.244  35.470  1.00  0.00     0.148 C 
HETATM   30  C14 UNL     1      17.428  13.631  34.222  1.00  0.00     0.042 C 
BRANCH  29  31
HETATM   31  O4  UNL     1      15.905  15.227  35.007  1.00  0.00    -0.393 OA
ATOM     32  H4  UNL     1      15.202  14.749  34.580  1.00  0.00     0.210 HD
ENDBRANCH  29  31
ENDBRANCH  17  29
ENDBRANCH  10  17
ENDBRANCH   3   7
BRANCH   4  33
HETATM   33  O6  UNL     1      12.519  17.191  37.474  1.00  0.00    -0.388 OA
ATOM     34  H6  UNL     1      12.535  18.121  37.283  1.00  0.00     0.210 HD
ENDBRANCH   4  33
BRANCH   1  35
HETATM   35  C6  UNL     1      12.115  15.851  42.719  1.00  0.00     0.184 C 
BRANCH  35  36
HETATM   36  N2  UNL     1      10.797  15.799  43.291  1.00  0.00    -0.284 N 
HETATM   37  C5  UNL     1       9.732  15.157  42.760  1.00  0.00     0.148 A 
HETATM   38  C4  UNL     1       8.637  15.338  43.585  1.00  0.00     0.134 A 
HETATM   39  N12 UNL     1       9.090  16.102  44.613  1.00  0.00    -0.280 N 
HETATM   40  N11 UNL     1      10.370  16.356  44.407  1.00  0.00    -0.240 N 
ATOM     41  H12 UNL     1       8.537  16.424  45.408  1.00  0.00     0.189 HD
ATOM     42  H11 UNL     1      10.953  16.912  45.032  1.00  0.00     0.208 HD
BRANCH  38  43
HETATM   43  C3  UNL     1       7.277  14.841  43.415  1.00  0.00     0.271 C 
HETATM   44  N1  UNL     1       6.763  14.609  42.116  1.00  0.00    -0.356 N 
ATOM     45  H1  UNL     1       7.355  14.792  41.305  1.00  0.00     0.162 HD
HETATM   46  O1  UNL     1       6.541  14.612  44.407  1.00  0.00    -0.266 OA
BRANCH  44  47
HETATM   47  C2  UNL     1       5.411  14.115  41.913  1.00  0.00     0.118 C 
HETATM   48  C1  UNL     1       4.741  14.794  40.747  1.00  0.00     0.026 C 
ENDBRANCH  44  47
ENDBRANCH  38  43
ENDBRANCH  35  36
ENDBRANCH   1  35
BRANCH   5  49
HETATM   49  O7  UNL     1      11.061  18.773  39.124  1.00  0.00    -0.390 OA
ATOM     50  H7  UNL     1      10.601  18.886  38.300  1.00  0.00     0.210 HD
ENDBRANCH   5  49
BRANCH   6  51
HETATM   51  O8  UNL     1      11.108  18.357  41.521  1.00  0.00    -0.390 OA
ATOM     52  H8  UNL     1      10.942  19.057  40.901  1.00  0.00     0.210 HD
ENDBRANCH   6  51
TORSDOF 14
ENDMDL
MODEL 5
REMARK VINA RESULT: -8.707304586      2.248      3.030
REMARK  14 active torsions:
REMARK  status: ('A' for Active; 'I' for Inactive)
REMARK    1  A    between atoms: C2_2  and  N1_3 
REMARK       I    between atoms: N1_3  and  C3_5 
REMARK    2  A    between atoms: C3_5  and  C4_7 
REMARK    3  A    between atoms: N2_9  and  C6_10 
REMARK    4  A    between atoms: C6_10  and  C7_11 
REMARK    5  A    between atoms: C8_13  and  N3_14 
REMARK    6  A    between atoms: C9_15  and  N4_16 
REMARK    7  A    between atoms: N6_21  and  C10_22 
REMARK    8  A    between atoms: C10_22  and  C11_23 
REMARK    9  A    between atoms: C10_22  and  C13_34 
REMARK       I    between atoms: C11_23  and  N7_25 
REMARK   10  A    between atoms: N7_25  and  N8_27 
REMARK       I    between atoms: N8_27  and  C12_29 
REMARK   11  A    between atoms: C13_34  and  O4_36 
REMARK   12  A    between atoms: C16_40  and  O6_41 
REMARK   13  A    between atoms: C17_43  and  O7_44 
REMARK   14  A    between atoms: C18_46  and  O8_47 
ROOT
HETATM    1  C7  UNL     1      11.717  17.678  41.356  1.00  0.00     0.175 C 
HETATM    2  O2  UNL     1      11.265  16.382  41.541  1.00  0.00    -0.353 OA
HETATM    3  C8  UNL     1      10.405  16.204  42.598  1.00  0.00     0.282 C 
HETATM    4  C16 UNL     1      10.234  17.457  43.428  1.00  0.00     0.199 C 
HETATM    5  C17 UNL     1      11.634  17.980  43.803  1.00  0.00     0.182 C 
HETATM    6  C18 UNL     1      12.440  18.248  42.556  1.00  0.00     0.180 C 
ENDROOT
BRANCH   3   7
HETATM    7  N3  UNL     1       9.176  15.553  42.248  1.00  0.00    -0.100 N 
HETATM    8  C9  UNL     1       8.288  15.071  43.120  1.00  0.00     0.699 A 
HETATM    9  N5  UNL     1       7.282  14.544  42.412  1.00  0.00    -0.125 N 
HETATM   10  N6  UNL     1       7.495  14.674  41.117  1.00  0.00    -0.211 N 
ATOM     11  H5  UNL     1       6.459  14.100  42.819  1.00  0.00     0.206 HD
HETATM   12  C15 UNL     1       8.700  15.315  41.023  1.00  0.00     0.361 A 
HETATM   13  O5  UNL     1       9.186  15.588  39.895  1.00  0.00    -0.244 OA
BRANCH   8  14
HETATM   14  N4  UNL     1       8.368  15.096  44.437  1.00  0.00    -0.233 N 
ATOM     15  H42 UNL     1       8.426  15.936  45.013  1.00  0.00     0.174 HD
ATOM     16  H41 UNL     1       8.382  14.296  45.069  1.00  0.00     0.174 HD
ENDBRANCH   8  14
BRANCH  10  17
HETATM   17  C10 UNL     1       6.646  14.229  39.996  1.00  0.00     0.235 C 
BRANCH  17  18
HETATM   18  C11 UNL     1       6.807  15.100  38.836  1.00  0.00     0.263 C 
HETATM   19  O3  UNL     1       6.284  16.232  38.768  1.00  0.00    -0.269 OA
HETATM   20  N7  UNL     1       7.588  14.647  37.746  1.00  0.00    -0.266 N 
ATOM     21  H7  UNL     1       8.011  13.720  37.791  1.00  0.00     0.190 HD
BRANCH  20  22
HETATM   22  N8  UNL     1       7.799  15.445  36.593  1.00  0.00    -0.271 N 
HETATM   23  C12 UNL     1       9.024  16.132  36.397  1.00  0.00     0.200 C 
HETATM   24  N9  UNL     1       8.999  17.409  36.152  1.00  0.00    -0.372 N 
HETATM   25  N10 UNL     1      10.285  15.494  36.453  1.00  0.00    -0.062 NA
ATOM     26  H92 UNL     1       8.089  17.868  36.112  1.00  0.00     0.158 HD
ATOM     27  H91 UNL     1       9.881  17.903  36.012  1.00  0.00     0.158 HD
ATOM     28  H8  UNL     1       7.059  15.527  35.895  1.00  0.00     0.189 HD
ENDBRANCH  20  22
ENDBRANCH  17  18
BRANCH  17  29
HETATM   29  C13 UNL     1       5.250  14.065  40.518  1.00  0.00     0.148 C 
HETATM   30  C14 UNL     1       4.324  13.644  39.392  1.00  0.00     0.042 C 
BRANCH  29  31
HETATM   31  O4  UNL     1       5.295  12.961  41.410  1.00  0.00    -0.393 OA
ATOM     32  H4  UNL     1       4.546  13.062  41.986  1.00  0.00     0.210 HD
ENDBRANCH  29  31
ENDBRANCH  17  29
ENDBRANCH  10  17
ENDBRANCH   3   7
BRANCH   4  33
HETATM   33  O6  UNL     1       9.597  17.191  44.639  1.00  0.00    -0.388 OA
ATOM     34  H6  UNL     1       8.695  17.487  44.635  1.00  0.00     0.210 HD
ENDBRANCH   4  33
BRANCH   1  35
HETATM   35  C6  UNL     1      12.476  17.807  40.078  1.00  0.00     0.184 C 
BRANCH  35  36
HETATM   36  N2  UNL     1      12.872  16.573  39.455  1.00  0.00    -0.284 N 
HETATM   37  C5  UNL     1      14.144  16.160  39.263  1.00  0.00     0.148 A 
HETATM   38  C4  UNL     1      14.130  14.933  38.625  1.00  0.00     0.134 A 
HETATM   39  N12 UNL     1      12.815  14.639  38.450  1.00  0.00    -0.280 N 
HETATM   40  N11 UNL     1      12.100  15.629  38.952  1.00  0.00    -0.240 N 
ATOM     41  H12 UNL     1      12.444  13.798  38.008  1.00  0.00     0.189 HD
ATOM     42  H11 UNL     1      11.080  15.660  38.950  1.00  0.00     0.208 HD
BRANCH  38  43
HETATM   43  C3  UNL     1      15.260  14.111  38.207  1.00  0.00     0.271 C 
HETATM   44  N1  UNL     1      15.193  13.371  37.003  1.00  0.00    -0.356 N 
ATOM     45  H1  UNL     1      14.348  13.420  36.433  1.00  0.00     0.162 HD
HETATM   46  O1  UNL     1      16.305  14.044  38.902  1.00  0.00    -0.266 OA
BRANCH  44  47
HETATM   47  C2  UNL     1      16.302  12.541  36.560  1.00  0.00     0.118 C 
HETATM   48  C1  UNL     1      17.171  13.262  35.563  1.00  0.00     0.026 C 
ENDBRANCH  44  47
ENDBRANCH  38  43
ENDBRANCH  35  36
ENDBRANCH   1  35
BRANCH   5  49
HETATM   49  O7  UNL     1      11.458  19.159  44.517  1.00  0.00    -0.390 OA
ATOM     50  H7  UNL     1      11.678  19.878  43.935  1.00  0.00     0.210 HD
ENDBRANCH   5  49
BRANCH   6  51
HETATM   51  O8  UNL     1      12.546  19.639  42.394  1.00  0.00    -0.390 OA
ATOM     52  H8  UNL     1      13.397  19.835  42.021  1.00  0.00     0.210 HD
ENDBRANCH   6  51
TORSDOF 14
ENDMDL
