MODEL 1
REMARK VINA RESULT: -9.285608711      0.000      0.000
REMARK  13 active torsions:
REMARK  status: ('A' for Active; 'I' for Inactive)
REMARK    1  A    between atoms: N5_15  and  C6_16 
REMARK    2  A    between atoms: C7_18  and  C8_19 
REMARK    3  A    between atoms: C8_19  and  N6_20 
REMARK    4  A    between atoms: N6_20  and  S1_22 
REMARK    5  A    between atoms: S1_22  and  N7_25 
REMARK    6  A    between atoms: N7_25  and  C9_27 
REMARK    7  A    between atoms: C9_27  and  C10_28 
REMARK    8  A    between atoms: C10_28  and  N8_29 
REMARK    9  A    between atoms: C12_34  and  O5_35 
REMARK   10  A    between atoms: C13_39  and  N11_40 
REMARK   11  A    between atoms: C14_43  and  O6_44 
REMARK   12  A    between atoms: C15_46  and  O7_47 
REMARK   13  A    between atoms: C16_49  and  O8_50 
ROOT
HETATM    1  C6  UNL     1      13.803  14.749  39.451  1.00  0.00     0.262 C 
HETATM    2  O1  UNL     1      12.790  14.591  38.532  1.00  0.00    -0.354 OA
HETATM    3  C7  UNL     1      13.097  15.115  37.280  1.00  0.00     0.174 C 
HETATM    4  C14 UNL     1      14.184  14.334  36.588  1.00  0.00     0.180 C 
HETATM    5  C15 UNL     1      15.222  13.979  37.603  1.00  0.00     0.182 C 
HETATM    6  C16 UNL     1      15.164  14.848  38.845  1.00  0.00     0.198 C 
ENDROOT
BRANCH   3   7
HETATM    7  C8  UNL     1      11.846  14.989  36.405  1.00  0.00     0.168 C 
BRANCH   7   8
HETATM    8  N6  UNL     1      10.733  14.865  37.292  1.00  0.00    -0.300 N 
ATOM      9  H6  UNL     1      10.492  13.981  37.740  1.00  0.00     0.173 HD
BRANCH   8  10
HETATM   10  S1  UNL     1       9.838  16.283  37.554  1.00  0.00     0.315 S 
HETATM   11  O2  UNL     1       9.978  17.151  36.312  1.00  0.00    -0.183 OA
HETATM   12  O3  UNL     1      10.503  17.061  38.665  1.00  0.00    -0.183 OA
BRANCH  10  13
HETATM   13  N7  UNL     1       8.176  16.050  37.839  1.00  0.00    -0.301 N 
ATOM     14  H7  UNL     1       7.432  16.506  37.311  1.00  0.00     0.173 HD
BRANCH  13  15
HETATM   15  C9  UNL     1       7.960  15.133  38.911  1.00  0.00     0.154 C 
BRANCH  15  16
HETATM   16  C10 UNL     1       7.063  15.796  39.932  1.00  0.00     0.173 C 
BRANCH  16  17
HETATM   17  N8  UNL     1       7.643  15.906  41.226  1.00  0.00    -0.131 N 
HETATM   18  C11 UNL     1       7.501  14.936  42.138  1.00  0.00     0.344 A 
HETATM   19  O4  UNL     1       6.848  13.880  41.898  1.00  0.00    -0.246 OA
HETATM   20  N9  UNL     1       8.044  15.021  43.374  1.00  0.00    -0.273 N 
HETATM   21  C12 UNL     1       8.747  16.097  43.712  1.00  0.00     0.239 A 
ATOM     22  H9  UNL     1       7.915  14.262  44.044  1.00  0.00     0.174 HD
HETATM   23  N10 UNL     1       8.909  17.081  42.828  1.00  0.00    -0.155 N 
HETATM   24  C13 UNL     1       8.365  16.993  41.596  1.00  0.00     0.685 A 
ATOM     25  H10 UNL     1       9.449  17.908  43.084  1.00  0.00     0.188 HD
BRANCH  21  26
HETATM   26  O5  UNL     1       9.320  16.202  44.992  1.00  0.00    -0.332 OA
ATOM     27  H5  UNL     1       8.937  16.774  45.647  1.00  0.00     0.221 HD
ENDBRANCH  21  26
BRANCH  24  28
HETATM   28  N11 UNL     1       8.559  17.980  40.791  1.00  0.00    -0.234 N 
ATOM     29 2H11 UNL     1       8.707  17.758  39.807  1.00  0.00     0.174 HD
ATOM     30 1H11 UNL     1       8.565  18.945  41.121  1.00  0.00     0.174 HD
ENDBRANCH  24  28
ENDBRANCH  16  17
ENDBRANCH  15  16
ENDBRANCH  13  15
ENDBRANCH  10  13
ENDBRANCH   8  10
ENDBRANCH   7   8
ENDBRANCH   3   7
BRANCH   4  31
HETATM   31  O6  UNL     1      13.590  13.208  35.999  1.00  0.00    -0.390 OA
ATOM     32  H6  UNL     1      13.005  13.515  35.316  1.00  0.00     0.210 HD
ENDBRANCH   4  31
BRANCH   1  33
HETATM   33  N5  UNL     1      13.472  15.896  40.275  1.00  0.00    -0.297 N 
HETATM   34  C3  UNL     1      13.023  15.836  41.550  1.00  0.00     0.142 A 
HETATM   35  N3  UNL     1      12.773  14.803  42.362  1.00  0.00    -0.336 N 
HETATM   36  C4  UNL     1      12.819  17.118  41.999  1.00  0.00     0.122 A 
HETATM   37  C2  UNL     1      12.327  15.018  43.606  1.00  0.00     0.183 A 
ATOM     38  H3  UNL     1      12.923  13.850  42.032  1.00  0.00     0.168 HD
HETATM   39  N2  UNL     1      12.117  16.261  44.074  1.00  0.00    -0.337 N 
HETATM   40  C1  UNL     1      12.358  17.314  43.287  1.00  0.00     0.131 A 
ATOM     41  H2  UNL     1      11.776  16.398  45.025  1.00  0.00     0.168 HD
HETATM   42  N1  UNL     1      12.153  18.497  43.749  1.00  0.00    -0.383 N 
ATOM     43  H12 UNL     1      11.813  18.640  44.699  1.00  0.00     0.157 HD
ATOM     44  H11 UNL     1      12.338  19.301  43.148  1.00  0.00     0.157 HD
HETATM   45  N4  UNL     1      13.142  17.963  40.998  1.00  0.00    -0.346 N 
HETATM   46  C5  UNL     1      13.534  17.199  39.965  1.00  0.00     0.188 A 
ATOM     47  H4  UNL     1      13.097  18.981  41.021  1.00  0.00     0.167 HD
ENDBRANCH   1  33
BRANCH   5  48
HETATM   48  O7  UNL     1      16.503  14.127  37.069  1.00  0.00    -0.390 OA
ATOM     49  H7  UNL     1      17.163  13.933  37.724  1.00  0.00     0.210 HD
ENDBRANCH   5  48
BRANCH   6  50
HETATM   50  O8  UNL     1      15.562  16.140  38.602  1.00  0.00    -0.388 OA
ATOM     51  H8  UNL     1      15.584  16.361  37.678  1.00  0.00     0.210 HD
ENDBRANCH   6  50
TORSDOF 13
ENDMDL
MODEL 2
REMARK VINA RESULT: -9.197897818      1.034      1.746
REMARK  13 active torsions:
REMARK  status: ('A' for Active; 'I' for Inactive)
REMARK    1  A    between atoms: N5_15  and  C6_16 
REMARK    2  A    between atoms: C7_18  and  C8_19 
REMARK    3  A    between atoms: C8_19  and  N6_20 
REMARK    4  A    between atoms: N6_20  and  S1_22 
REMARK    5  A    between atoms: S1_22  and  N7_25 
REMARK    6  A    between atoms: N7_25  and  C9_27 
REMARK    7  A    between atoms: C9_27  and  C10_28 
REMARK    8  A    between atoms: C10_28  and  N8_29 
REMARK    9  A    between atoms: C12_34  and  O5_35 
REMARK   10  A    between atoms: C13_39  and  N11_40 
REMARK   11  A    between atoms: C14_43  and  O6_44 
REMARK   12  A    between atoms: C15_46  and  O7_47 
REMARK   13  A    between atoms: C16_49  and  O8_50 
ROOT
HETATM    1  C6  UNL     1      13.921  14.392  40.822  1.00  0.00     0.262 C 
HETATM    2  O1  UNL     1      12.921  14.245  39.888  1.00  0.00    -0.354 OA
HETATM    3  C7  UNL     1      13.055  15.103  38.801  1.00  0.00     0.174 C 
HETATM    4  C14 UNL     1      14.246  14.756  37.946  1.00  0.00     0.180 C 
HETATM    5  C15 UNL     1      15.381  14.399  38.850  1.00  0.00     0.182 C 
HETATM    6  C16 UNL     1      15.203  14.917  40.264  1.00  0.00     0.198 C 
ENDROOT
BRANCH   3   7
HETATM    7  C8  UNL     1      11.818  14.926  37.916  1.00  0.00     0.168 C 
BRANCH   7   8
HETATM    8  N6  UNL     1      10.820  15.815  38.419  1.00  0.00    -0.300 N 
ATOM      9  H6  UNL     1      10.887  16.239  39.344  1.00  0.00     0.173 HD
BRANCH   8  10
HETATM   10  S1  UNL     1       9.515  16.122  37.378  1.00  0.00     0.315 S 
HETATM   11  O2  UNL     1       9.486  15.012  36.337  1.00  0.00    -0.183 OA
HETATM   12  O3  UNL     1       9.814  17.388  36.608  1.00  0.00    -0.183 OA
BRANCH  10  13
HETATM   13  N7  UNL     1       7.986  16.172  38.125  1.00  0.00    -0.301 N 
ATOM     14  H7  UNL     1       7.245  16.829  37.880  1.00  0.00     0.173 HD
BRANCH  13  15
HETATM   15  C9  UNL     1       7.876  15.174  39.140  1.00  0.00     0.154 C 
BRANCH  15  16
HETATM   16  C10 UNL     1       6.998  15.714  40.246  1.00  0.00     0.173 C 
BRANCH  16  17
HETATM   17  N8  UNL     1       7.671  15.880  41.489  1.00  0.00    -0.131 N 
HETATM   18  C11 UNL     1       7.673  14.911  42.414  1.00  0.00     0.344 A 
HETATM   19  O4  UNL     1       7.082  13.808  42.232  1.00  0.00    -0.246 OA
HETATM   20  N9  UNL     1       8.306  15.047  43.602  1.00  0.00    -0.273 N 
HETATM   21  C12 UNL     1       8.954  16.175  43.877  1.00  0.00     0.239 A 
ATOM     22  H9  UNL     1       8.287  14.288  44.283  1.00  0.00     0.174 HD
HETATM   23  N10 UNL     1       8.972  17.159  42.979  1.00  0.00    -0.155 N 
HETATM   24  C13 UNL     1       8.339  17.019  41.795  1.00  0.00     0.685 A 
ATOM     25  H10 UNL     1       9.469  18.025  43.187  1.00  0.00     0.188 HD
BRANCH  21  26
HETATM   26  O5  UNL     1       9.619  16.334  45.106  1.00  0.00    -0.332 OA
ATOM     27  H5  UNL     1       9.135  16.303  45.923  1.00  0.00     0.221 HD
ENDBRANCH  21  26
BRANCH  24  28
HETATM   28  N11 UNL     1       8.395  18.009  40.973  1.00  0.00    -0.234 N 
ATOM     29 2H11 UNL     1       8.485  17.789  39.981  1.00  0.00     0.174 HD
ATOM     30 1H11 UNL     1       8.352  18.975  41.297  1.00  0.00     0.174 HD
ENDBRANCH  24  28
ENDBRANCH  16  17
ENDBRANCH  15  16
ENDBRANCH  13  15
ENDBRANCH  10  13
ENDBRANCH   8  10
ENDBRANCH   7   8
ENDBRANCH   3   7
BRANCH   4  31
HETATM   31  O6  UNL     1      13.871  13.702  37.100  1.00  0.00    -0.390 OA
ATOM     32  H6  UNL     1      13.987  13.996  36.204  1.00  0.00     0.210 HD
ENDBRANCH   4  31
BRANCH   1  33
HETATM   33  N5  UNL     1      13.399  15.215  41.897  1.00  0.00    -0.297 N 
HETATM   34  C3  UNL     1      12.964  16.488  41.764  1.00  0.00     0.142 A 
HETATM   35  N3  UNL     1      12.887  17.300  40.704  1.00  0.00    -0.336 N 
HETATM   36  C4  UNL     1      12.547  16.936  42.994  1.00  0.00     0.122 A 
HETATM   37  C2  UNL     1      12.406  18.542  40.841  1.00  0.00     0.183 A 
ATOM     38  H3  UNL     1      13.197  16.972  39.789  1.00  0.00     0.168 HD
HETATM   39  N2  UNL     1      11.991  19.009  42.031  1.00  0.00    -0.337 N 
HETATM   40  C1  UNL     1      12.054  18.222  43.109  1.00  0.00     0.131 A 
ATOM     41  H2  UNL     1      11.629  19.959  42.110  1.00  0.00     0.168 HD
HETATM   42  N1  UNL     1      11.653  18.682  44.242  1.00  0.00    -0.383 N 
ATOM     43  H12 UNL     1      11.289  19.631  44.326  1.00  0.00     0.157 HD
ATOM     44  H11 UNL     1      11.701  18.081  45.065  1.00  0.00     0.157 HD
HETATM   45  N4  UNL     1      12.728  15.936  43.881  1.00  0.00    -0.346 N 
HETATM   46  C5  UNL     1      13.245  14.904  43.193  1.00  0.00     0.188 A 
ATOM     47  H4  UNL     1      12.515  15.958  44.878  1.00  0.00     0.167 HD
ENDBRANCH   1  33
BRANCH   5  48
HETATM   48  O7  UNL     1      16.578  14.937  38.374  1.00  0.00    -0.390 OA
ATOM     49  H7  UNL     1      17.139  14.251  38.031  1.00  0.00     0.210 HD
ENDBRANCH   5  48
BRANCH   6  50
HETATM   50  O8  UNL     1      15.314  16.284  40.342  1.00  0.00    -0.388 OA
ATOM     51  H8  UNL     1      15.349  16.709  39.492  1.00  0.00     0.210 HD
ENDBRANCH   6  50
TORSDOF 13
ENDMDL
MODEL 3
REMARK VINA RESULT: -9.140819854      1.337      1.567
REMARK  13 active torsions:
REMARK  status: ('A' for Active; 'I' for Inactive)
REMARK    1  A    between atoms: N5_15  and  C6_16 
REMARK    2  A    between atoms: C7_18  and  C8_19 
REMARK    3  A    between atoms: C8_19  and  N6_20 
REMARK    4  A    between atoms: N6_20  and  S1_22 
REMARK    5  A    between atoms: S1_22  and  N7_25 
REMARK    6  A    between atoms: N7_25  and  C9_27 
REMARK    7  A    between atoms: C9_27  and  C10_28 
REMARK    8  A    between atoms: C10_28  and  N8_29 
REMARK    9  A    between atoms: C12_34  and  O5_35 
REMARK   10  A    between atoms: C13_39  and  N11_40 
REMARK   11  A    between atoms: C14_43  and  O6_44 
REMARK   12  A    between atoms: C15_46  and  O7_47 
REMARK   13  A    between atoms: C16_49  and  O8_50 
ROOT
HETATM    1  C6  UNL     1      12.202  15.296  38.918  1.00  0.00     0.262 C 
HETATM    2  O1  UNL     1      11.233  15.499  37.961  1.00  0.00    -0.354 OA
HETATM    3  C7  UNL     1      11.714  16.131  36.819  1.00  0.00     0.174 C 
HETATM    4  C14 UNL     1      12.655  15.253  36.036  1.00  0.00     0.180 C 
HETATM    5  C15 UNL     1      13.536  14.535  37.005  1.00  0.00     0.182 C 
HETATM    6  C16 UNL     1      13.587  15.195  38.369  1.00  0.00     0.198 C 
ENDROOT
BRANCH   3   7
HETATM    7  C8  UNL     1      10.517  16.410  35.905  1.00  0.00     0.168 C 
BRANCH   7   8
HETATM    8  N6  UNL     1       9.459  16.882  36.741  1.00  0.00    -0.300 N 
ATOM      9  H6  UNL     1       9.567  17.698  37.343  1.00  0.00     0.173 HD
BRANCH   8  10
HETATM   10  S1  UNL     1       8.013  15.998  36.669  1.00  0.00     0.315 S 
HETATM   11  O2  UNL     1       8.379  14.525  36.548  1.00  0.00    -0.183 OA
HETATM   12  O3  UNL     1       7.312  16.345  35.377  1.00  0.00    -0.183 OA
BRANCH  10  13
HETATM   13  N7  UNL     1       6.990  16.167  38.020  1.00  0.00    -0.301 N 
ATOM     14  H7  UNL     1       6.130  16.716  38.026  1.00  0.00     0.173 HD
BRANCH  13  15
HETATM   15  C9  UNL     1       7.493  15.442  39.142  1.00  0.00     0.154 C 
BRANCH  15  16
HETATM   16  C10 UNL     1       6.656  15.795  40.351  1.00  0.00     0.173 C 
BRANCH  16  17
HETATM   17  N8  UNL     1       7.402  15.906  41.558  1.00  0.00    -0.131 N 
HETATM   18  C11 UNL     1       7.466  14.893  42.433  1.00  0.00     0.344 A 
HETATM   19  O4  UNL     1       6.872  13.795  42.232  1.00  0.00    -0.246 OA
HETATM   20  N9  UNL     1       8.169  14.977  43.585  1.00  0.00    -0.273 N 
HETATM   21  C12 UNL     1       8.826  16.096  43.876  1.00  0.00     0.239 A 
ATOM     22  H9  UNL     1       8.196  14.186  44.228  1.00  0.00     0.174 HD
HETATM   23  N10 UNL     1       8.784  17.123  43.027  1.00  0.00    -0.155 N 
HETATM   24  C13 UNL     1       8.081  17.035  41.879  1.00  0.00     0.685 A 
ATOM     25  H10 UNL     1       9.288  17.982  43.247  1.00  0.00     0.188 HD
BRANCH  21  26
HETATM   26  O5  UNL     1       9.563  16.201  45.069  1.00  0.00    -0.332 OA
ATOM     27  H5  UNL     1       9.910  17.040  45.349  1.00  0.00     0.221 HD
ENDBRANCH  21  26
BRANCH  24  28
HETATM   28  N11 UNL     1       8.082  18.064  41.103  1.00  0.00    -0.234 N 
ATOM     29 2H11 UNL     1       8.835  18.135  40.420  1.00  0.00     0.174 HD
ATOM     30 1H11 UNL     1       7.359  18.781  41.168  1.00  0.00     0.174 HD
ENDBRANCH  24  28
ENDBRANCH  16  17
ENDBRANCH  15  16
ENDBRANCH  13  15
ENDBRANCH  10  13
ENDBRANCH   8  10
ENDBRANCH   7   8
ENDBRANCH   3   7
BRANCH   4  31
HETATM   31  O6  UNL     1      11.878  14.383  35.258  1.00  0.00    -0.390 OA
ATOM     32  H6  UNL     1      11.502  14.889  34.547  1.00  0.00     0.210 HD
ENDBRANCH   4  31
BRANCH   1  33
HETATM   33  N5  UNL     1      12.066  16.347  39.909  1.00  0.00    -0.297 N 
HETATM   34  C3  UNL     1      12.258  16.194  41.239  1.00  0.00     0.142 A 
HETATM   35  N3  UNL     1      12.598  15.131  41.976  1.00  0.00    -0.336 N 
HETATM   36  C4  UNL     1      12.039  17.404  41.851  1.00  0.00     0.122 A 
HETATM   37  C2  UNL     1      12.726  15.247  43.304  1.00  0.00     0.183 A 
ATOM     38  H3  UNL     1      12.761  14.231  41.525  1.00  0.00     0.168 HD
HETATM   39  N2  UNL     1      12.519  16.417  43.932  1.00  0.00    -0.337 N 
HETATM   40  C1  UNL     1      12.178  17.497  43.223  1.00  0.00     0.131 A 
ATOM     41  H2  UNL     1      12.621  16.479  44.945  1.00  0.00     0.168 HD
HETATM   42  N1  UNL     1      11.983  18.611  43.838  1.00  0.00    -0.383 N 
ATOM     43  H12 UNL     1      12.085  18.679  44.850  1.00  0.00     0.157 HD
ATOM     44  H11 UNL     1      11.723  19.435  43.297  1.00  0.00     0.157 HD
HETATM   45  N4  UNL     1      11.713  18.298  40.895  1.00  0.00    -0.346 N 
HETATM   46  C5  UNL     1      11.736  17.634  39.728  1.00  0.00     0.188 A 
ATOM     47  H4  UNL     1      11.492  19.284  41.032  1.00  0.00     0.167 HD
ENDBRANCH   1  33
BRANCH   5  48
HETATM   48  O7  UNL     1      14.849  14.487  36.534  1.00  0.00    -0.390 OA
ATOM     49  H7  UNL     1      15.359  13.853  37.026  1.00  0.00     0.210 HD
ENDBRANCH   5  48
BRANCH   6  50
HETATM   50  O8  UNL     1      14.255  16.394  38.349  1.00  0.00    -0.388 OA
ATOM     51  H8  UNL     1      15.200  16.301  38.392  1.00  0.00     0.210 HD
ENDBRANCH   6  50
TORSDOF 13
ENDMDL
MODEL 4
REMARK VINA RESULT: -8.762985254      1.218      1.491
REMARK  13 active torsions:
REMARK  status: ('A' for Active; 'I' for Inactive)
REMARK    1  A    between atoms: N5_15  and  C6_16 
REMARK    2  A    between atoms: C7_18  and  C8_19 
REMARK    3  A    between atoms: C8_19  and  N6_20 
REMARK    4  A    between atoms: N6_20  and  S1_22 
REMARK    5  A    between atoms: S1_22  and  N7_25 
REMARK    6  A    between atoms: N7_25  and  C9_27 
REMARK    7  A    between atoms: C9_27  and  C10_28 
REMARK    8  A    between atoms: C10_28  and  N8_29 
REMARK    9  A    between atoms: C12_34  and  O5_35 
REMARK   10  A    between atoms: C13_39  and  N11_40 
REMARK   11  A    between atoms: C14_43  and  O6_44 
REMARK   12  A    between atoms: C15_46  and  O7_47 
REMARK   13  A    between atoms: C16_49  and  O8_50 
ROOT
HETATM    1  C6  UNL     1      13.913  14.751  39.388  1.00  0.00     0.262 C 
HETATM    2  O1  UNL     1      12.978  14.483  38.414  1.00  0.00    -0.354 OA
HETATM    3  C7  UNL     1      13.374  14.892  37.145  1.00  0.00     0.174 C 
HETATM    4  C14 UNL     1      14.524  14.075  36.616  1.00  0.00     0.180 C 
HETATM    5  C15 UNL     1      15.484  13.844  37.737  1.00  0.00     0.182 C 
HETATM    6  C16 UNL     1      15.316  14.825  38.880  1.00  0.00     0.198 C 
ENDROOT
BRANCH   3   7
HETATM    7  C8  UNL     1      12.197  14.654  36.193  1.00  0.00     0.168 C 
BRANCH   7   8
HETATM    8  N6  UNL     1      11.744  15.940  35.767  1.00  0.00    -0.300 N 
ATOM      9  H6  UNL     1      12.275  16.512  35.110  1.00  0.00     0.173 HD
BRANCH   8  10
HETATM   10  S1  UNL     1      10.266  16.455  36.423  1.00  0.00     0.315 S 
HETATM   11  O2  UNL     1       9.700  17.525  35.500  1.00  0.00    -0.183 OA
HETATM   12  O3  UNL     1      10.551  17.160  37.729  1.00  0.00    -0.183 OA
BRANCH  10  13
HETATM   13  N7  UNL     1       9.085  15.241  36.594  1.00  0.00    -0.301 N 
ATOM     14  H7  UNL     1       9.187  14.286  36.251  1.00  0.00     0.173 HD
BRANCH  13  15
HETATM   15  C9  UNL     1       7.934  15.733  37.280  1.00  0.00     0.154 C 
BRANCH  15  16
HETATM   16  C10 UNL     1       7.718  14.888  38.515  1.00  0.00     0.173 C 
BRANCH  16  17
HETATM   17  N8  UNL     1       8.082  15.536  39.729  1.00  0.00    -0.131 N 
HETATM   18  C11 UNL     1       7.240  16.372  40.351  1.00  0.00     0.344 A 
HETATM   19  O4  UNL     1       6.088  16.626  39.895  1.00  0.00    -0.246 OA
HETATM   20  N9  UNL     1       7.565  16.999  41.505  1.00  0.00    -0.273 N 
HETATM   21  C12 UNL     1       8.757  16.789  42.055  1.00  0.00     0.239 A 
ATOM     22  H9  UNL     1       6.898  17.630  41.950  1.00  0.00     0.174 HD
HETATM   23  N10 UNL     1       9.619  15.963  41.462  1.00  0.00    -0.155 N 
HETATM   24  C13 UNL     1       9.291  15.341  40.311  1.00  0.00     0.685 A 
ATOM     25  H10 UNL     1      10.534  15.800  41.882  1.00  0.00     0.188 HD
BRANCH  21  26
HETATM   26  O5  UNL     1       9.112  17.432  43.255  1.00  0.00    -0.332 OA
ATOM     27  H5  UNL     1      10.001  17.379  43.585  1.00  0.00     0.221 HD
ENDBRANCH  21  26
BRANCH  24  28
HETATM   28  N11 UNL     1      10.170  14.555  39.791  1.00  0.00    -0.234 N 
ATOM     29 2H11 UNL     1      10.153  14.439  38.778  1.00  0.00     0.174 HD
ATOM     30 1H11 UNL     1      10.856  14.068  40.366  1.00  0.00     0.174 HD
ENDBRANCH  24  28
ENDBRANCH  16  17
ENDBRANCH  15  16
ENDBRANCH  13  15
ENDBRANCH  10  13
ENDBRANCH   8  10
ENDBRANCH   7   8
ENDBRANCH   3   7
BRANCH   4  31
HETATM   31  O6  UNL     1      13.997  12.885  36.095  1.00  0.00    -0.390 OA
ATOM     32  H6  UNL     1      14.725  12.303  35.911  1.00  0.00     0.210 HD
ENDBRANCH   4  31
BRANCH   1  33
HETATM   33  N5  UNL     1      13.500  15.963  40.070  1.00  0.00    -0.297 N 
HETATM   34  C3  UNL     1      13.104  16.035  41.361  1.00  0.00     0.142 A 
HETATM   35  N3  UNL     1      12.986  15.102  42.312  1.00  0.00    -0.336 N 
HETATM   36  C4  UNL     1      12.791  17.341  41.648  1.00  0.00     0.122 A 
HETATM   37  C2  UNL     1      12.564  15.441  43.538  1.00  0.00     0.183 A 
ATOM     38  H3  UNL     1      13.217  14.131  42.104  1.00  0.00     0.168 HD
HETATM   39  N2  UNL     1      12.250  16.710  43.848  1.00  0.00    -0.337 N 
HETATM   40  C1  UNL     1      12.358  17.665  42.920  1.00  0.00     0.131 A 
ATOM     41  H2  UNL     1      11.930  16.942  44.788  1.00  0.00     0.168 HD
HETATM   42  N1  UNL     1      12.054  18.875  43.232  1.00  0.00    -0.383 N 
ATOM     43  H12 UNL     1      11.735  19.113  44.171  1.00  0.00     0.157 HD
ATOM     44  H11 UNL     1      12.137  19.604  42.523  1.00  0.00     0.157 HD
HETATM   45  N4  UNL     1      12.994  18.069  40.531  1.00  0.00    -0.346 N 
HETATM   46  C5  UNL     1      13.423  17.213  39.589  1.00  0.00     0.188 A 
ATOM     47  H4  UNL     1      12.850  19.073  40.422  1.00  0.00     0.167 HD
ENDBRANCH   1  33
BRANCH   5  48
HETATM   48  O7  UNL     1      16.801  13.970  37.290  1.00  0.00    -0.390 OA
ATOM     49  H7  UNL     1      17.377  13.396  37.780  1.00  0.00     0.210 HD
ENDBRANCH   5  48
BRANCH   6  50
HETATM   50  O8  UNL     1      15.710  16.097  38.545  1.00  0.00    -0.388 OA
ATOM     51  H8  UNL     1      16.468  16.398  39.032  1.00  0.00     0.210 HD
ENDBRANCH   6  50
TORSDOF 13
ENDMDL
MODEL 5
REMARK VINA RESULT: -8.752537949      1.180      1.621
REMARK  13 active torsions:
REMARK  status: ('A' for Active; 'I' for Inactive)
REMARK    1  A    between atoms: N5_15  and  C6_16 
REMARK    2  A    between atoms: C7_18  and  C8_19 
REMARK    3  A    between atoms: C8_19  and  N6_20 
REMARK    4  A    between atoms: N6_20  and  S1_22 
REMARK    5  A    between atoms: S1_22  and  N7_25 
REMARK    6  A    between atoms: N7_25  and  C9_27 
REMARK    7  A    between atoms: C9_27  and  C10_28 
REMARK    8  A    between atoms: C10_28  and  N8_29 
REMARK    9  A    between atoms: C12_34  and  O5_35 
REMARK   10  A    between atoms: C13_39  and  N11_40 
REMARK   11  A    between atoms: C14_43  and  O6_44 
REMARK   12  A    between atoms: C15_46  and  O7_47 
REMARK   13  A    between atoms: C16_49  and  O8_50 
ROOT
HETATM    1  C6  UNL     1      12.954  15.070  39.117  1.00  0.00     0.262 C 
HETATM    2  O1  UNL     1      12.175  15.152  37.985  1.00  0.00    -0.354 OA
HETATM    3  C7  UNL     1      12.866  15.632  36.877  1.00  0.00     0.174 C 
HETATM    4  C14 UNL     1      13.909  14.659  36.392  1.00  0.00     0.180 C 
HETATM    5  C15 UNL     1      14.587  14.068  37.585  1.00  0.00     0.182 C 
HETATM    6  C16 UNL     1      14.411  14.897  38.843  1.00  0.00     0.198 C 
ENDROOT
BRANCH   3   7
HETATM    7  C8  UNL     1      11.857  15.794  35.736  1.00  0.00     0.168 C 
BRANCH   7   8
HETATM    8  N6  UNL     1      10.651  15.154  36.158  1.00  0.00    -0.300 N 
ATOM      9  H6  UNL     1      10.559  14.139  36.192  1.00  0.00     0.173 HD
BRANCH   8  10
HETATM   10  S1  UNL     1       9.382  16.192  36.598  1.00  0.00     0.315 S 
HETATM   11  O2  UNL     1       8.096  15.616  36.024  1.00  0.00    -0.183 OA
HETATM   12  O3  UNL     1       9.585  17.510  35.888  1.00  0.00    -0.183 OA
BRANCH  10  13
HETATM   13  N7  UNL     1       9.158  16.394  38.273  1.00  0.00    -0.301 N 
ATOM     14  H7  UNL     1       9.522  17.178  38.814  1.00  0.00     0.173 HD
BRANCH  13  15
HETATM   15  C9  UNL     1       8.393  15.321  38.824  1.00  0.00     0.154 C 
BRANCH  15  16
HETATM   16  C10 UNL     1       7.414  15.897  39.822  1.00  0.00     0.173 C 
BRANCH  16  17
HETATM   17  N8  UNL     1       7.916  15.958  41.152  1.00  0.00    -0.131 N 
HETATM   18  C11 UNL     1       8.716  16.956  41.551  1.00  0.00     0.344 A 
HETATM   19  O4  UNL     1       9.063  17.890  40.770  1.00  0.00    -0.246 OA
HETATM   20  N9  UNL     1       9.203  17.034  42.810  1.00  0.00    -0.273 N 
HETATM   21  C12 UNL     1       8.888  16.095  43.697  1.00  0.00     0.239 A 
ATOM     22  H9  UNL     1       9.810  17.809  43.077  1.00  0.00     0.174 HD
HETATM   23  N10 UNL     1       8.095  15.087  43.334  1.00  0.00    -0.155 N 
HETATM   24  C13 UNL     1       7.611  15.014  42.077  1.00  0.00     0.685 A 
ATOM     25  H10 UNL     1       7.851  14.366  44.013  1.00  0.00     0.188 HD
BRANCH  21  26
HETATM   26  O5  UNL     1       9.386  16.159  45.010  1.00  0.00    -0.332 OA
ATOM     27  H5  UNL     1       8.796  16.293  45.743  1.00  0.00     0.221 HD
ENDBRANCH  21  26
BRANCH  24  28
HETATM   28  N11 UNL     1       6.850  14.014  41.792  1.00  0.00    -0.234 N 
ATOM     29 2H11 UNL     1       7.262  13.248  41.260  1.00  0.00     0.174 HD
ATOM     30 1H11 UNL     1       5.873  13.987  42.087  1.00  0.00     0.174 HD
ENDBRANCH  24  28
ENDBRANCH  16  17
ENDBRANCH  15  16
ENDBRANCH  13  15
ENDBRANCH  10  13
ENDBRANCH   8  10
ENDBRANCH   7   8
ENDBRANCH   3   7
BRANCH   4  31
HETATM   31  O6  UNL     1      13.260  13.698  35.602  1.00  0.00    -0.390 OA
ATOM     32  H6  UNL     1      13.772  13.583  34.810  1.00  0.00     0.210 HD
ENDBRANCH   4  31
BRANCH   1  33
HETATM   33  N5  UNL     1      12.671  16.239  39.929  1.00  0.00    -0.297 N 
HETATM   34  C3  UNL     1      12.645  16.263  41.280  1.00  0.00     0.142 A 
HETATM   35  N3  UNL     1      12.852  15.308  42.195  1.00  0.00    -0.336 N 
HETATM   36  C4  UNL     1      12.343  17.540  41.687  1.00  0.00     0.122 A 
HETATM   37  C2  UNL     1      12.766  15.597  43.500  1.00  0.00     0.183 A 
ATOM     38  H3  UNL     1      13.076  14.359  41.897  1.00  0.00     0.168 HD
HETATM   39  N2  UNL     1      12.472  16.836  43.929  1.00  0.00    -0.337 N 
HETATM   40  C1  UNL     1      12.260  17.812  43.040  1.00  0.00     0.131 A 
ATOM     41  H2  UNL     1      12.411  17.031  44.928  1.00  0.00     0.168 HD
HETATM   42  N1  UNL     1      11.980  18.993  43.465  1.00  0.00    -0.383 N 
ATOM     43  H12 UNL     1      11.918  19.194  44.463  1.00  0.00     0.157 HD
ATOM     44  H11 UNL     1      11.818  19.738  42.787  1.00  0.00     0.157 HD
HETATM   45  N4  UNL     1      12.183  18.298  40.584  1.00  0.00    -0.346 N 
HETATM   46  C5  UNL     1      12.387  17.489  39.531  1.00  0.00     0.188 A 
ATOM     47  H4  UNL     1      11.953  19.291  40.554  1.00  0.00     0.167 HD
ENDBRANCH   1  33
BRANCH   5  48
HETATM   48  O7  UNL     1      15.960  13.958  37.366  1.00  0.00    -0.390 OA
ATOM     49  H7  UNL     1      16.445  14.231  38.135  1.00  0.00     0.210 HD
ENDBRANCH   5  48
BRANCH   6  50
HETATM   50  O8  UNL     1      15.102  16.083  38.792  1.00  0.00    -0.388 OA
ATOM     51  H8  UNL     1      15.969  15.999  38.411  1.00  0.00     0.210 HD
ENDBRANCH   6  50
TORSDOF 13
ENDMDL
