MODEL 1
REMARK VINA RESULT: -8.226796412      0.000      0.000
REMARK  15 active torsions:
REMARK  status: ('A' for Active; 'I' for Inactive)
REMARK    1  A    between atoms: C2_2  and  C4_4 
REMARK    2  A    between atoms: C2_2  and  C8_13 
REMARK    3  A    between atoms: C4_4  and  S1_5 
REMARK    4  A    between atoms: S1_5  and  C5_6 
REMARK       I    between atoms: C8_13  and  N3_15 
REMARK    5  A    between atoms: N3_15  and  C9_17 
REMARK    6  A    between atoms: C11_19  and  O2_20 
REMARK    7  A    between atoms: C11_19  and  C17_33 
REMARK    8  A    between atoms: O2_20  and  C12_21 
REMARK    9  A    between atoms: C12_21  and  C13_23 
REMARK   10  A    between atoms: C13_23  and  C14_24 
REMARK   11  A    between atoms: C14_24  and  O4_25 
REMARK   12  A    between atoms: C14_24  and  C15_28 
REMARK   13  A    between atoms: C16_29  and  N4_30 
REMARK   14  A    between atoms: C19_37  and  N5_38 
REMARK   15  A    between atoms: N5_38  and  N6_39 
ROOT
HETATM    1  C9  UNL     1      62.094  -0.583  69.310  1.00  0.00     0.291 C 
HETATM    2  C10 UNL     1      62.216  -1.952  69.865  1.00  0.00     0.104 C 
HETATM    3  C11 UNL     1      62.572  -2.073  71.307  1.00  0.00     0.165 C 
HETATM    4  C18 UNL     1      62.976  -0.814  71.991  1.00  0.00     0.102 C 
HETATM    5  C19 UNL     1      62.753   0.459  71.267  1.00  0.00     0.303 C 
HETATM    6  N7  UNL     1      61.733   0.428  70.276  1.00  0.00    -0.035 N 
ATOM      7  H71 UNL     1      60.802   0.288  70.668  1.00  0.00     0.281 HD
ATOM      8  H72 UNL     1      61.563   1.340  69.852  1.00  0.00     0.281 HD
ENDROOT
BRANCH   1   9
HETATM    9  N3  UNL     1      61.086  -0.549  68.271  1.00  0.00    -0.333 N 
HETATM   10  C8  UNL     1      60.428   0.648  67.888  1.00  0.00     0.228 C 
HETATM   11  O1  UNL     1      60.737   1.716  68.477  1.00  0.00    -0.273 OA
ATOM     12  H3  UNL     1      60.839  -1.419  67.797  1.00  0.00     0.164 HD
BRANCH  10  13
HETATM   13  C2  UNL     1      59.400   0.697  66.833  1.00  0.00     0.042 C 
HETATM   14  C1  UNL     1      59.222   2.099  66.288  1.00  0.00     0.026 C 
HETATM   15  C3  UNL     1      59.774  -0.218  65.663  1.00  0.00     0.026 C 
BRANCH  13  16
HETATM   16  C4  UNL     1      58.056   0.214  67.338  1.00  0.00     0.100 C 
BRANCH  16  17
HETATM   17  S1  UNL     1      58.024  -1.584  67.175  1.00  0.00    -0.093 SA
BRANCH  17  18
HETATM   18  C5  UNL     1      57.534  -2.365  68.711  1.00  0.00     0.136 C 
HETATM   19  N1  UNL     1      56.372  -2.910  68.902  1.00  0.00    -0.369 N 
HETATM   20  C6  UNL     1      56.264  -3.458  70.228  1.00  0.00     0.141 C 
ATOM     21  H1  UNL     1      55.631  -2.946  68.201  1.00  0.00     0.161 HD
HETATM   22  C7  UNL     1      57.693  -3.480  70.746  1.00  0.00     0.141 C 
HETATM   23  N2  UNL     1      58.319  -2.494  69.887  1.00  0.00    -0.369 N 
ATOM     24  H2  UNL     1      59.177  -1.981  70.092  1.00  0.00     0.161 HD
ENDBRANCH  17  18
ENDBRANCH  16  17
ENDBRANCH  13  16
ENDBRANCH  10  13
ENDBRANCH   1   9
BRANCH   3  25
HETATM   25  O2  UNL     1      63.652  -2.985  71.409  1.00  0.00    -0.298 OA
BRANCH  25  26
HETATM   26  C12 UNL     1      64.979  -2.661  71.290  1.00  0.00     0.264 C 
HETATM   27  O3  UNL     1      65.350  -1.991  70.293  1.00  0.00    -0.265 OA
BRANCH  26  28
HETATM   28  C13 UNL     1      66.003  -3.068  72.289  1.00  0.00     0.175 C 
BRANCH  28  29
HETATM   29  C14 UNL     1      66.811  -4.254  71.792  1.00  0.00     0.191 C 
HETATM   30  S2  UNL     1      68.523  -4.164  72.359  1.00  0.00    -0.041 SA
BRANCH  29  31
HETATM   31  O4  UNL     1      66.718  -4.320  70.409  1.00  0.00    -0.367 OA
ATOM     32  H4  UNL     1      65.910  -4.760  70.173  1.00  0.00     0.212 HD
ENDBRANCH  29  31
BRANCH  29  33
HETATM   33  C15 UNL     1      66.223  -5.485  72.320  1.00  0.00    -0.033 C 
HETATM   34  C16 UNL     1      65.746  -6.511  72.743  1.00  0.00     0.007 C 
BRANCH  34  35
HETATM   35  N4  UNL     1      65.207  -7.713  73.217  1.00  0.00    -0.359 N 
ATOM     36  H42 UNL     1      66.015  -7.111  73.373  1.00  0.00     0.166 HD
ATOM     37  H41 UNL     1      64.801  -8.586  73.553  1.00  0.00     0.166 HD
ENDBRANCH  34  35
ENDBRANCH  29  33
ENDBRANCH  28  29
ENDBRANCH  26  28
ENDBRANCH  25  26
ENDBRANCH   3  25
BRANCH   3  38
HETATM   38  C17 UNL     1      61.432  -2.656  72.039  1.00  0.00     0.210 C 
HETATM   39  O5  UNL     1      60.406  -1.973  72.219  1.00  0.00    -0.646 OA
HETATM   40  O6  UNL     1      61.497  -3.939  72.521  1.00  0.00    -0.646 OA
ENDBRANCH   3  38
BRANCH   5  41
HETATM   41  N5  UNL     1      62.513   1.568  72.198  1.00  0.00    -0.115 NA
BRANCH  41  42
HETATM   42  N6  UNL     1      61.756   2.578  71.645  1.00  0.00    -0.346 N 
ATOM     43  H62 UNL     1      60.751   2.493  71.493  1.00  0.00     0.172 HD
ATOM     44  H61 UNL     1      62.306   3.404  71.411  1.00  0.00     0.172 HD
ENDBRANCH  41  42
ENDBRANCH   5  41
TORSDOF 15
ENDMDL
MODEL 2
REMARK VINA RESULT: -8.176832433      1.655      1.858
REMARK  15 active torsions:
REMARK  status: ('A' for Active; 'I' for Inactive)
REMARK    1  A    between atoms: C2_2  and  C4_4 
REMARK    2  A    between atoms: C2_2  and  C8_13 
REMARK    3  A    between atoms: C4_4  and  S1_5 
REMARK    4  A    between atoms: S1_5  and  C5_6 
REMARK       I    between atoms: C8_13  and  N3_15 
REMARK    5  A    between atoms: N3_15  and  C9_17 
REMARK    6  A    between atoms: C11_19  and  O2_20 
REMARK    7  A    between atoms: C11_19  and  C17_33 
REMARK    8  A    between atoms: O2_20  and  C12_21 
REMARK    9  A    between atoms: C12_21  and  C13_23 
REMARK   10  A    between atoms: C13_23  and  C14_24 
REMARK   11  A    between atoms: C14_24  and  O4_25 
REMARK   12  A    between atoms: C14_24  and  C15_28 
REMARK   13  A    between atoms: C16_29  and  N4_30 
REMARK   14  A    between atoms: C19_37  and  N5_38 
REMARK   15  A    between atoms: N5_38  and  N6_39 
ROOT
HETATM    1  C9  UNL     1      62.016  -0.439  69.697  1.00  0.00     0.291 C 
HETATM    2  C10 UNL     1      61.675  -1.647  70.486  1.00  0.00     0.104 C 
HETATM    3  C11 UNL     1      61.758  -1.538  71.970  1.00  0.00     0.165 C 
HETATM    4  C18 UNL     1      62.378  -0.293  72.502  1.00  0.00     0.102 C 
HETATM    5  C19 UNL     1      62.622   0.812  71.546  1.00  0.00     0.303 C 
HETATM    6  N7  UNL     1      61.797   0.811  70.387  1.00  0.00    -0.035 N 
ATOM      7  H71 UNL     1      60.815   0.981  70.598  1.00  0.00     0.281 HD
ATOM      8  H72 UNL     1      61.949   1.625  69.791  1.00  0.00     0.281 HD
ENDROOT
BRANCH   1   9
HETATM    9  N3  UNL     1      61.227  -0.392  68.484  1.00  0.00    -0.333 N 
HETATM   10  C8  UNL     1      59.972   0.266  68.418  1.00  0.00     0.228 C 
HETATM   11  O1  UNL     1      59.535   0.826  69.456  1.00  0.00    -0.273 OA
ATOM     12  H3  UNL     1      61.587  -0.848  67.645  1.00  0.00     0.164 HD
BRANCH  10  13
HETATM   13  C2  UNL     1      59.158   0.322  67.190  1.00  0.00     0.042 C 
HETATM   14  C1  UNL     1      58.940   1.748  66.727  1.00  0.00     0.026 C 
HETATM   15  C3  UNL     1      59.836  -0.443  66.050  1.00  0.00     0.026 C 
BRANCH  13  16
HETATM   16  C4  UNL     1      57.802  -0.322  67.387  1.00  0.00     0.100 C 
BRANCH  16  17
HETATM   17  S1  UNL     1      58.066  -2.092  67.630  1.00  0.00    -0.093 SA
BRANCH  17  18
HETATM   18  C5  UNL     1      57.260  -2.669  69.122  1.00  0.00     0.136 C 
HETATM   19  N1  UNL     1      57.692  -2.414  70.318  1.00  0.00    -0.369 N 
HETATM   20  C6  UNL     1      56.842  -3.004  71.318  1.00  0.00     0.141 C 
ATOM     21  H1  UNL     1      58.528  -1.865  70.523  1.00  0.00     0.161 HD
HETATM   22  C7  UNL     1      55.583  -3.394  70.561  1.00  0.00     0.141 C 
HETATM   23  N2  UNL     1      56.078  -3.453  69.200  1.00  0.00    -0.369 N 
ATOM     24  H2  UNL     1      55.651  -3.970  68.431  1.00  0.00     0.161 HD
ENDBRANCH  17  18
ENDBRANCH  16  17
ENDBRANCH  13  16
ENDBRANCH  10  13
ENDBRANCH   1   9
BRANCH   3  25
HETATM   25  O2  UNL     1      62.522  -2.635  72.440  1.00  0.00    -0.298 OA
BRANCH  25  26
HETATM   26  C12 UNL     1      63.880  -2.633  72.634  1.00  0.00     0.264 C 
HETATM   27  O3  UNL     1      64.322  -2.538  73.807  1.00  0.00    -0.265 OA
BRANCH  26  28
HETATM   28  C13 UNL     1      64.856  -2.739  71.517  1.00  0.00     0.175 C 
BRANCH  28  29
HETATM   29  C14 UNL     1      65.214  -4.188  71.239  1.00  0.00     0.191 C 
HETATM   30  S2  UNL     1      65.229  -4.529  69.466  1.00  0.00    -0.041 SA
BRANCH  29  31
HETATM   31  O4  UNL     1      64.336  -5.013  71.926  1.00  0.00    -0.367 OA
ATOM     32  H4  UNL     1      64.141  -5.774  71.392  1.00  0.00     0.212 HD
ENDBRANCH  29  31
BRANCH  29  33
HETATM   33  C15 UNL     1      66.554  -4.456  71.763  1.00  0.00    -0.033 C 
HETATM   34  C16 UNL     1      67.653  -4.693  72.204  1.00  0.00     0.007 C 
BRANCH  34  35
HETATM   35  N4  UNL     1      68.919  -4.989  72.722  1.00  0.00    -0.359 N 
ATOM     36  H42 UNL     1      68.187  -5.429  72.164  1.00  0.00     0.166 HD
ATOM     37  H41 UNL     1      69.842  -5.189  73.107  1.00  0.00     0.166 HD
ENDBRANCH  34  35
ENDBRANCH  29  33
ENDBRANCH  28  29
ENDBRANCH  26  28
ENDBRANCH  25  26
ENDBRANCH   3  25
BRANCH   3  38
HETATM   38  C17 UNL     1      60.405  -1.665  72.540  1.00  0.00     0.210 C 
HETATM   39  O5  UNL     1      59.532  -0.828  72.241  1.00  0.00    -0.646 OA
HETATM   40  O6  UNL     1      60.104  -2.696  73.395  1.00  0.00    -0.646 OA
ENDBRANCH   3  38
BRANCH   5  41
HETATM   41  N5  UNL     1      62.550   2.118  72.210  1.00  0.00    -0.115 NA
BRANCH  41  42
HETATM   42  N6  UNL     1      61.530   2.910  71.729  1.00  0.00    -0.346 N 
ATOM     43  H62 UNL     1      61.592   3.409  70.841  1.00  0.00     0.172 HD
ATOM     44  H61 UNL     1      60.722   2.938  72.350  1.00  0.00     0.172 HD
ENDBRANCH  41  42
ENDBRANCH   5  41
TORSDOF 15
ENDMDL
MODEL 3
REMARK VINA RESULT: -8.017493839      1.821      2.189
REMARK  15 active torsions:
REMARK  status: ('A' for Active; 'I' for Inactive)
REMARK    1  A    between atoms: C2_2  and  C4_4 
REMARK    2  A    between atoms: C2_2  and  C8_13 
REMARK    3  A    between atoms: C4_4  and  S1_5 
REMARK    4  A    between atoms: S1_5  and  C5_6 
REMARK       I    between atoms: C8_13  and  N3_15 
REMARK    5  A    between atoms: N3_15  and  C9_17 
REMARK    6  A    between atoms: C11_19  and  O2_20 
REMARK    7  A    between atoms: C11_19  and  C17_33 
REMARK    8  A    between atoms: O2_20  and  C12_21 
REMARK    9  A    between atoms: C12_21  and  C13_23 
REMARK   10  A    between atoms: C13_23  and  C14_24 
REMARK   11  A    between atoms: C14_24  and  O4_25 
REMARK   12  A    between atoms: C14_24  and  C15_28 
REMARK   13  A    between atoms: C16_29  and  N4_30 
REMARK   14  A    between atoms: C19_37  and  N5_38 
REMARK   15  A    between atoms: N5_38  and  N6_39 
ROOT
HETATM    1  C9  UNL     1      62.090  -0.774  69.982  1.00  0.00     0.291 C 
HETATM    2  C10 UNL     1      61.567  -1.861  70.845  1.00  0.00     0.104 C 
HETATM    3  C11 UNL     1      61.543  -1.612  72.314  1.00  0.00     0.165 C 
HETATM    4  C18 UNL     1      62.241  -0.383  72.783  1.00  0.00     0.102 C 
HETATM    5  C19 UNL     1      62.671   0.593  71.755  1.00  0.00     0.303 C 
HETATM    6  N7  UNL     1      61.945   0.553  70.532  1.00  0.00    -0.035 N 
ATOM      7  H71 UNL     1      60.971   0.834  70.639  1.00  0.00     0.281 HD
ATOM      8  H72 UNL     1      62.225   1.286  69.880  1.00  0.00     0.281 HD
ENDROOT
BRANCH   1   9
HETATM    9  N3  UNL     1      61.408  -0.775  68.704  1.00  0.00    -0.333 N 
HETATM   10  C8  UNL     1      60.213  -0.044  68.480  1.00  0.00     0.228 C 
HETATM   11  O1  UNL     1      59.735   0.627  69.430  1.00  0.00    -0.273 OA
ATOM     12  H3  UNL     1      61.801  -1.322  67.938  1.00  0.00     0.164 HD
BRANCH  10  13
HETATM   13  C2  UNL     1      59.509  -0.036  67.185  1.00  0.00     0.042 C 
HETATM   14  C1  UNL     1      59.462   1.353  66.581  1.00  0.00     0.026 C 
HETATM   15  C3  UNL     1      60.202  -0.961  66.180  1.00  0.00     0.026 C 
BRANCH  13  16
HETATM   16  C4  UNL     1      58.088  -0.541  67.317  1.00  0.00     0.100 C 
BRANCH  16  17
HETATM   17  S1  UNL     1      58.166  -2.301  67.711  1.00  0.00    -0.093 SA
BRANCH  17  18
HETATM   18  C5  UNL     1      57.210  -2.679  69.178  1.00  0.00     0.136 C 
HETATM   19  N1  UNL     1      56.079  -3.315  69.155  1.00  0.00    -0.369 N 
HETATM   20  C6  UNL     1      55.543  -3.474  70.482  1.00  0.00     0.141 C 
ATOM     21  H1  UNL     1      55.628  -3.657  68.307  1.00  0.00     0.161 HD
HETATM   22  C7  UNL     1      56.703  -3.135  71.402  1.00  0.00     0.141 C 
HETATM   23  N2  UNL     1      57.544  -2.351  70.519  1.00  0.00    -0.369 N 
ATOM     24  H2  UNL     1      58.254  -1.679  70.811  1.00  0.00     0.161 HD
ENDBRANCH  17  18
ENDBRANCH  16  17
ENDBRANCH  13  16
ENDBRANCH  10  13
ENDBRANCH   1   9
BRANCH   3  25
HETATM   25  O2  UNL     1      62.152  -2.723  72.949  1.00  0.00    -0.298 OA
BRANCH  25  26
HETATM   26  C12 UNL     1      63.489  -3.025  72.912  1.00  0.00     0.264 C 
HETATM   27  O3  UNL     1      64.260  -2.455  73.726  1.00  0.00    -0.265 OA
BRANCH  26  28
HETATM   28  C13 UNL     1      64.072  -3.998  71.950  1.00  0.00     0.175 C 
BRANCH  28  29
HETATM   29  C14 UNL     1      65.132  -3.342  71.082  1.00  0.00     0.191 C 
HETATM   30  S2  UNL     1      66.782  -3.946  71.497  1.00  0.00    -0.041 SA
BRANCH  29  31
HETATM   31  O4  UNL     1      65.030  -1.964  71.205  1.00  0.00    -0.367 OA
ATOM     32  H4  UNL     1      65.671  -1.553  70.637  1.00  0.00     0.212 HD
ENDBRANCH  29  31
BRANCH  29  33
HETATM   33  C15 UNL     1      64.870  -3.669  69.681  1.00  0.00    -0.033 C 
HETATM   34  C16 UNL     1      64.637  -3.929  68.524  1.00  0.00     0.007 C 
BRANCH  34  35
HETATM   35  N4  UNL     1      64.351  -4.213  67.184  1.00  0.00    -0.359 N 
ATOM     36  H42 UNL     1      64.061  -3.568  67.919  1.00  0.00     0.166 HD
ATOM     37  H41 UNL     1      64.154  -4.433  66.208  1.00  0.00     0.166 HD
ENDBRANCH  34  35
ENDBRANCH  29  33
ENDBRANCH  28  29
ENDBRANCH  26  28
ENDBRANCH  25  26
ENDBRANCH   3  25
BRANCH   3  38
HETATM   38  C17 UNL     1      60.143  -1.555  72.772  1.00  0.00     0.210 C 
HETATM   39  O5  UNL     1      59.381  -0.685  72.308  1.00  0.00    -0.646 OA
HETATM   40  O6  UNL     1      59.678  -2.451  73.701  1.00  0.00    -0.646 OA
ENDBRANCH   3  38
BRANCH   5  41
HETATM   41  N5  UNL     1      62.679   1.960  72.287  1.00  0.00    -0.115 NA
BRANCH  41  42
HETATM   42  N6  UNL     1      61.711   2.762  71.723  1.00  0.00    -0.346 N 
ATOM     43  H62 UNL     1      61.579   2.839  70.715  1.00  0.00     0.172 HD
ATOM     44  H61 UNL     1      61.153   3.259  72.417  1.00  0.00     0.172 HD
ENDBRANCH  41  42
ENDBRANCH   5  41
TORSDOF 15
ENDMDL
MODEL 4
REMARK VINA RESULT: -7.947781748      3.467      6.211
REMARK  15 active torsions:
REMARK  status: ('A' for Active; 'I' for Inactive)
REMARK    1  A    between atoms: C2_2  and  C4_4 
REMARK    2  A    between atoms: C2_2  and  C8_13 
REMARK    3  A    between atoms: C4_4  and  S1_5 
REMARK    4  A    between atoms: S1_5  and  C5_6 
REMARK       I    between atoms: C8_13  and  N3_15 
REMARK    5  A    between atoms: N3_15  and  C9_17 
REMARK    6  A    between atoms: C11_19  and  O2_20 
REMARK    7  A    between atoms: C11_19  and  C17_33 
REMARK    8  A    between atoms: O2_20  and  C12_21 
REMARK    9  A    between atoms: C12_21  and  C13_23 
REMARK   10  A    between atoms: C13_23  and  C14_24 
REMARK   11  A    between atoms: C14_24  and  O4_25 
REMARK   12  A    between atoms: C14_24  and  C15_28 
REMARK   13  A    between atoms: C16_29  and  N4_30 
REMARK   14  A    between atoms: C19_37  and  N5_38 
REMARK   15  A    between atoms: N5_38  and  N6_39 
ROOT
HETATM    1  C9  UNL     1      64.694  -3.816  69.165  1.00  0.00     0.291 C 
HETATM    2  C10 UNL     1      64.250  -2.878  70.224  1.00  0.00     0.104 C 
HETATM    3  C11 UNL     1      64.741  -3.130  71.608  1.00  0.00     0.165 C 
HETATM    4  C18 UNL     1      65.455  -4.418  71.826  1.00  0.00     0.102 C 
HETATM    5  C19 UNL     1      65.829  -5.204  70.628  1.00  0.00     0.303 C 
HETATM    6  N7  UNL     1      65.962  -4.457  69.424  1.00  0.00    -0.035 N 
ATOM      7  H71 UNL     1      66.741  -3.800  69.448  1.00  0.00     0.281 HD
ATOM      8  H72 UNL     1      66.288  -5.023  68.640  1.00  0.00     0.281 HD
ENDROOT
BRANCH   1   9
HETATM    9  N3  UNL     1      64.825  -3.123  67.901  1.00  0.00    -0.333 N 
HETATM   10  C8  UNL     1      64.951  -3.811  66.666  1.00  0.00     0.228 C 
HETATM   11  O1  UNL     1      64.948  -5.069  66.679  1.00  0.00    -0.273 OA
ATOM     12  H3  UNL     1      64.826  -2.103  67.897  1.00  0.00     0.164 HD
BRANCH  10  13
HETATM   13  C2  UNL     1      65.084  -3.118  65.372  1.00  0.00     0.042 C 
HETATM   14  C1  UNL     1      66.313  -2.232  65.335  1.00  0.00     0.026 C 
HETATM   15  C3  UNL     1      65.196  -4.124  64.223  1.00  0.00     0.026 C 
BRANCH  13  16
HETATM   16  C4  UNL     1      63.875  -2.259  65.069  1.00  0.00     0.100 C 
BRANCH  16  17
HETATM   17  S1  UNL     1      62.416  -3.320  65.150  1.00  0.00    -0.093 SA
BRANCH  17  18
HETATM   18  C5  UNL     1      61.204  -2.669  66.299  1.00  0.00     0.136 C 
HETATM   19  N1  UNL     1      61.443  -1.692  67.118  1.00  0.00    -0.369 N 
HETATM   20  C6  UNL     1      60.285  -1.385  67.916  1.00  0.00     0.141 C 
ATOM     21  H1  UNL     1      62.336  -1.204  67.188  1.00  0.00     0.161 HD
HETATM   22  C7  UNL     1      59.144  -2.108  67.220  1.00  0.00     0.141 C 
HETATM   23  N2  UNL     1      59.865  -3.113  66.464  1.00  0.00    -0.369 N 
ATOM     24  H2  UNL     1      59.478  -3.988  66.112  1.00  0.00     0.161 HD
ENDBRANCH  17  18
ENDBRANCH  16  17
ENDBRANCH  13  16
ENDBRANCH  10  13
ENDBRANCH   1   9
BRANCH   3  25
HETATM   25  O2  UNL     1      63.620  -3.106  72.474  1.00  0.00    -0.298 OA
BRANCH  25  26
HETATM   26  C12 UNL     1      62.308  -3.070  72.074  1.00  0.00     0.264 C 
HETATM   27  O3  UNL     1      61.577  -4.064  72.314  1.00  0.00    -0.265 OA
BRANCH  26  28
HETATM   28  C13 UNL     1      61.709  -1.906  71.369  1.00  0.00     0.175 C 
BRANCH  28  29
HETATM   29  C14 UNL     1      61.358  -0.796  72.345  1.00  0.00     0.191 C 
HETATM   30  S2  UNL     1      61.335   0.812  71.525  1.00  0.00    -0.041 SA
BRANCH  29  31
HETATM   31  O4  UNL     1      62.246  -0.831  73.410  1.00  0.00    -0.367 OA
ATOM     32  H4  UNL     1      62.427  -1.736  73.634  1.00  0.00     0.212 HD
ENDBRANCH  29  31
BRANCH  29  33
HETATM   33  C15 UNL     1      60.024  -1.046  72.890  1.00  0.00    -0.033 C 
HETATM   34  C16 UNL     1      58.914  -1.244  73.325  1.00  0.00     0.007 C 
BRANCH  34  35
HETATM   35  N4  UNL     1      57.620  -1.468  73.808  1.00  0.00    -0.359 N 
ATOM     36  H42 UNL     1      58.379  -0.794  73.907  1.00  0.00     0.166 HD
ATOM     37  H41 UNL     1      56.675  -1.644  74.150  1.00  0.00     0.166 HD
ENDBRANCH  34  35
ENDBRANCH  29  33
ENDBRANCH  28  29
ENDBRANCH  26  28
ENDBRANCH  25  26
ENDBRANCH   3  25
BRANCH   3  38
HETATM   38  C17 UNL     1      65.634  -2.028  72.012  1.00  0.00     0.210 C 
HETATM   39  O5  UNL     1      66.833  -2.266  72.249  1.00  0.00    -0.646 OA
HETATM   40  O6  UNL     1      65.151  -0.749  72.128  1.00  0.00    -0.646 OA
ENDBRANCH   3  38
BRANCH   5  41
HETATM   41  N5  UNL     1      67.043  -5.993  70.864  1.00  0.00    -0.115 NA
BRANCH  41  42
HETATM   42  N6  UNL     1      67.975  -5.329  71.630  1.00  0.00    -0.346 N 
ATOM     43  H62 UNL     1      67.723  -4.589  72.286  1.00  0.00     0.172 HD
ATOM     44  H61 UNL     1      68.927  -5.656  71.470  1.00  0.00     0.172 HD
ENDBRANCH  41  42
ENDBRANCH   5  41
TORSDOF 15
ENDMDL
MODEL 5
REMARK VINA RESULT: -7.941883449      3.153      6.470
REMARK  15 active torsions:
REMARK  status: ('A' for Active; 'I' for Inactive)
REMARK    1  A    between atoms: C2_2  and  C4_4 
REMARK    2  A    between atoms: C2_2  and  C8_13 
REMARK    3  A    between atoms: C4_4  and  S1_5 
REMARK    4  A    between atoms: S1_5  and  C5_6 
REMARK       I    between atoms: C8_13  and  N3_15 
REMARK    5  A    between atoms: N3_15  and  C9_17 
REMARK    6  A    between atoms: C11_19  and  O2_20 
REMARK    7  A    between atoms: C11_19  and  C17_33 
REMARK    8  A    between atoms: O2_20  and  C12_21 
REMARK    9  A    between atoms: C12_21  and  C13_23 
REMARK   10  A    between atoms: C13_23  and  C14_24 
REMARK   11  A    between atoms: C14_24  and  O4_25 
REMARK   12  A    between atoms: C14_24  and  C15_28 
REMARK   13  A    between atoms: C16_29  and  N4_30 
REMARK   14  A    between atoms: C19_37  and  N5_38 
REMARK   15  A    between atoms: N5_38  and  N6_39 
ROOT
HETATM    1  C9  UNL     1      65.196  -4.494  70.384  1.00  0.00     0.291 C 
HETATM    2  C10 UNL     1      66.159  -3.620  71.096  1.00  0.00     0.104 C 
HETATM    3  C11 UNL     1      66.501  -3.985  72.500  1.00  0.00     0.165 C 
HETATM    4  C18 UNL     1      65.683  -5.065  73.114  1.00  0.00     0.102 C 
HETATM    5  C19 UNL     1      64.790  -5.840  72.221  1.00  0.00     0.303 C 
HETATM    6  N7  UNL     1      65.168  -5.861  70.849  1.00  0.00    -0.035 N 
ATOM      7  H71 UNL     1      66.044  -6.355  70.685  1.00  0.00     0.281 HD
ATOM      8  H72 UNL     1      64.569  -6.461  70.282  1.00  0.00     0.281 HD
ENDROOT
BRANCH   1   9
HETATM    9  N3  UNL     1      65.508  -4.539  68.970  1.00  0.00    -0.333 N 
HETATM   10  C8  UNL     1      64.784  -3.789  68.008  1.00  0.00     0.228 C 
HETATM   11  O1  UNL     1      63.837  -3.062  68.404  1.00  0.00    -0.273 OA
ATOM     12  H3  UNL     1      66.277  -5.131  68.655  1.00  0.00     0.164 HD
BRANCH  10  13
HETATM   13  C2  UNL     1      65.091  -3.825  66.567  1.00  0.00     0.042 C 
HETATM   14  C1  UNL     1      65.606  -2.490  66.070  1.00  0.00     0.026 C 
HETATM   15  C3  UNL     1      66.155  -4.883  66.260  1.00  0.00     0.026 C 
BRANCH  13  16
HETATM   16  C4  UNL     1      63.875  -4.197  65.744  1.00  0.00     0.100 C 
BRANCH  16  17
HETATM   17  S1  UNL     1      63.279  -2.695  64.937  1.00  0.00    -0.093 SA
BRANCH  17  18
HETATM   18  C5  UNL     1      61.743  -2.132  65.667  1.00  0.00     0.136 C 
HETATM   19  N1  UNL     1      61.051  -1.136  65.207  1.00  0.00    -0.369 N 
HETATM   20  C6  UNL     1      59.866  -0.916  65.995  1.00  0.00     0.141 C 
ATOM     21  H1  UNL     1      61.312  -0.581  64.392  1.00  0.00     0.161 HD
HETATM   22  C7  UNL     1      59.735  -2.172  66.840  1.00  0.00     0.141 C 
HETATM   23  N2  UNL     1      61.093  -2.679  66.806  1.00  0.00    -0.369 N 
ATOM     24  H2  UNL     1      61.509  -3.318  67.483  1.00  0.00     0.161 HD
ENDBRANCH  17  18
ENDBRANCH  16  17
ENDBRANCH  13  16
ENDBRANCH  10  13
ENDBRANCH   1   9
BRANCH   3  25
HETATM   25  O2  UNL     1      66.349  -2.822  73.296  1.00  0.00    -0.298 OA
BRANCH  25  26
HETATM   26  C12 UNL     1      66.148  -1.552  72.818  1.00  0.00     0.264 C 
HETATM   27  O3  UNL     1      67.065  -1.005  72.156  1.00  0.00    -0.265 OA
BRANCH  26  28
HETATM   28  C13 UNL     1      64.891  -0.792  73.048  1.00  0.00     0.175 C 
BRANCH  28  29
HETATM   29  C14 UNL     1      64.007  -0.808  71.813  1.00  0.00     0.191 C 
HETATM   30  S2  UNL     1      62.872  -2.211  71.839  1.00  0.00    -0.041 SA
BRANCH  29  31
HETATM   31  O4  UNL     1      64.810  -0.802  70.681  1.00  0.00    -0.367 OA
ATOM     32  H4  UNL     1      64.801   0.068  70.298  1.00  0.00     0.212 HD
ENDBRANCH  29  31
BRANCH  29  33
HETATM   33  C15 UNL     1      63.211   0.419  71.781  1.00  0.00    -0.033 C 
HETATM   34  C16 UNL     1      62.566   1.439  71.743  1.00  0.00     0.007 C 
BRANCH  34  35
HETATM   35  N4  UNL     1      61.832   2.630  71.681  1.00  0.00    -0.359 N 
ATOM     36  H42 UNL     1      61.684   1.623  71.611  1.00  0.00     0.166 HD
ATOM     37  H41 UNL     1      61.312   3.506  71.640  1.00  0.00     0.166 HD
ENDBRANCH  34  35
ENDBRANCH  29  33
ENDBRANCH  28  29
ENDBRANCH  26  28
ENDBRANCH  25  26
ENDBRANCH   3  25
BRANCH   3  38
HETATM   38  C17 UNL     1      67.920  -4.380  72.564  1.00  0.00     0.210 C 
HETATM   39  O5  UNL     1      68.331  -5.308  71.841  1.00  0.00    -0.646 OA
HETATM   40  O6  UNL     1      68.784  -3.735  73.412  1.00  0.00    -0.646 OA
ENDBRANCH   3  38
BRANCH   5  41
HETATM   41  N5  UNL     1      64.604  -7.211  72.709  1.00  0.00    -0.115 NA
BRANCH  41  42
HETATM   42  N6  UNL     1      65.565  -7.592  73.620  1.00  0.00    -0.346 N 
ATOM     43  H62 UNL     1      66.371  -7.009  73.847  1.00  0.00     0.172 HD
ATOM     44  H61 UNL     1      65.380  -8.506  74.033  1.00  0.00     0.172 HD
ENDBRANCH  41  42
ENDBRANCH   5  41
TORSDOF 15
ENDMDL
