MODEL 1
REMARK VINA RESULT: -10.009020855      0.000      0.000
REMARK  10 active torsions:
REMARK  status: ('A' for Active; 'I' for Inactive)
REMARK    1  A    between atoms: C2_9  and  S1_10 
REMARK    2  A    between atoms: S1_10  and  C3_11 
REMARK    3  A    between atoms: C3_11  and  C4_12 
REMARK       I    between atoms: C4_12  and  N5_14 
REMARK    4  A    between atoms: N5_14  and  C5_15 
REMARK    5  A    between atoms: C7_17  and  N6_18 
REMARK    6  A    between atoms: N6_18  and  C8_20 
REMARK    7  A    between atoms: C11_26  and  N8_27 
REMARK    8  A    between atoms: N8_27  and  C12_29 
REMARK    9  A    between atoms: C12_29  and  C13_30 
REMARK   10  A    between atoms: C16_43  and  O5_44 
ROOT
HETATM    1  N6  UNL     1      59.767   0.122  67.918  1.00  0.00    -0.338 N 
ATOM      2  H6  UNL     1      59.288   0.851  67.390  1.00  0.00     0.167 HD
ENDROOT
BRANCH   1   3
HETATM    3  C7  UNL     1      60.078  -1.030  67.186  1.00  0.00     0.089 A 
HETATM    4  C6  UNL     1      61.102  -1.361  66.343  1.00  0.00     0.098 A 
HETATM    5  C5  UNL     1      61.057  -2.676  65.907  1.00  0.00     0.187 A 
HETATM    6  N13 UNL     1      59.897  -3.162  66.554  1.00  0.00    -0.310 N 
HETATM    7  C16 UNL     1      59.348  -2.230  67.274  1.00  0.00     0.170 A 
ATOM      8  H13 UNL     1      59.540  -4.113  66.468  1.00  0.00     0.170 HD
BRANCH   5   9
HETATM    9  N5  UNL     1      61.782  -3.485  65.114  1.00  0.00    -0.351 NA
HETATM   10  C4  UNL     1      62.513  -4.310  64.307  1.00  0.00     0.303 C 
HETATM   11  O1  UNL     1      62.191  -5.342  63.728  1.00  0.00    -0.256 OA
BRANCH  10  12
HETATM   12  C3  UNL     1      63.959  -3.878  64.098  1.00  0.00     0.201 C 
BRANCH  12  13
HETATM   13  S1  UNL     1      64.368  -2.725  65.415  1.00  0.00    -0.081 SA
BRANCH  13  14
HETATM   14  C2  UNL     1      65.021  -3.651  66.790  1.00  0.00     0.178 A 
HETATM   15  N1  UNL     1      64.654  -3.532  68.059  1.00  0.00    -0.259 N 
HETATM   16  C1  UNL     1      63.643  -2.599  68.559  1.00  0.00     0.181 C 
HETATM   17  N2  UNL     1      65.378  -4.404  68.725  1.00  0.00    -0.224 N 
HETATM   18  N3  UNL     1      66.192  -5.069  67.928  1.00  0.00    -0.226 N 
ATOM     19  H2  UNL     1      65.319  -4.548  69.733  1.00  0.00     0.210 HD
HETATM   20  N4  UNL     1      65.971  -4.598  66.698  1.00  0.00    -0.263 N 
ATOM     21  H3  UNL     1      66.855  -5.796  68.197  1.00  0.00     0.210 HD
ATOM     22  H4  UNL     1      66.439  -4.902  65.843  1.00  0.00     0.190 HD
ENDBRANCH  13  14
ENDBRANCH  12  13
ENDBRANCH  10  12
ENDBRANCH   5   9
BRANCH   7  23
HETATM   23  O5  UNL     1      58.176  -2.350  68.058  1.00  0.00    -0.344 OA
ATOM     24  H5  UNL     1      58.184  -2.720  68.933  1.00  0.00     0.219 HD
ENDBRANCH   7  23
ENDBRANCH   1   3
BRANCH   1  25
HETATM   25  C8  UNL     1      60.011   0.426  69.254  1.00  0.00     0.126 A 
HETATM   26  C9  UNL     1      60.837   1.390  69.775  1.00  0.00     0.123 A 
HETATM   27  C10 UNL     1      61.038   1.562  71.152  1.00  0.00     0.263 A 
HETATM   28  O2  UNL     1      61.788   2.438  71.608  1.00  0.00    -0.268 OA
HETATM   29  N7  UNL     1      60.388   0.742  71.983  1.00  0.00    -0.156 N 
HETATM   30  C11 UNL     1      59.570  -0.214  71.523  1.00  0.00     0.682 A 
ATOM     31  H7  UNL     1      60.516   0.848  72.989  1.00  0.00     0.187 HD
HETATM   32  N12 UNL     1      59.400  -0.352  70.212  1.00  0.00    -0.176 N 
ATOM     33  H12 UNL     1      58.770  -1.087  69.892  1.00  0.00     0.186 HD
BRANCH  30  34
HETATM   34  N8  UNL     1      58.981  -0.980  72.386  1.00  0.00    -0.219 N 
ATOM     35  H8  UNL     1      58.670  -0.581  73.270  1.00  0.00     0.178 HD
BRANCH  34  36
HETATM   36  C12 UNL     1      58.750  -2.390  72.130  1.00  0.00     0.216 C 
BRANCH  36  37
HETATM   37  C13 UNL     1      57.311  -2.536  71.748  1.00  0.00     0.117 A 
HETATM   38  N9  UNL     1      56.963  -3.268  70.660  1.00  0.00    -0.306 N 
HETATM   39  C14 UNL     1      55.654  -3.360  70.381  1.00  0.00     0.316 A 
ATOM     40  H9  UNL     1      57.665  -3.728  70.080  1.00  0.00     0.170 HD
HETATM   41  O3  UNL     1      55.244  -4.026  69.381  1.00  0.00    -0.262 OA
HETATM   42  C15 UNL     1      54.678  -2.746  71.152  1.00  0.00     0.328 A 
HETATM   43  O4  UNL     1      53.451  -2.856  70.859  1.00  0.00    -0.261 OA
HETATM   44  N10 UNL     1      55.088  -2.045  72.203  1.00  0.00    -0.260 N 
HETATM   45  N11 UNL     1      56.366  -1.945  72.490  1.00  0.00    -0.284 N 
ATOM     46  H10 UNL     1      54.401  -1.579  72.796  1.00  0.00     0.190 HD
ATOM     47  H11 UNL     1      56.647  -1.399  73.304  1.00  0.00     0.188 HD
ENDBRANCH  36  37
ENDBRANCH  34  36
ENDBRANCH  30  34
ENDBRANCH   1  25
TORSDOF 10
ENDMDL
MODEL 2
REMARK VINA RESULT: -9.900608616      2.953      3.556
REMARK  10 active torsions:
REMARK  status: ('A' for Active; 'I' for Inactive)
REMARK    1  A    between atoms: C2_9  and  S1_10 
REMARK    2  A    between atoms: S1_10  and  C3_11 
REMARK    3  A    between atoms: C3_11  and  C4_12 
REMARK       I    between atoms: C4_12  and  N5_14 
REMARK    4  A    between atoms: N5_14  and  C5_15 
REMARK    5  A    between atoms: C7_17  and  N6_18 
REMARK    6  A    between atoms: N6_18  and  C8_20 
REMARK    7  A    between atoms: C11_26  and  N8_27 
REMARK    8  A    between atoms: N8_27  and  C12_29 
REMARK    9  A    between atoms: C12_29  and  C13_30 
REMARK   10  A    between atoms: C16_43  and  O5_44 
ROOT
HETATM    1  N6  UNL     1      61.395  -0.936  68.125  1.00  0.00    -0.338 N 
ATOM      2  H6  UNL     1      60.911  -0.497  67.342  1.00  0.00     0.167 HD
ENDROOT
BRANCH   1   3
HETATM    3  C7  UNL     1      62.321  -1.923  67.770  1.00  0.00     0.089 A 
HETATM    4  C6  UNL     1      63.275  -2.613  68.465  1.00  0.00     0.098 A 
HETATM    5  C5  UNL     1      63.911  -3.588  67.714  1.00  0.00     0.187 A 
HETATM    6  N13 UNL     1      63.271  -3.459  66.459  1.00  0.00    -0.310 N 
HETATM    7  C16 UNL     1      62.375  -2.518  66.496  1.00  0.00     0.170 A 
ATOM      8  H13 UNL     1      63.483  -4.026  65.638  1.00  0.00     0.170 HD
BRANCH   5   9
HETATM    9  N5  UNL     1      64.871  -4.512  67.894  1.00  0.00    -0.351 NA
HETATM   10  C4  UNL     1      65.849  -5.449  68.072  1.00  0.00     0.303 C 
HETATM   11  O1  UNL     1      66.699  -5.866  67.292  1.00  0.00    -0.256 OA
BRANCH  10  12
HETATM   12  C3  UNL     1      65.885  -6.077  69.460  1.00  0.00     0.201 C 
BRANCH  12  13
HETATM   13  S1  UNL     1      65.740  -4.741  70.654  1.00  0.00    -0.081 SA
BRANCH  13  14
HETATM   14  C2  UNL     1      67.030  -4.931  71.869  1.00  0.00     0.178 A 
HETATM   15  N1  UNL     1      66.960  -5.653  72.979  1.00  0.00    -0.259 N 
HETATM   16  C1  UNL     1      65.791  -6.421  73.413  1.00  0.00     0.181 C 
HETATM   17  N2  UNL     1      68.128  -5.519  73.568  1.00  0.00    -0.224 N 
HETATM   18  N3  UNL     1      68.935  -4.739  72.875  1.00  0.00    -0.226 N 
ATOM     19  H2  UNL     1      68.379  -5.963  74.451  1.00  0.00     0.210 HD
HETATM   20  N4  UNL     1      68.246  -4.362  71.795  1.00  0.00    -0.263 N 
ATOM     21  H3  UNL     1      69.890  -4.477  73.116  1.00  0.00     0.210 HD
ATOM     22  H4  UNL     1      68.582  -3.752  71.048  1.00  0.00     0.190 HD
ENDBRANCH  13  14
ENDBRANCH  12  13
ENDBRANCH  10  12
ENDBRANCH   5   9
BRANCH   7  23
HETATM   23  O5  UNL     1      61.540  -2.107  65.429  1.00  0.00    -0.344 OA
ATOM     24  H5  UNL     1      60.831  -1.487  65.547  1.00  0.00     0.219 HD
ENDBRANCH   7  23
ENDBRANCH   1   3
BRANCH   1  25
HETATM   25  C8  UNL     1      61.032  -0.460  69.382  1.00  0.00     0.126 A 
HETATM   26  C9  UNL     1      61.174   0.807  69.891  1.00  0.00     0.123 A 
HETATM   27  C10 UNL     1      60.814   1.148  71.203  1.00  0.00     0.263 A 
HETATM   28  O2  UNL     1      60.948   2.298  71.648  1.00  0.00    -0.268 OA
HETATM   29  N7  UNL     1      60.309   0.186  71.980  1.00  0.00    -0.156 N 
HETATM   30  C11 UNL     1      60.151  -1.066  71.529  1.00  0.00     0.682 A 
ATOM     31  H7  UNL     1      60.039   0.409  72.938  1.00  0.00     0.187 HD
HETATM   32  N12 UNL     1      60.501  -1.359  70.280  1.00  0.00    -0.176 N 
ATOM     33  H12 UNL     1      60.367  -2.319  69.965  1.00  0.00     0.186 HD
BRANCH  30  34
HETATM   34  N8  UNL     1      59.667  -1.951  72.342  1.00  0.00    -0.219 N 
ATOM     35  H8  UNL     1      60.008  -2.910  72.288  1.00  0.00     0.178 HD
BRANCH  34  36
HETATM   36  C12 UNL     1      58.652  -1.617  73.325  1.00  0.00     0.216 C 
BRANCH  36  37
HETATM   37  C13 UNL     1      57.325  -1.923  72.706  1.00  0.00     0.117 A 
HETATM   38  N9  UNL     1      57.222  -2.874  71.742  1.00  0.00    -0.306 N 
HETATM   39  C14 UNL     1      56.001  -3.098  71.236  1.00  0.00     0.316 A 
ATOM     40  H9  UNL     1      58.038  -3.394  71.418  1.00  0.00     0.170 HD
HETATM   41  O3  UNL     1      55.819  -3.970  70.332  1.00  0.00    -0.262 OA
HETATM   42  C15 UNL     1      54.876  -2.407  71.658  1.00  0.00     0.328 A 
HETATM   43  O4  UNL     1      53.737  -2.647  71.159  1.00  0.00    -0.261 OA
HETATM   44  N10 UNL     1      55.046  -1.491  72.605  1.00  0.00    -0.260 N 
HETATM   45  N11 UNL     1      56.236  -1.258  73.112  1.00  0.00    -0.284 N 
ATOM     46  H10 UNL     1      54.243  -0.961  72.944  1.00  0.00     0.190 HD
ATOM     47  H11 UNL     1      56.333  -0.548  73.836  1.00  0.00     0.188 HD
ENDBRANCH  36  37
ENDBRANCH  34  36
ENDBRANCH  30  34
ENDBRANCH   1  25
TORSDOF 10
ENDMDL
MODEL 3
REMARK VINA RESULT: -9.870912216      3.203      4.669
REMARK  10 active torsions:
REMARK  status: ('A' for Active; 'I' for Inactive)
REMARK    1  A    between atoms: C2_9  and  S1_10 
REMARK    2  A    between atoms: S1_10  and  C3_11 
REMARK    3  A    between atoms: C3_11  and  C4_12 
REMARK       I    between atoms: C4_12  and  N5_14 
REMARK    4  A    between atoms: N5_14  and  C5_15 
REMARK    5  A    between atoms: C7_17  and  N6_18 
REMARK    6  A    between atoms: N6_18  and  C8_20 
REMARK    7  A    between atoms: C11_26  and  N8_27 
REMARK    8  A    between atoms: N8_27  and  C12_29 
REMARK    9  A    between atoms: C12_29  and  C13_30 
REMARK   10  A    between atoms: C16_43  and  O5_44 
ROOT
HETATM    1  N6  UNL     1      59.213   0.712  68.773  1.00  0.00    -0.338 N 
ATOM      2  H6  UNL     1      58.470   1.409  68.714  1.00  0.00     0.167 HD
ENDROOT
BRANCH   1   3
HETATM    3  C7  UNL     1      59.348  -0.106  67.646  1.00  0.00     0.089 A 
HETATM    4  C6  UNL     1      59.725   0.128  66.353  1.00  0.00     0.098 A 
HETATM    5  C5  UNL     1      59.810  -1.022  65.584  1.00  0.00     0.187 A 
HETATM    6  N13 UNL     1      59.448  -2.026  66.514  1.00  0.00    -0.310 N 
HETATM    7  C16 UNL     1      59.188  -1.504  67.675  1.00  0.00     0.170 A 
ATOM      8  H13 UNL     1      59.397  -3.022  66.301  1.00  0.00     0.170 HD
BRANCH   5   9
HETATM    9  N5  UNL     1      60.126  -1.351  64.319  1.00  0.00    -0.351 NA
HETATM   10  C4  UNL     1      60.441  -1.687  63.033  1.00  0.00     0.303 C 
HETATM   11  O1  UNL     1      59.920  -2.498  62.275  1.00  0.00    -0.256 OA
BRANCH  10  12
HETATM   12  C3  UNL     1      61.633  -0.936  62.453  1.00  0.00     0.201 C 
BRANCH  12  13
HETATM   13  S1  UNL     1      61.001   0.179  61.193  1.00  0.00    -0.081 SA
BRANCH  13  14
HETATM   14  C2  UNL     1      60.464   1.680  61.989  1.00  0.00     0.178 A 
HETATM   15  N1  UNL     1      60.165   2.823  61.386  1.00  0.00    -0.259 N 
HETATM   16  C1  UNL     1      60.239   3.057  59.942  1.00  0.00     0.181 C 
HETATM   17  N2  UNL     1      59.811   3.652  62.343  1.00  0.00    -0.224 N 
HETATM   18  N3  UNL     1      59.874   3.079  63.529  1.00  0.00    -0.226 N 
ATOM     19  H2  UNL     1      59.523   4.618  62.187  1.00  0.00     0.210 HD
HETATM   20  N4  UNL     1      60.287   1.827  63.314  1.00  0.00    -0.263 N 
ATOM     21  H3  UNL     1      59.654   3.506  64.429  1.00  0.00     0.210 HD
ATOM     22  H4  UNL     1      60.441   1.113  64.026  1.00  0.00     0.190 HD
ENDBRANCH  13  14
ENDBRANCH  12  13
ENDBRANCH  10  12
ENDBRANCH   5   9
BRANCH   7  23
HETATM   23  O5  UNL     1      58.793  -2.200  68.842  1.00  0.00    -0.344 OA
ATOM     24  H5  UNL     1      59.401  -2.409  69.541  1.00  0.00     0.219 HD
ENDBRANCH   7  23
ENDBRANCH   1   3
BRANCH   1  25
HETATM   25  C8  UNL     1      59.936   0.724  69.962  1.00  0.00     0.126 A 
HETATM   26  C9  UNL     1      61.150   1.310  70.219  1.00  0.00     0.123 A 
HETATM   27  C10 UNL     1      61.803   1.203  71.456  1.00  0.00     0.263 A 
HETATM   28  O2  UNL     1      62.901   1.738  71.674  1.00  0.00    -0.268 OA
HETATM   29  N7  UNL     1      61.204   0.496  72.418  1.00  0.00    -0.156 N 
HETATM   30  C11 UNL     1      60.018  -0.094  72.216  1.00  0.00     0.682 A 
ATOM     31  H7  UNL     1      61.658   0.405  73.327  1.00  0.00     0.187 HD
HETATM   32  N12 UNL     1      59.423   0.026  71.033  1.00  0.00    -0.176 N 
ATOM     33  H12 UNL     1      58.520  -0.432  70.910  1.00  0.00     0.186 HD
BRANCH  30  34
HETATM   34  N8  UNL     1      59.499  -0.772  73.190  1.00  0.00    -0.219 N 
ATOM     35  H8  UNL     1      59.329  -0.307  74.081  1.00  0.00     0.178 HD
BRANCH  34  36
HETATM   36  C12 UNL     1      59.154  -2.175  73.050  1.00  0.00     0.216 C 
BRANCH  36  37
HETATM   37  C13 UNL     1      57.738  -2.232  72.569  1.00  0.00     0.117 A 
HETATM   38  N9  UNL     1      57.393  -3.069  71.558  1.00  0.00    -0.306 N 
HETATM   39  C14 UNL     1      56.106  -3.071  71.182  1.00  0.00     0.316 A 
ATOM     40  H9  UNL     1      58.082  -3.669  71.104  1.00  0.00     0.170 HD
HETATM   41  O3  UNL     1      55.700  -3.824  70.245  1.00  0.00    -0.262 OA
HETATM   42  C15 UNL     1      55.148  -2.266  71.782  1.00  0.00     0.328 A 
HETATM   43  O4  UNL     1      53.941  -2.295  71.402  1.00  0.00    -0.261 OA
HETATM   44  N10 UNL     1      55.554  -1.471  72.766  1.00  0.00    -0.260 N 
HETATM   45  N11 UNL     1      56.812  -1.456  73.146  1.00  0.00    -0.284 N 
ATOM     46  H10 UNL     1      54.881  -0.864  73.233  1.00  0.00     0.190 HD
ATOM     47  H11 UNL     1      57.091  -0.834  73.904  1.00  0.00     0.188 HD
ENDBRANCH  36  37
ENDBRANCH  34  36
ENDBRANCH  30  34
ENDBRANCH   1  25
TORSDOF 10
ENDMDL
MODEL 4
REMARK VINA RESULT: -9.809461214      2.239      4.012
REMARK  10 active torsions:
REMARK  status: ('A' for Active; 'I' for Inactive)
REMARK    1  A    between atoms: C2_9  and  S1_10 
REMARK    2  A    between atoms: S1_10  and  C3_11 
REMARK    3  A    between atoms: C3_11  and  C4_12 
REMARK       I    between atoms: C4_12  and  N5_14 
REMARK    4  A    between atoms: N5_14  and  C5_15 
REMARK    5  A    between atoms: C7_17  and  N6_18 
REMARK    6  A    between atoms: N6_18  and  C8_20 
REMARK    7  A    between atoms: C11_26  and  N8_27 
REMARK    8  A    between atoms: N8_27  and  C12_29 
REMARK    9  A    between atoms: C12_29  and  C13_30 
REMARK   10  A    between atoms: C16_43  and  O5_44 
ROOT
HETATM    1  N6  UNL     1      63.567  -2.518  72.042  1.00  0.00    -0.338 N 
ATOM      2  H6  UNL     1      63.693  -2.994  72.935  1.00  0.00     0.167 HD
ENDROOT
BRANCH   1   3
HETATM    3  C7  UNL     1      64.214  -3.117  70.955  1.00  0.00     0.089 A 
HETATM    4  C6  UNL     1      63.951  -3.167  69.614  1.00  0.00     0.098 A 
HETATM    5  C5  UNL     1      64.937  -3.809  68.881  1.00  0.00     0.187 A 
HETATM    6  N13 UNL     1      65.865  -4.169  69.886  1.00  0.00    -0.310 N 
HETATM    7  C16 UNL     1      65.453  -3.777  71.054  1.00  0.00     0.170 A 
ATOM      8  H13 UNL     1      66.739  -4.668  69.717  1.00  0.00     0.170 HD
BRANCH   5   9
HETATM    9  N5  UNL     1      65.176  -4.116  67.594  1.00  0.00    -0.351 NA
HETATM   10  C4  UNL     1      65.418  -4.435  66.288  1.00  0.00     0.303 C 
HETATM   11  O1  UNL     1      65.731  -5.505  65.777  1.00  0.00    -0.256 OA
BRANCH  10  12
HETATM   12  C3  UNL     1      65.280  -3.272  65.313  1.00  0.00     0.201 C 
BRANCH  12  13
HETATM   13  S1  UNL     1      63.848  -3.607  64.279  1.00  0.00    -0.081 SA
BRANCH  13  14
HETATM   14  C2  UNL     1      62.380  -3.397  65.267  1.00  0.00     0.178 A 
HETATM   15  N1  UNL     1      61.179  -3.890  64.999  1.00  0.00    -0.259 N 
HETATM   16  C1  UNL     1      60.841  -4.693  63.822  1.00  0.00     0.181 C 
HETATM   17  N2  UNL     1      60.403  -3.503  65.987  1.00  0.00    -0.224 N 
HETATM   18  N3  UNL     1      61.066  -2.782  66.871  1.00  0.00    -0.226 N 
ATOM     19  H2  UNL     1      59.412  -3.730  66.062  1.00  0.00     0.210 HD
HETATM   20  N4  UNL     1      62.322  -2.710  66.422  1.00  0.00    -0.263 N 
ATOM     21  H3  UNL     1      60.695  -2.364  67.724  1.00  0.00     0.210 HD
ATOM     22  H4  UNL     1      63.097  -2.223  66.874  1.00  0.00     0.190 HD
ENDBRANCH  13  14
ENDBRANCH  12  13
ENDBRANCH  10  12
ENDBRANCH   5   9
BRANCH   7  23
HETATM   23  O5  UNL     1      66.119  -3.963  72.289  1.00  0.00    -0.344 OA
ATOM     24  H5  UNL     1      66.926  -4.458  72.363  1.00  0.00     0.219 HD
ENDBRANCH   7  23
ENDBRANCH   1   3
BRANCH   1  25
HETATM   25  C8  UNL     1      62.778  -1.372  72.092  1.00  0.00     0.126 A 
HETATM   26  C9  UNL     1      63.156  -0.064  71.916  1.00  0.00     0.123 A 
HETATM   27  C10 UNL     1      62.266   1.012  72.047  1.00  0.00     0.263 A 
HETATM   28  O2  UNL     1      62.623   2.189  71.885  1.00  0.00    -0.268 OA
HETATM   29  N7  UNL     1      60.996   0.737  72.356  1.00  0.00    -0.156 N 
HETATM   30  C11 UNL     1      60.579  -0.524  72.537  1.00  0.00     0.682 A 
ATOM     31  H7  UNL     1      60.329   1.502  72.455  1.00  0.00     0.187 HD
HETATM   32  N12 UNL     1      61.446  -1.523  72.406  1.00  0.00    -0.176 N 
ATOM     33  H12 UNL     1      61.098  -2.471  72.548  1.00  0.00     0.186 HD
BRANCH  30  34
HETATM   34  N8  UNL     1      59.336  -0.717  72.846  1.00  0.00    -0.219 N 
ATOM     35  H8  UNL     1      58.689   0.070  72.807  1.00  0.00     0.178 HD
BRANCH  34  36
HETATM   36  C12 UNL     1      58.837  -2.020  73.246  1.00  0.00     0.216 C 
BRANCH  36  37
HETATM   37  C13 UNL     1      57.466  -2.162  72.662  1.00  0.00     0.117 A 
HETATM   38  N9  UNL     1      57.239  -3.047  71.659  1.00  0.00    -0.306 N 
HETATM   39  C14 UNL     1      55.986  -3.125  71.188  1.00  0.00     0.316 A 
ATOM     40  H9  UNL     1      57.987  -3.627  71.280  1.00  0.00     0.170 HD
HETATM   41  O3  UNL     1      55.688  -3.928  70.250  1.00  0.00    -0.262 OA
HETATM   42  C15 UNL     1      54.949  -2.349  71.684  1.00  0.00     0.328 A 
HETATM   43  O4  UNL     1      53.777  -2.450  71.216  1.00  0.00    -0.261 OA
HETATM   44  N10 UNL     1      55.240  -1.503  72.666  1.00  0.00    -0.260 N 
HETATM   45  N11 UNL     1      56.463  -1.414  73.139  1.00  0.00    -0.284 N 
ATOM     46  H10 UNL     1      54.505  -0.916  73.059  1.00  0.00     0.190 HD
ATOM     47  H11 UNL     1      56.654  -0.755  73.893  1.00  0.00     0.188 HD
ENDBRANCH  36  37
ENDBRANCH  34  36
ENDBRANCH  30  34
ENDBRANCH   1  25
TORSDOF 10
ENDMDL
MODEL 5
REMARK VINA RESULT: -9.798915233      1.644      4.513
REMARK  10 active torsions:
REMARK  status: ('A' for Active; 'I' for Inactive)
REMARK    1  A    between atoms: C2_9  and  S1_10 
REMARK    2  A    between atoms: S1_10  and  C3_11 
REMARK    3  A    between atoms: C3_11  and  C4_12 
REMARK       I    between atoms: C4_12  and  N5_14 
REMARK    4  A    between atoms: N5_14  and  C5_15 
REMARK    5  A    between atoms: C7_17  and  N6_18 
REMARK    6  A    between atoms: N6_18  and  C8_20 
REMARK    7  A    between atoms: C11_26  and  N8_27 
REMARK    8  A    between atoms: N8_27  and  C12_29 
REMARK    9  A    between atoms: C12_29  and  C13_30 
REMARK   10  A    between atoms: C16_43  and  O5_44 
ROOT
HETATM    1  N6  UNL     1      57.391  -2.162  67.380  1.00  0.00    -0.338 N 
ATOM      2  H6  UNL     1      56.589  -2.020  66.766  1.00  0.00     0.167 HD
ENDROOT
BRANCH   1   3
HETATM    3  C7  UNL     1      58.631  -1.835  66.818  1.00  0.00     0.089 A 
HETATM    4  C6  UNL     1      59.344  -2.326  65.760  1.00  0.00     0.098 A 
HETATM    5  C5  UNL     1      60.507  -1.619  65.501  1.00  0.00     0.187 A 
HETATM    6  N13 UNL     1      60.474  -0.619  66.501  1.00  0.00    -0.310 N 
HETATM    7  C16 UNL     1      59.414  -0.745  67.241  1.00  0.00     0.170 A 
ATOM      8  H13 UNL     1      61.184   0.103  66.624  1.00  0.00     0.170 HD
BRANCH   5   9
HETATM    9  N5  UNL     1      61.522  -1.665  64.620  1.00  0.00    -0.351 NA
HETATM   10  C4  UNL     1      62.551  -1.708  63.722  1.00  0.00     0.303 C 
HETATM   11  O1  UNL     1      62.579  -1.406  62.534  1.00  0.00    -0.256 OA
BRANCH  10  12
HETATM   12  C3  UNL     1      63.871  -2.216  64.290  1.00  0.00     0.201 C 
BRANCH  12  13
HETATM   13  S1  UNL     1      63.573  -3.864  64.943  1.00  0.00    -0.081 SA
BRANCH  13  14
HETATM   14  C2  UNL     1      64.565  -4.076  66.408  1.00  0.00     0.178 A 
HETATM   15  N1  UNL     1      64.354  -3.503  67.586  1.00  0.00    -0.259 N 
HETATM   16  C1  UNL     1      63.263  -2.574  67.887  1.00  0.00     0.181 C 
HETATM   17  N2  UNL     1      65.311  -3.941  68.373  1.00  0.00    -0.224 N 
HETATM   18  N3  UNL     1      66.121  -4.768  67.741  1.00  0.00    -0.226 N 
ATOM     19  H2  UNL     1      65.415  -3.674  69.352  1.00  0.00     0.210 HD
HETATM   20  N4  UNL     1      65.654  -4.860  66.493  1.00  0.00    -0.263 N 
ATOM     21  H3  UNL     1      66.937  -5.241  68.127  1.00  0.00     0.210 HD
ATOM     22  H4  UNL     1      66.052  -5.423  65.741  1.00  0.00     0.190 HD
ENDBRANCH  13  14
ENDBRANCH  12  13
ENDBRANCH  10  12
ENDBRANCH   5   9
BRANCH   7  23
HETATM   23  O5  UNL     1      59.048   0.074  68.336  1.00  0.00    -0.344 OA
ATOM     24  H5  UNL     1      59.626   0.226  69.074  1.00  0.00     0.219 HD
ENDBRANCH   7  23
ENDBRANCH   1   3
BRANCH   1  25
HETATM   25  C8  UNL     1      57.083  -2.651  68.646  1.00  0.00     0.126 A 
HETATM   26  C9  UNL     1      55.868  -3.071  69.128  1.00  0.00     0.123 A 
HETATM   27  C10 UNL     1      55.677  -3.495  70.451  1.00  0.00     0.263 A 
HETATM   28  O2  UNL     1      54.573  -3.872  70.873  1.00  0.00    -0.268 OA
HETATM   29  N7  UNL     1      56.735  -3.486  71.268  1.00  0.00    -0.156 N 
HETATM   30  C11 UNL     1      57.941  -3.085  70.843  1.00  0.00     0.682 A 
ATOM     31  H7  UNL     1      56.622  -3.790  72.234  1.00  0.00     0.187 HD
HETATM   32  N12 UNL     1      58.091  -2.689  69.583  1.00  0.00    -0.176 N 
ATOM     33  H12 UNL     1      59.021  -2.392  69.289  1.00  0.00     0.186 HD
BRANCH  30  34
HETATM   34  N8  UNL     1      58.920  -3.091  71.692  1.00  0.00    -0.219 N 
ATOM     35  H8  UNL     1      59.675  -3.765  71.571  1.00  0.00     0.178 HD
BRANCH  34  36
HETATM   36  C12 UNL     1      58.973  -2.167  72.810  1.00  0.00     0.216 C 
BRANCH  36  37
HETATM   37  C13 UNL     1      59.762  -0.978  72.357  1.00  0.00     0.117 A 
HETATM   38  N9  UNL     1      61.055  -0.829  72.741  1.00  0.00    -0.306 N 
HETATM   39  C14 UNL     1      61.702   0.257  72.294  1.00  0.00     0.316 A 
ATOM     40  H9  UNL     1      61.514  -1.513  73.343  1.00  0.00     0.170 HD
HETATM   41  O3  UNL     1      62.913   0.471  72.606  1.00  0.00    -0.262 OA
HETATM   42  C15 UNL     1      61.102   1.203  71.475  1.00  0.00     0.328 A 
HETATM   43  O4  UNL     1      61.744   2.216  71.070  1.00  0.00    -0.261 OA
HETATM   44  N10 UNL     1      59.834   0.995  71.136  1.00  0.00    -0.260 N 
HETATM   45  N11 UNL     1      59.186  -0.064  71.566  1.00  0.00    -0.284 N 
ATOM     46  H10 UNL     1      59.358   1.666  70.534  1.00  0.00     0.190 HD
ATOM     47  H11 UNL     1      58.214  -0.193  71.289  1.00  0.00     0.188 HD
ENDBRANCH  36  37
ENDBRANCH  34  36
ENDBRANCH  30  34
ENDBRANCH   1  25
TORSDOF 10
ENDMDL
