MODEL 1
REMARK VINA RESULT: -8.316941029      0.000      0.000
REMARK  11 active torsions:
REMARK  status: ('A' for Active; 'I' for Inactive)
REMARK    1  A    between atoms: O1_2  and  C2_3 
REMARK    2  A    between atoms: C3_4  and  N1_5 
REMARK       I    between atoms: N1_5  and  C4_7 
REMARK    3  A    between atoms: C4_7  and  C5_9 
REMARK    4  A    between atoms: C5_9  and  N2_10 
REMARK    5  A    between atoms: C8_17  and  C9_18 
REMARK       I    between atoms: C9_18  and  N4_20 
REMARK    6  A    between atoms: N4_20  and  N5_22 
REMARK       I    between atoms: N5_22  and  C10_24 
REMARK    7  A    between atoms: C10_24  and  C11_26 
REMARK    8  A    between atoms: C11_26  and  S1_27 
REMARK    9  A    between atoms: S1_27  and  C12_28 
REMARK   10  A    between atoms: C15_40  and  O6_41 
REMARK   11  A    between atoms: C16_43  and  O7_44 
ROOT
HETATM    1  C5  UNL     1      59.215  -6.267  62.501  1.00  0.00     0.380 C 
HETATM    2  C6  UNL     1      60.664  -6.351  62.291  1.00  0.00     0.102 C 
HETATM    3  N3  UNL     1      61.830  -6.420  62.144  1.00  0.00    -0.195 NA
ENDROOT
BRANCH   1   4
HETATM    4  C4  UNL     1      58.842  -4.897  63.024  1.00  0.00     0.267 C 
HETATM    5  N1  UNL     1      59.809  -4.128  63.642  1.00  0.00    -0.322 N 
ATOM      6  H1  UNL     1      60.726  -4.573  63.686  1.00  0.00     0.169 HD
HETATM    7  O2  UNL     1      57.663  -4.565  62.849  1.00  0.00    -0.270 OA
BRANCH   5   8
HETATM    8  C3  UNL     1      59.767  -2.853  64.217  1.00  0.00     0.072 C 
HETATM    9  C2  UNL     1      60.344  -1.829  63.465  1.00  0.00     0.131 C 
HETATM   10  C16 UNL     1      60.462  -0.469  63.700  1.00  0.00     0.141 C 
HETATM   11  C15 UNL     1      59.868   0.282  64.677  1.00  0.00     0.153 C 
HETATM   12  C14 UNL     1      59.412  -0.198  65.908  1.00  0.00     0.223 C 
HETATM   13  C8  UNL     1      59.256  -1.509  66.281  1.00  0.00     0.088 C 
HETATM   14  O5  UNL     1      59.115   0.674  66.761  1.00  0.00    -0.284 OA
HETATM   15  C7  UNL     1      59.205  -2.652  65.473  1.00  0.00     0.054 C 
BRANCH   9  16
HETATM   16  O1  UNL     1      60.897  -2.237  62.268  1.00  0.00    -0.351 OA
HETATM   17  C1  UNL     1      62.237  -2.757  62.318  1.00  0.00     0.210 C 
ENDBRANCH   9  16
BRANCH  10  18
HETATM   18  O7  UNL     1      61.289   0.228  62.836  1.00  0.00    -0.350 OA
HETATM   19  C17 UNL     1      60.703   0.735  61.650  1.00  0.00     0.210 C 
ENDBRANCH  10  18
BRANCH  11  20
HETATM   20  O6  UNL     1      59.684   1.637  64.465  1.00  0.00    -0.355 OA
ATOM     21  H6  UNL     1      60.315   2.046  63.885  1.00  0.00     0.218 HD
ENDBRANCH  11  20
BRANCH  13  22
HETATM   22  C9  UNL     1      59.123  -1.803  67.702  1.00  0.00     0.274 C 
HETATM   23  O3  UNL     1      58.097  -2.329  68.186  1.00  0.00    -0.266 OA
HETATM   24  N4  UNL     1      60.233  -1.462  68.515  1.00  0.00    -0.263 N 
ATOM     25  H4  UNL     1      61.062  -1.037  68.100  1.00  0.00     0.190 HD
BRANCH  24  26
HETATM   26  N5  UNL     1      60.182  -1.712  69.880  1.00  0.00    -0.267 N 
HETATM   27  C10 UNL     1      59.748  -0.643  70.734  1.00  0.00     0.245 C 
HETATM   28  O4  UNL     1      59.437   0.448  70.240  1.00  0.00    -0.271 OA
ATOM     29  H5  UNL     1      60.445  -2.621  70.262  1.00  0.00     0.190 HD
BRANCH  27  30
HETATM   30  C11 UNL     1      59.659  -0.820  72.204  1.00  0.00     0.186 C 
BRANCH  30  31
HETATM   31  S1  UNL     1      59.091  -2.477  72.569  1.00  0.00    -0.094 SA
BRANCH  31  32
HETATM   32  C12 UNL     1      57.456  -2.687  71.817  1.00  0.00     0.130 A 
HETATM   33  N6  UNL     1      57.168  -3.341  70.696  1.00  0.00    -0.286 N 
HETATM   34  N7  UNL     1      55.969  -3.409  70.293  1.00  0.00    -0.279 N 
ATOM     35  H6  UNL     1      57.912  -3.788  70.161  1.00  0.00     0.188 HD
HETATM   36  C13 UNL     1      55.014  -2.813  71.018  1.00  0.00     0.159 A 
ATOM     37  H7  UNL     1      55.735  -3.908  69.434  1.00  0.00     0.189 HD
HETATM   38  N8  UNL     1      53.729  -2.789  70.739  1.00  0.00    -0.379 N 
HETATM   39  S2  UNL     1      55.917  -2.149  72.304  1.00  0.00    -0.027 SA
ATOM     40  H82 UNL     1      53.189  -3.186  69.970  1.00  0.00     0.158 HD
ATOM     41  H81 UNL     1      53.002  -2.335  71.292  1.00  0.00     0.158 HD
ENDBRANCH  31  32
ENDBRANCH  30  31
ENDBRANCH  27  30
ENDBRANCH  24  26
ENDBRANCH  13  22
ENDBRANCH   5   8
ENDBRANCH   1   4
BRANCH   1  42
HETATM   42  N2  UNL     1      58.755  -7.304  63.382  1.00  0.00    -0.054 N 
ATOM     43  H23 UNL     1      59.326  -8.145  63.301  1.00  0.00     0.276 HD
ATOM     44  H22 UNL     1      58.947  -7.078  64.358  1.00  0.00     0.276 HD
ATOM     45  H21 UNL     1      57.767  -7.506  63.232  1.00  0.00     0.276 HD
ENDBRANCH   1  42
TORSDOF 11
ENDMDL
MODEL 2
REMARK VINA RESULT: -8.171602245      5.325      6.632
REMARK  11 active torsions:
REMARK  status: ('A' for Active; 'I' for Inactive)
REMARK    1  A    between atoms: O1_2  and  C2_3 
REMARK    2  A    between atoms: C3_4  and  N1_5 
REMARK       I    between atoms: N1_5  and  C4_7 
REMARK    3  A    between atoms: C4_7  and  C5_9 
REMARK    4  A    between atoms: C5_9  and  N2_10 
REMARK    5  A    between atoms: C8_17  and  C9_18 
REMARK       I    between atoms: C9_18  and  N4_20 
REMARK    6  A    between atoms: N4_20  and  N5_22 
REMARK       I    between atoms: N5_22  and  C10_24 
REMARK    7  A    between atoms: C10_24  and  C11_26 
REMARK    8  A    between atoms: C11_26  and  S1_27 
REMARK    9  A    between atoms: S1_27  and  C12_28 
REMARK   10  A    between atoms: C15_40  and  O6_41 
REMARK   11  A    between atoms: C16_43  and  O7_44 
ROOT
HETATM    1  C5  UNL     1      63.668  -3.652  64.421  1.00  0.00     0.380 C 
HETATM    2  C6  UNL     1      64.539  -4.254  63.406  1.00  0.00     0.102 C 
HETATM    3  N3  UNL     1      65.236  -4.757  62.602  1.00  0.00    -0.195 NA
ENDROOT
BRANCH   1   4
HETATM    4  C4  UNL     1      64.457  -3.362  65.679  1.00  0.00     0.267 C 
HETATM    5  N1  UNL     1      64.137  -4.035  66.842  1.00  0.00    -0.322 N 
ATOM      6  H1  UNL     1      63.368  -4.697  66.739  1.00  0.00     0.169 HD
HETATM    7  O2  UNL     1      65.354  -2.518  65.560  1.00  0.00    -0.270 OA
BRANCH   5   8
HETATM    8  C3  UNL     1      64.671  -3.980  68.134  1.00  0.00     0.072 C 
HETATM    9  C2  UNL     1      65.383  -5.107  68.545  1.00  0.00     0.131 C 
HETATM   10  C16 UNL     1      66.056  -5.392  69.721  1.00  0.00     0.141 C 
HETATM   11  C15 UNL     1      66.363  -4.549  70.754  1.00  0.00     0.153 C 
HETATM   12  C14 UNL     1      65.678  -3.374  71.076  1.00  0.00     0.223 C 
HETATM   13  C8  UNL     1      64.741  -2.725  70.313  1.00  0.00     0.088 C 
HETATM   14  O5  UNL     1      65.957  -2.864  72.189  1.00  0.00    -0.284 OA
HETATM   15  C7  UNL     1      64.465  -2.871  68.948  1.00  0.00     0.054 C 
BRANCH   9  16
HETATM   16  O1  UNL     1      65.432  -6.126  67.615  1.00  0.00    -0.351 OA
HETATM   17  C1  UNL     1      66.690  -6.335  66.949  1.00  0.00     0.210 C 
ENDBRANCH   9  16
BRANCH  10  18
HETATM   18  O7  UNL     1      66.477  -6.701  69.879  1.00  0.00    -0.350 OA
HETATM   19  C17 UNL     1      65.590  -7.591  70.534  1.00  0.00     0.210 C 
ENDBRANCH  10  18
BRANCH  11  20
HETATM   20  O6  UNL     1      67.439  -4.850  71.571  1.00  0.00    -0.355 OA
ATOM     21  H6  UNL     1      67.973  -4.107  71.829  1.00  0.00     0.218 HD
ENDBRANCH  11  20
BRANCH  13  22
HETATM   22  C9  UNL     1      63.889  -1.741  70.970  1.00  0.00     0.274 C 
HETATM   23  O3  UNL     1      64.074  -0.510  70.854  1.00  0.00    -0.266 OA
HETATM   24  N4  UNL     1      62.827  -2.259  71.751  1.00  0.00    -0.263 N 
ATOM     25  H4  UNL     1      62.692  -3.267  71.831  1.00  0.00     0.190 HD
BRANCH  24  26
HETATM   26  N5  UNL     1      61.972  -1.384  72.409  1.00  0.00    -0.267 N 
HETATM   27  C10 UNL     1      60.573  -1.467  72.098  1.00  0.00     0.245 C 
HETATM   28  O4  UNL     1      60.176  -2.296  71.271  1.00  0.00    -0.271 OA
ATOM     29  H5  UNL     1      62.325  -0.708  73.086  1.00  0.00     0.190 HD
BRANCH  27  30
HETATM   30  C11 UNL     1      59.586  -0.574  72.755  1.00  0.00     0.186 C 
BRANCH  30  31
HETATM   31  S1  UNL     1      58.514  -1.546  73.808  1.00  0.00    -0.094 SA
BRANCH  31  32
HETATM   32  C12 UNL     1      56.959  -1.825  72.920  1.00  0.00     0.130 A 
HETATM   33  N6  UNL     1      55.823  -1.149  73.064  1.00  0.00    -0.286 N 
HETATM   34  N7  UNL     1      54.812  -1.457  72.365  1.00  0.00    -0.279 N 
ATOM     35  H6  UNL     1      55.766  -0.384  73.735  1.00  0.00     0.188 HD
HETATM   36  C13 UNL     1      54.919  -2.466  71.492  1.00  0.00     0.159 A 
ATOM     37  H7  UNL     1      53.934  -0.946  72.466  1.00  0.00     0.189 HD
HETATM   38  N8  UNL     1      53.968  -2.909  70.697  1.00  0.00    -0.379 N 
HETATM   39  S2  UNL     1      56.537  -2.955  71.720  1.00  0.00    -0.027 SA
ATOM     40  H82 UNL     1      53.000  -2.616  70.561  1.00  0.00     0.158 HD
ATOM     41  H81 UNL     1      54.051  -3.678  70.032  1.00  0.00     0.158 HD
ENDBRANCH  31  32
ENDBRANCH  30  31
ENDBRANCH  27  30
ENDBRANCH  24  26
ENDBRANCH  13  22
ENDBRANCH   5   8
ENDBRANCH   1   4
BRANCH   1  42
HETATM   42  N2  UNL     1      62.534  -4.489  64.699  1.00  0.00    -0.054 N 
ATOM     43  H23 UNL     1      61.792  -3.972  65.170  1.00  0.00     0.276 HD
ATOM     44  H22 UNL     1      62.034  -4.737  63.846  1.00  0.00     0.276 HD
ATOM     45  H21 UNL     1      62.807  -5.318  65.227  1.00  0.00     0.276 HD
ENDBRANCH   1  42
TORSDOF 11
ENDMDL
MODEL 3
REMARK VINA RESULT: -7.837239002      1.944      2.513
REMARK  11 active torsions:
REMARK  status: ('A' for Active; 'I' for Inactive)
REMARK    1  A    between atoms: O1_2  and  C2_3 
REMARK    2  A    between atoms: C3_4  and  N1_5 
REMARK       I    between atoms: N1_5  and  C4_7 
REMARK    3  A    between atoms: C4_7  and  C5_9 
REMARK    4  A    between atoms: C5_9  and  N2_10 
REMARK    5  A    between atoms: C8_17  and  C9_18 
REMARK       I    between atoms: C9_18  and  N4_20 
REMARK    6  A    between atoms: N4_20  and  N5_22 
REMARK       I    between atoms: N5_22  and  C10_24 
REMARK    7  A    between atoms: C10_24  and  C11_26 
REMARK    8  A    between atoms: C11_26  and  S1_27 
REMARK    9  A    between atoms: S1_27  and  C12_28 
REMARK   10  A    between atoms: C15_40  and  O6_41 
REMARK   11  A    between atoms: C16_43  and  O7_44 
ROOT
HETATM    1  C5  UNL     1      61.232  -4.240  62.718  1.00  0.00     0.380 C 
HETATM    2  C6  UNL     1      62.329  -4.393  63.679  1.00  0.00     0.102 C 
HETATM    3  N3  UNL     1      63.195  -4.523  64.467  1.00  0.00    -0.195 NA
ENDROOT
BRANCH   1   4
HETATM    4  C4  UNL     1      60.451  -2.980  63.014  1.00  0.00     0.267 C 
HETATM    5  N1  UNL     1      61.123  -1.867  63.481  1.00  0.00    -0.322 N 
ATOM      6  H1  UNL     1      62.129  -2.003  63.584  1.00  0.00     0.169 HD
HETATM    7  O2  UNL     1      59.233  -3.049  62.807  1.00  0.00    -0.270 OA
BRANCH   5   8
HETATM    8  C3  UNL     1      60.683  -0.588  63.839  1.00  0.00     0.072 C 
HETATM    9  C2  UNL     1      61.118   0.455  63.019  1.00  0.00     0.131 C 
HETATM   10  C16 UNL     1      60.869   1.817  63.052  1.00  0.00     0.141 C 
HETATM   11  C15 UNL     1      59.959   2.499  63.812  1.00  0.00     0.153 C 
HETATM   12  C14 UNL     1      59.430   2.066  65.031  1.00  0.00     0.223 C 
HETATM   13  C8  UNL     1      59.529   0.813  65.580  1.00  0.00     0.088 C 
HETATM   14  O5  UNL     1      58.796   2.927  65.690  1.00  0.00    -0.284 OA
HETATM   15  C7  UNL     1      59.887  -0.391  64.962  1.00  0.00     0.054 C 
BRANCH   9  16
HETATM   16  O1  UNL     1      61.946   0.066  61.985  1.00  0.00    -0.351 OA
HETATM   17  C1  UNL     1      61.308  -0.297  60.748  1.00  0.00     0.210 C 
ENDBRANCH   9  16
BRANCH  10  18
HETATM   18  O7  UNL     1      61.640   2.597  62.208  1.00  0.00    -0.350 OA
HETATM   19  C17 UNL     1      60.992   3.167  61.084  1.00  0.00     0.210 C 
ENDBRANCH  10  18
BRANCH  11  20
HETATM   20  O6  UNL     1      59.497   3.725  63.368  1.00  0.00    -0.355 OA
ATOM     21  H6  UNL     1      60.163   4.392  63.250  1.00  0.00     0.218 HD
ENDBRANCH  11  20
BRANCH  13  22
HETATM   22  C9  UNL     1      59.233   0.665  67.000  1.00  0.00     0.274 C 
HETATM   23  O3  UNL     1      58.316  -0.073  67.421  1.00  0.00    -0.266 OA
HETATM   24  N4  UNL     1      60.052   1.407  67.887  1.00  0.00    -0.263 N 
ATOM     25  H4  UNL     1      60.797   2.001  67.523  1.00  0.00     0.190 HD
BRANCH  24  26
HETATM   26  N5  UNL     1      59.832   1.318  69.256  1.00  0.00    -0.267 N 
HETATM   27  C10 UNL     1      60.745   0.519  70.024  1.00  0.00     0.245 C 
HETATM   28  O4  UNL     1      61.682  -0.056  69.457  1.00  0.00    -0.271 OA
ATOM     29  H5  UNL     1      59.051   1.802  69.699  1.00  0.00     0.190 HD
BRANCH  27  30
HETATM   30  C11 UNL     1      60.589   0.371  71.492  1.00  0.00     0.186 C 
BRANCH  30  31
HETATM   31  S1  UNL     1      60.415  -1.364  71.898  1.00  0.00    -0.094 SA
BRANCH  31  32
HETATM   32  C12 UNL     1      59.095  -2.051  70.864  1.00  0.00     0.130 A 
HETATM   33  N6  UNL     1      59.103  -2.189  69.542  1.00  0.00    -0.286 N 
HETATM   34  N7  UNL     1      58.103  -2.695  68.952  1.00  0.00    -0.279 N 
ATOM     35  H6  UNL     1      59.915  -1.887  69.002  1.00  0.00     0.188 HD
HETATM   36  C13 UNL     1      57.054  -3.082  69.688  1.00  0.00     0.159 A 
ATOM     37  H7  UNL     1      58.097  -2.806  67.937  1.00  0.00     0.189 HD
HETATM   38  N8  UNL     1      55.943  -3.622  69.233  1.00  0.00    -0.379 N 
HETATM   39  S2  UNL     1      57.568  -2.685  71.265  1.00  0.00    -0.027 SA
ATOM     40  H82 UNL     1      55.636  -3.860  68.290  1.00  0.00     0.158 HD
ATOM     41  H81 UNL     1      55.144  -3.917  69.794  1.00  0.00     0.158 HD
ENDBRANCH  31  32
ENDBRANCH  30  31
ENDBRANCH  27  30
ENDBRANCH  24  26
ENDBRANCH  13  22
ENDBRANCH   5   8
ENDBRANCH   1   4
BRANCH   1  42
HETATM   42  N2  UNL     1      60.377  -5.395  62.716  1.00  0.00    -0.054 N 
ATOM     43  H23 UNL     1      60.894  -6.245  62.938  1.00  0.00     0.276 HD
ATOM     44  H22 UNL     1      59.738  -5.389  63.510  1.00  0.00     0.276 HD
ATOM     45  H21 UNL     1      59.875  -5.482  61.832  1.00  0.00     0.276 HD
ENDBRANCH   1  42
TORSDOF 11
ENDMDL
MODEL 4
REMARK VINA RESULT: -7.809098903      5.799      9.699
REMARK  11 active torsions:
REMARK  status: ('A' for Active; 'I' for Inactive)
REMARK    1  A    between atoms: O1_2  and  C2_3 
REMARK    2  A    between atoms: C3_4  and  N1_5 
REMARK       I    between atoms: N1_5  and  C4_7 
REMARK    3  A    between atoms: C4_7  and  C5_9 
REMARK    4  A    between atoms: C5_9  and  N2_10 
REMARK    5  A    between atoms: C8_17  and  C9_18 
REMARK       I    between atoms: C9_18  and  N4_20 
REMARK    6  A    between atoms: N4_20  and  N5_22 
REMARK       I    between atoms: N5_22  and  C10_24 
REMARK    7  A    between atoms: C10_24  and  C11_26 
REMARK    8  A    between atoms: C11_26  and  S1_27 
REMARK    9  A    between atoms: S1_27  and  C12_28 
REMARK   10  A    between atoms: C15_40  and  O6_41 
REMARK   11  A    between atoms: C16_43  and  O7_44 
ROOT
HETATM    1  C5  UNL     1      61.309  -0.286  72.563  1.00  0.00     0.380 C 
HETATM    2  C6  UNL     1      62.137   0.874  72.218  1.00  0.00     0.102 C 
HETATM    3  N3  UNL     1      62.792   1.807  71.922  1.00  0.00    -0.195 NA
ENDROOT
BRANCH   1   4
HETATM    4  C4  UNL     1      61.822  -1.522  71.856  1.00  0.00     0.267 C 
HETATM    5  N1  UNL     1      63.132  -1.550  71.418  1.00  0.00    -0.322 N 
ATOM      6  H1  UNL     1      63.656  -0.699  71.623  1.00  0.00     0.169 HD
HETATM    7  O2  UNL     1      61.000  -2.437  71.724  1.00  0.00    -0.270 OA
BRANCH   5   8
HETATM    8  C3  UNL     1      63.874  -2.526  70.744  1.00  0.00     0.072 C 
HETATM    9  C2  UNL     1      64.857  -3.168  71.499  1.00  0.00     0.131 C 
HETATM   10  C16 UNL     1      65.747  -4.180  71.181  1.00  0.00     0.141 C 
HETATM   11  C15 UNL     1      65.779  -4.967  70.062  1.00  0.00     0.153 C 
HETATM   12  C14 UNL     1      65.249  -4.628  68.814  1.00  0.00     0.223 C 
HETATM   13  C8  UNL     1      64.413  -3.580  68.525  1.00  0.00     0.088 C 
HETATM   14  O5  UNL     1      65.581  -5.370  67.858  1.00  0.00    -0.284 OA
HETATM   15  C7  UNL     1      63.647  -2.800  69.401  1.00  0.00     0.054 C 
BRANCH   9  16
HETATM   16  O1  UNL     1      64.966  -2.720  72.801  1.00  0.00    -0.351 OA
HETATM   17  C1  UNL     1      64.276  -3.481  73.807  1.00  0.00     0.210 C 
ENDBRANCH   9  16
BRANCH  10  18
HETATM   18  O7  UNL     1      66.738  -4.434  72.114  1.00  0.00    -0.350 OA
HETATM   19  C17 UNL     1      67.971  -3.757  71.947  1.00  0.00     0.210 C 
ENDBRANCH  10  18
BRANCH  11  20
HETATM   20  O6  UNL     1      66.378  -6.212  70.133  1.00  0.00    -0.355 OA
ATOM     21  H6  UNL     1      67.252  -6.222  70.504  1.00  0.00     0.218 HD
ENDBRANCH  11  20
BRANCH  13  22
HETATM   22  C9  UNL     1      64.270  -3.185  67.129  1.00  0.00     0.274 C 
HETATM   23  O3  UNL     1      63.155  -3.037  66.584  1.00  0.00    -0.266 OA
HETATM   24  N4  UNL     1      65.477  -2.972  66.416  1.00  0.00    -0.263 N 
ATOM     25  H4  UNL     1      66.376  -3.095  66.881  1.00  0.00     0.190 HD
BRANCH  24  26
HETATM   26  N5  UNL     1      65.424  -2.594  65.081  1.00  0.00    -0.267 N 
HETATM   27  C10 UNL     1      65.342  -3.638  64.099  1.00  0.00     0.245 C 
HETATM   28  O4  UNL     1      65.323  -4.820  64.462  1.00  0.00    -0.271 OA
ATOM     29  H5  UNL     1      65.442  -1.611  64.808  1.00  0.00     0.190 HD
BRANCH  27  30
HETATM   30  C11 UNL     1      65.278  -3.327  62.650  1.00  0.00     0.186 C 
BRANCH  30  31
HETATM   31  S1  UNL     1      63.846  -4.126  61.934  1.00  0.00    -0.094 SA
BRANCH  31  32
HETATM   32  C12 UNL     1      62.450  -3.891  63.064  1.00  0.00     0.130 A 
HETATM   33  N6  UNL     1      62.146  -4.631  64.126  1.00  0.00    -0.286 N 
HETATM   34  N7  UNL     1      61.134  -4.341  64.831  1.00  0.00    -0.279 N 
ATOM     35  H6  UNL     1      62.727  -5.432  64.373  1.00  0.00     0.188 HD
HETATM   36  C13 UNL     1      60.391  -3.283  64.481  1.00  0.00     0.159 A 
ATOM     37  H7  UNL     1      60.890  -4.901  65.648  1.00  0.00     0.189 HD
HETATM   38  N8  UNL     1      59.315  -2.851  65.102  1.00  0.00    -0.379 N 
HETATM   39  S2  UNL     1      61.211  -2.725  63.093  1.00  0.00    -0.027 SA
ATOM     40  H82 UNL     1      58.825  -3.185  65.932  1.00  0.00     0.158 HD
ATOM     41  H81 UNL     1      58.749  -2.045  64.835  1.00  0.00     0.158 HD
ENDBRANCH  31  32
ENDBRANCH  30  31
ENDBRANCH  27  30
ENDBRANCH  24  26
ENDBRANCH  13  22
ENDBRANCH   5   8
ENDBRANCH   1   4
BRANCH   1  42
HETATM   42  N2  UNL     1      59.926  -0.048  72.257  1.00  0.00    -0.054 N 
ATOM     43  H23 UNL     1      59.690  -0.361  71.315  1.00  0.00     0.276 HD
ATOM     44  H22 UNL     1      59.313  -0.668  72.786  1.00  0.00     0.276 HD
ATOM     45  H21 UNL     1      59.679   0.932  72.399  1.00  0.00     0.276 HD
ENDBRANCH   1  42
TORSDOF 11
ENDMDL
MODEL 5
REMARK VINA RESULT: -7.673930631      5.582      9.545
REMARK  11 active torsions:
REMARK  status: ('A' for Active; 'I' for Inactive)
REMARK    1  A    between atoms: O1_2  and  C2_3 
REMARK    2  A    between atoms: C3_4  and  N1_5 
REMARK       I    between atoms: N1_5  and  C4_7 
REMARK    3  A    between atoms: C4_7  and  C5_9 
REMARK    4  A    between atoms: C5_9  and  N2_10 
REMARK    5  A    between atoms: C8_17  and  C9_18 
REMARK       I    between atoms: C9_18  and  N4_20 
REMARK    6  A    between atoms: N4_20  and  N5_22 
REMARK       I    between atoms: N5_22  and  C10_24 
REMARK    7  A    between atoms: C10_24  and  C11_26 
REMARK    8  A    between atoms: C11_26  and  S1_27 
REMARK    9  A    between atoms: S1_27  and  C12_28 
REMARK   10  A    between atoms: C15_40  and  O6_41 
REMARK   11  A    between atoms: C16_43  and  O7_44 
ROOT
HETATM    1  C5  UNL     1      61.127  -0.303  72.350  1.00  0.00     0.380 C 
HETATM    2  C6  UNL     1      61.964   0.864  72.052  1.00  0.00     0.102 C 
HETATM    3  N3  UNL     1      62.627   1.801  71.791  1.00  0.00    -0.195 NA
ENDROOT
BRANCH   1   4
HETATM    4  C4  UNL     1      61.720  -1.545  71.721  1.00  0.00     0.267 C 
HETATM    5  N1  UNL     1      63.037  -1.524  71.306  1.00  0.00    -0.322 N 
ATOM      6  H1  UNL     1      63.511  -0.635  71.473  1.00  0.00     0.169 HD
HETATM    7  O2  UNL     1      60.952  -2.511  71.627  1.00  0.00    -0.270 OA
BRANCH   5   8
HETATM    8  C3  UNL     1      63.845  -2.493  70.701  1.00  0.00     0.072 C 
HETATM    9  C2  UNL     1      64.775  -3.115  71.535  1.00  0.00     0.131 C 
HETATM   10  C16 UNL     1      65.703  -4.114  71.294  1.00  0.00     0.141 C 
HETATM   11  C15 UNL     1      65.834  -4.908  70.188  1.00  0.00     0.153 C 
HETATM   12  C14 UNL     1      65.398  -4.585  68.899  1.00  0.00     0.223 C 
HETATM   13  C8  UNL     1      64.571  -3.553  68.538  1.00  0.00     0.088 C 
HETATM   14  O5  UNL     1      65.815  -5.328  67.977  1.00  0.00    -0.284 OA
HETATM   15  C7  UNL     1      63.727  -2.779  69.345  1.00  0.00     0.054 C 
BRANCH   9  16
HETATM   16  O1  UNL     1      64.776  -2.657  72.837  1.00  0.00    -0.351 OA
HETATM   17  C1  UNL     1      64.091  -3.467  73.808  1.00  0.00     0.210 C 
ENDBRANCH   9  16
BRANCH  10  18
HETATM   18  O7  UNL     1      66.622  -4.347  72.303  1.00  0.00    -0.350 OA
HETATM   19  C17 UNL     1      67.888  -3.724  72.181  1.00  0.00     0.210 C 
ENDBRANCH  10  18
BRANCH  11  20
HETATM   20  O6  UNL     1      66.444  -6.144  70.314  1.00  0.00    -0.355 OA
ATOM     21  H6  UNL     1      66.482  -6.489  71.198  1.00  0.00     0.218 HD
ENDBRANCH  11  20
BRANCH  13  22
HETATM   22  C9  UNL     1      64.532  -3.169  67.132  1.00  0.00     0.274 C 
HETATM   23  O3  UNL     1      65.325  -2.335  66.642  1.00  0.00    -0.266 OA
HETATM   24  N4  UNL     1      63.540  -3.800  66.341  1.00  0.00    -0.263 N 
ATOM     25  H4  UNL     1      62.905  -4.479  66.760  1.00  0.00     0.190 HD
BRANCH  24  26
HETATM   26  N5  UNL     1      63.440  -3.486  64.992  1.00  0.00    -0.267 N 
HETATM   27  C10 UNL     1      62.666  -4.365  64.163  1.00  0.00     0.245 C 
HETATM   28  O4  UNL     1      62.121  -5.357  64.662  1.00  0.00    -0.271 OA
ATOM     29  H5  UNL     1      63.900  -2.661  64.605  1.00  0.00     0.190 HD
BRANCH  27  30
HETATM   30  C11 UNL     1      62.501  -4.106  62.711  1.00  0.00     0.186 C 
BRANCH  30  31
HETATM   31  S1  UNL     1      60.804  -3.646  62.379  1.00  0.00    -0.094 SA
BRANCH  31  32
HETATM   32  C12 UNL     1      60.501  -2.031  63.143  1.00  0.00     0.130 A 
HETATM   33  N6  UNL     1      60.558  -0.842  62.550  1.00  0.00    -0.286 N 
HETATM   34  N7  UNL     1      60.315   0.209  63.215  1.00  0.00    -0.279 N 
ATOM     35  H6  UNL     1      60.797  -0.775  61.561  1.00  0.00     0.188 HD
HETATM   36  C13 UNL     1      60.004   0.089  64.512  1.00  0.00     0.159 A 
ATOM     37  H7  UNL     1      60.355   1.128  62.772  1.00  0.00     0.189 HD
HETATM   38  N8  UNL     1      59.726   1.075  65.338  1.00  0.00    -0.379 N 
HETATM   39  S2  UNL     1      60.077  -1.601  64.733  1.00  0.00    -0.027 SA
ATOM     40  H82 UNL     1      59.682   2.085  65.205  1.00  0.00     0.158 HD
ATOM     41  H81 UNL     1      59.489   0.983  66.326  1.00  0.00     0.158 HD
ENDBRANCH  31  32
ENDBRANCH  30  31
ENDBRANCH  27  30
ENDBRANCH  24  26
ENDBRANCH  13  22
ENDBRANCH   5   8
ENDBRANCH   1   4
BRANCH   1  42
HETATM   42  N2  UNL     1      59.773  -0.097  71.918  1.00  0.00    -0.054 N 
ATOM     43  H23 UNL     1      59.204  -0.932  72.055  1.00  0.00     0.276 HD
ATOM     44  H22 UNL     1      59.273   0.537  72.542  1.00  0.00     0.276 HD
ATOM     45  H21 UNL     1      59.737   0.225  70.951  1.00  0.00     0.276 HD
ENDBRANCH   1  42
TORSDOF 11
ENDMDL
