MODEL 1
REMARK VINA RESULT: -8.429835886      0.000      0.000
REMARK  11 active torsions:
REMARK  status: ('A' for Active; 'I' for Inactive)
REMARK    1  A    between atoms: C2_2  and  O1_4 
REMARK    2  A    between atoms: O1_4  and  N2_5 
REMARK    3  A    between atoms: N2_5  and  C3_6 
REMARK    4  A    between atoms: C3_6  and  C4_7 
REMARK    5  A    between atoms: C3_6  and  C14_33 
REMARK       I    between atoms: C4_7  and  N3_9 
REMARK    6  A    between atoms: N4_16  and  O3_18 
REMARK    7  A    between atoms: C9_21  and  C10_22 
REMARK    8  A    between atoms: C10_22  and  O4_23 
REMARK    9  A    between atoms: C10_22  and  O5_25 
REMARK   10  A    between atoms: C11_27  and  C12_28 
REMARK   11  A    between atoms: C16_36  and  N8_37 
ROOT
HETATM    1  C4  UNL     1      59.722  -1.231  70.881  1.00  0.00     0.250 C 
HETATM    2  O2  UNL     1      59.887  -0.039  71.307  1.00  0.00    -0.271 OA
HETATM    3  N3  UNL     1      59.976  -1.505  69.582  1.00  0.00    -0.313 N 
ATOM      4  H3  UNL     1      59.102  -1.808  69.152  1.00  0.00     0.170 HD
HETATM    5  C5  UNL     1      60.858  -1.534  68.708  1.00  0.00     0.111 C 
HETATM    6  C6  UNL     1      62.299  -1.189  68.823  1.00  0.00     0.169 C 
HETATM    7  C7  UNL     1      62.649  -1.054  70.255  1.00  0.00     0.116 C 
HETATM    8  S1  UNL     1      64.466  -1.471  70.145  1.00  0.00    -0.089 SA
HETATM    9  C8  UNL     1      64.148  -2.714  68.849  1.00  0.00     0.168 C 
HETATM   10  N4  UNL     1      64.860  -3.753  68.754  1.00  0.00    -0.230 N 
ATOM     11  H4  UNL     1      64.622  -4.404  68.005  1.00  0.00     0.198 HD
HETATM   12  N5  UNL     1      63.034  -2.193  68.150  1.00  0.00    -0.310 N 
HETATM   13  C9  UNL     1      62.588  -2.580  66.814  1.00  0.00     0.101 C 
HETATM   14  C11 UNL     1      61.321  -2.453  66.444  1.00  0.00     0.129 C 
HETATM   15  N7  UNL     1      60.405  -1.919  67.391  1.00  0.00    -0.333 N 
HETATM   16  C13 UNL     1      58.993  -1.741  67.080  1.00  0.00     0.158 C 
ENDROOT
BRANCH   1  17
HETATM   17  C3  UNL     1      59.255  -2.302  71.812  1.00  0.00     0.249 C 
BRANCH  17  18
HETATM   18  N2  UNL     1      59.661  -2.087  73.173  1.00  0.00    -0.072 NA
BRANCH  18  19
HETATM   19  O1  UNL     1      60.275  -3.150  73.732  1.00  0.00    -0.229 OA
BRANCH  19  20
HETATM   20  C2  UNL     1      61.555  -3.568  73.457  1.00  0.00     0.166 C 
HETATM   21  C1  UNL     1      62.545  -2.743  73.627  1.00  0.00     0.070 C 
HETATM   22  N1  UNL     1      61.809  -4.886  72.993  1.00  0.00    -0.074 NA
ENDBRANCH  19  20
ENDBRANCH  18  19
ENDBRANCH  17  18
BRANCH  17  23
HETATM   23  C14 UNL     1      57.748  -2.461  71.738  1.00  0.00     0.049 A 
HETATM   24  C15 UNL     1      56.929  -1.801  72.613  1.00  0.00     0.080 A 
HETATM   25  S3  UNL     1      55.378  -2.309  72.117  1.00  0.00    -0.064 SA
HETATM   26  C16 UNL     1      55.847  -3.323  70.834  1.00  0.00     0.142 A 
HETATM   27  N9  UNL     1      57.174  -3.230  70.840  1.00  0.00    -0.338 N 
ATOM     28  H9  UNL     1      57.734  -3.745  70.162  1.00  0.00     0.168 HD
BRANCH  26  29
HETATM   29  N8  UNL     1      55.089  -4.032  70.024  1.00  0.00    -0.380 N 
ATOM     30  H82 UNL     1      54.070  -4.046  69.970  1.00  0.00     0.158 HD
ATOM     31  H81 UNL     1      55.371  -4.696  69.304  1.00  0.00     0.158 HD
ENDBRANCH  26  29
ENDBRANCH  17  23
ENDBRANCH   1  17
BRANCH  14  32
HETATM   32  C12 UNL     1      60.794  -2.824  65.130  1.00  0.00     0.283 C 
HETATM   33  N6  UNL     1      60.656  -1.953  64.044  1.00  0.00    -0.056 NA
HETATM   34  O6  UNL     1      60.419  -4.031  64.914  1.00  0.00    -0.269 OA
ENDBRANCH  14  32
BRANCH  13  35
HETATM   35  C10 UNL     1      63.641  -3.118  65.907  1.00  0.00     0.308 C 
BRANCH  35  36
HETATM   36  O4  UNL     1      63.486  -4.556  65.808  1.00  0.00    -0.366 OA
ATOM     37  H4  UNL     1      64.028  -4.970  66.469  1.00  0.00     0.213 HD
ENDBRANCH  35  36
BRANCH  35  38
HETATM   38  O5  UNL     1      63.662  -2.564  64.658  1.00  0.00    -0.366 OA
ATOM     39  H5  UNL     1      63.144  -1.773  64.563  1.00  0.00     0.213 HD
ENDBRANCH  35  38
ENDBRANCH  13  35
BRANCH  10  40
HETATM   40  O3  UNL     1      65.905  -4.093  69.542  1.00  0.00    -0.188 OA
HETATM   41  S2  UNL     1      65.770  -5.153  70.910  1.00  0.00     0.125 SA
ENDBRANCH  10  40
TORSDOF 11
ENDMDL
MODEL 2
REMARK VINA RESULT: -8.260686829      1.662      3.377
REMARK  11 active torsions:
REMARK  status: ('A' for Active; 'I' for Inactive)
REMARK    1  A    between atoms: C2_2  and  O1_4 
REMARK    2  A    between atoms: O1_4  and  N2_5 
REMARK    3  A    between atoms: N2_5  and  C3_6 
REMARK    4  A    between atoms: C3_6  and  C4_7 
REMARK    5  A    between atoms: C3_6  and  C14_33 
REMARK       I    between atoms: C4_7  and  N3_9 
REMARK    6  A    between atoms: N4_16  and  O3_18 
REMARK    7  A    between atoms: C9_21  and  C10_22 
REMARK    8  A    between atoms: C10_22  and  O4_23 
REMARK    9  A    between atoms: C10_22  and  O5_25 
REMARK   10  A    between atoms: C11_27  and  C12_28 
REMARK   11  A    between atoms: C16_36  and  N8_37 
ROOT
HETATM    1  C4  UNL     1      59.446  -1.071  70.531  1.00  0.00     0.250 C 
HETATM    2  O2  UNL     1      59.589   0.158  70.840  1.00  0.00    -0.271 OA
HETATM    3  N3  UNL     1      59.672  -1.459  69.256  1.00  0.00    -0.313 N 
ATOM      4  H3  UNL     1      58.796  -1.821  68.881  1.00  0.00     0.170 HD
HETATM    5  C5  UNL     1      60.532  -1.546  68.363  1.00  0.00     0.111 C 
HETATM    6  C6  UNL     1      61.965  -1.158  68.405  1.00  0.00     0.169 C 
HETATM    7  C7  UNL     1      62.349  -0.881  69.808  1.00  0.00     0.116 C 
HETATM    8  S1  UNL     1      64.173  -1.261  69.684  1.00  0.00    -0.089 SA
HETATM    9  C8  UNL     1      63.856  -2.627  68.518  1.00  0.00     0.168 C 
HETATM   10  N4  UNL     1      64.593  -3.653  68.499  1.00  0.00    -0.230 N 
ATOM     11  H4  UNL     1      64.353  -4.376  67.820  1.00  0.00     0.198 HD
HETATM   12  N5  UNL     1      62.710  -2.201  67.806  1.00  0.00    -0.310 N 
HETATM   13  C9  UNL     1      62.240  -2.722  66.526  1.00  0.00     0.101 C 
HETATM   14  C11 UNL     1      60.960  -2.661  66.181  1.00  0.00     0.129 C 
HETATM   15  N7  UNL     1      60.055  -2.064  67.101  1.00  0.00    -0.333 N 
HETATM   16  C13 UNL     1      58.631  -1.951  66.815  1.00  0.00     0.158 C 
ENDROOT
BRANCH   1  17
HETATM   17  C3  UNL     1      59.033  -2.062  71.570  1.00  0.00     0.249 C 
BRANCH  17  18
HETATM   18  N2  UNL     1      58.308  -3.179  71.033  1.00  0.00    -0.072 NA
BRANCH  18  19
HETATM   19  O1  UNL     1      57.290  -2.830  70.220  1.00  0.00    -0.229 OA
BRANCH  19  20
HETATM   20  C2  UNL     1      55.993  -3.271  70.330  1.00  0.00     0.166 C 
HETATM   21  C1  UNL     1      55.289  -2.927  71.367  1.00  0.00     0.070 C 
HETATM   22  N1  UNL     1      55.414  -4.093  69.327  1.00  0.00    -0.074 NA
ENDBRANCH  19  20
ENDBRANCH  18  19
ENDBRANCH  17  18
BRANCH  17  23
HETATM   23  C14 UNL     1      60.234  -2.550  72.357  1.00  0.00     0.049 A 
HETATM   24  C15 UNL     1      60.924  -1.704  73.181  1.00  0.00     0.080 A 
HETATM   25  S3  UNL     1      62.144  -2.718  73.808  1.00  0.00    -0.064 SA
HETATM   26  C16 UNL     1      61.717  -4.152  72.998  1.00  0.00     0.142 A 
HETATM   27  N9  UNL     1      60.657  -3.793  72.280  1.00  0.00    -0.338 N 
ATOM     28  H9  UNL     1      60.181  -4.468  71.682  1.00  0.00     0.168 HD
BRANCH  26  29
HETATM   29  N8  UNL     1      62.290  -5.335  73.060  1.00  0.00    -0.380 N 
ATOM     30  H82 UNL     1      63.081  -5.621  73.638  1.00  0.00     0.158 HD
ATOM     31  H81 UNL     1      62.056  -6.185  72.547  1.00  0.00     0.158 HD
ENDBRANCH  26  29
ENDBRANCH  17  23
ENDBRANCH   1  17
BRANCH  14  32
HETATM   32  C12 UNL     1      60.409  -3.165  64.923  1.00  0.00     0.283 C 
HETATM   33  N6  UNL     1      60.176  -2.392  63.780  1.00  0.00    -0.056 NA
HETATM   34  O6  UNL     1      60.103  -4.405  64.816  1.00  0.00    -0.269 OA
ENDBRANCH  14  32
BRANCH  13  35
HETATM   35  C10 UNL     1      63.282  -3.315  65.642  1.00  0.00     0.308 C 
BRANCH  35  36
HETATM   36  O4  UNL     1      64.454  -2.462  65.660  1.00  0.00    -0.366 OA
ATOM     37  H4  UNL     1      64.357  -1.792  64.993  1.00  0.00     0.213 HD
ENDBRANCH  35  36
BRANCH  35  38
HETATM   38  O5  UNL     1      63.637  -4.598  65.951  1.00  0.00    -0.366 OA
ATOM     39  H5  UNL     1      63.506  -4.841  66.860  1.00  0.00     0.213 HD
ENDBRANCH  35  38
ENDBRANCH  13  35
BRANCH  10  40
HETATM   40  O3  UNL     1      65.667  -3.892  69.284  1.00  0.00    -0.188 OA
HETATM   41  S2  UNL     1      65.574  -4.706  70.815  1.00  0.00     0.125 SA
ENDBRANCH  10  40
TORSDOF 11
ENDMDL
MODEL 3
REMARK VINA RESULT: -8.158505061      3.003      7.725
REMARK  11 active torsions:
REMARK  status: ('A' for Active; 'I' for Inactive)
REMARK    1  A    between atoms: C2_2  and  O1_4 
REMARK    2  A    between atoms: O1_4  and  N2_5 
REMARK    3  A    between atoms: N2_5  and  C3_6 
REMARK    4  A    between atoms: C3_6  and  C4_7 
REMARK    5  A    between atoms: C3_6  and  C14_33 
REMARK       I    between atoms: C4_7  and  N3_9 
REMARK    6  A    between atoms: N4_16  and  O3_18 
REMARK    7  A    between atoms: C9_21  and  C10_22 
REMARK    8  A    between atoms: C10_22  and  O4_23 
REMARK    9  A    between atoms: C10_22  and  O5_25 
REMARK   10  A    between atoms: C11_27  and  C12_28 
REMARK   11  A    between atoms: C16_36  and  N8_37 
ROOT
HETATM    1  C4  UNL     1      64.587  -3.101  68.292  1.00  0.00     0.250 C 
HETATM    2  O2  UNL     1      64.969  -2.772  67.120  1.00  0.00    -0.271 OA
HETATM    3  N3  UNL     1      64.085  -2.151  69.110  1.00  0.00    -0.313 N 
ATOM      4  H3  UNL     1      64.702  -2.078  69.918  1.00  0.00     0.170 HD
HETATM    5  C5  UNL     1      63.163  -1.332  69.262  1.00  0.00     0.111 C 
HETATM    6  C6  UNL     1      62.008  -1.048  68.372  1.00  0.00     0.169 C 
HETATM    7  C7  UNL     1      61.924  -2.107  67.340  1.00  0.00     0.116 C 
HETATM    8  S1  UNL     1      60.094  -2.009  66.979  1.00  0.00    -0.089 SA
HETATM    9  C8  UNL     1      59.722  -1.670  68.732  1.00  0.00     0.168 C 
HETATM   10  N4  UNL     1      58.647  -2.073  69.260  1.00  0.00    -0.230 N 
ATOM     11  H4  UNL     1      58.508  -1.847  70.245  1.00  0.00     0.198 HD
HETATM   12  N5  UNL     1      60.854  -0.952  69.184  1.00  0.00    -0.310 N 
HETATM   13  C9  UNL     1      60.936  -0.125  70.385  1.00  0.00     0.101 C 
HETATM   14  C11 UNL     1      62.091   0.085  71.003  1.00  0.00     0.129 C 
HETATM   15  N7  UNL     1      63.255  -0.520  70.455  1.00  0.00    -0.333 N 
HETATM   16  C13 UNL     1      64.568  -0.350  71.061  1.00  0.00     0.158 C 
ENDROOT
BRANCH   1  17
HETATM   17  C3  UNL     1      64.698  -4.521  68.745  1.00  0.00     0.249 C 
BRANCH  17  18
HETATM   18  N2  UNL     1      65.399  -5.361  67.814  1.00  0.00    -0.072 NA
BRANCH  18  19
HETATM   19  O1  UNL     1      65.705  -6.580  68.304  1.00  0.00    -0.229 OA
BRANCH  19  20
HETATM   20  C2  UNL     1      66.673  -7.420  67.806  1.00  0.00     0.166 C 
HETATM   21  C1  UNL     1      67.310  -7.086  66.723  1.00  0.00     0.070 C 
HETATM   22  N1  UNL     1      66.983  -8.643  68.457  1.00  0.00    -0.074 NA
ENDBRANCH  19  20
ENDBRANCH  18  19
ENDBRANCH  17  18
BRANCH  17  23
HETATM   23  C14 UNL     1      65.352  -4.601  70.112  1.00  0.00     0.049 A 
HETATM   24  C15 UNL     1      64.631  -4.974  71.213  1.00  0.00     0.080 A 
HETATM   25  S3  UNL     1      65.799  -4.904  72.455  1.00  0.00    -0.064 SA
HETATM   26  C16 UNL     1      67.131  -4.411  71.518  1.00  0.00     0.142 A 
HETATM   27  N9  UNL     1      66.623  -4.320  70.292  1.00  0.00    -0.338 N 
ATOM     28  H9  UNL     1      67.209  -4.037  69.507  1.00  0.00     0.168 HD
BRANCH  26  29
HETATM   29  N8  UNL     1      68.366  -4.175  71.902  1.00  0.00    -0.380 N 
ATOM     30  H82 UNL     1      68.686  -3.807  72.799  1.00  0.00     0.158 HD
ATOM     31  H81 UNL     1      69.234  -4.313  71.384  1.00  0.00     0.158 HD
ENDBRANCH  26  29
ENDBRANCH  17  23
ENDBRANCH   1  17
BRANCH  14  32
HETATM   32  C12 UNL     1      62.255   0.892  72.212  1.00  0.00     0.283 C 
HETATM   33  N6  UNL     1      62.182   0.406  73.521  1.00  0.00    -0.056 NA
HETATM   34  O6  UNL     1      62.487   2.149  72.108  1.00  0.00    -0.269 OA
ENDBRANCH  14  32
BRANCH  13  35
HETATM   35  C10 UNL     1      59.651   0.462  70.859  1.00  0.00     0.308 C 
BRANCH  35  36
HETATM   36  O4  UNL     1      59.219  -0.249  72.046  1.00  0.00    -0.366 OA
ATOM     37  H4  UNL     1      59.152   0.366  72.766  1.00  0.00     0.213 HD
ENDBRANCH  35  36
BRANCH  35  38
HETATM   38  O5  UNL     1      59.691   1.805  71.110  1.00  0.00    -0.366 OA
ATOM     39  H5  UNL     1      58.868   2.261  70.978  1.00  0.00     0.213 HD
ENDBRANCH  35  38
ENDBRANCH  13  35
BRANCH  10  40
HETATM   40  O3  UNL     1      57.661  -2.772  68.655  1.00  0.00    -0.188 OA
HETATM   41  S2  UNL     1      56.190  -3.241  69.449  1.00  0.00     0.125 SA
ENDBRANCH  10  40
TORSDOF 11
ENDMDL
MODEL 4
REMARK VINA RESULT: -7.935092029      1.845      3.278
REMARK  11 active torsions:
REMARK  status: ('A' for Active; 'I' for Inactive)
REMARK    1  A    between atoms: C2_2  and  O1_4 
REMARK    2  A    between atoms: O1_4  and  N2_5 
REMARK    3  A    between atoms: N2_5  and  C3_6 
REMARK    4  A    between atoms: C3_6  and  C4_7 
REMARK    5  A    between atoms: C3_6  and  C14_33 
REMARK       I    between atoms: C4_7  and  N3_9 
REMARK    6  A    between atoms: N4_16  and  O3_18 
REMARK    7  A    between atoms: C9_21  and  C10_22 
REMARK    8  A    between atoms: C10_22  and  O4_23 
REMARK    9  A    between atoms: C10_22  and  O5_25 
REMARK   10  A    between atoms: C11_27  and  C12_28 
REMARK   11  A    between atoms: C16_36  and  N8_37 
ROOT
HETATM    1  C4  UNL     1      59.607  -0.542  69.525  1.00  0.00     0.250 C 
HETATM    2  O2  UNL     1      59.777   0.690  69.815  1.00  0.00    -0.271 OA
HETATM    3  N3  UNL     1      60.332  -1.086  68.524  1.00  0.00    -0.313 N 
ATOM      4  H3  UNL     1      59.682  -1.384  67.796  1.00  0.00     0.170 HD
HETATM    5  C5  UNL     1      61.481  -1.366  68.143  1.00  0.00     0.111 C 
HETATM    6  C6  UNL     1      62.776  -1.142  68.836  1.00  0.00     0.169 C 
HETATM    7  C7  UNL     1      62.510  -0.763  70.242  1.00  0.00     0.116 C 
HETATM    8  S1  UNL     1      64.107  -1.360  71.005  1.00  0.00    -0.089 SA
HETATM    9  C8  UNL     1      64.157  -2.797  69.883  1.00  0.00     0.168 C 
HETATM   10  N4  UNL     1      64.657  -3.897  70.254  1.00  0.00    -0.230 N 
ATOM     11  H4  UNL     1      64.648  -4.656  69.573  1.00  0.00     0.198 HD
HETATM   12  N5  UNL     1      63.545  -2.322  68.700  1.00  0.00    -0.310 N 
HETATM   13  C9  UNL     1      63.642  -2.919  67.371  1.00  0.00     0.101 C 
HETATM   14  C11 UNL     1      62.688  -2.749  66.464  1.00  0.00     0.129 C 
HETATM   15  N7  UNL     1      61.564  -1.958  66.827  1.00  0.00    -0.333 N 
HETATM   16  C13 UNL     1      60.465  -1.714  65.902  1.00  0.00     0.158 C 
ENDROOT
BRANCH   1  17
HETATM   17  C3  UNL     1      58.619  -1.362  70.289  1.00  0.00     0.249 C 
BRANCH  17  18
HETATM   18  N2  UNL     1      58.025  -2.409  69.507  1.00  0.00    -0.072 NA
BRANCH  18  19
HETATM   19  O1  UNL     1      57.450  -3.381  70.244  1.00  0.00    -0.229 OA
BRANCH  19  20
HETATM   20  C2  UNL     1      56.107  -3.483  70.522  1.00  0.00     0.166 C 
HETATM   21  C1  UNL     1      55.684  -3.222  71.722  1.00  0.00     0.070 C 
HETATM   22  N1  UNL     1      55.181  -3.869  69.517  1.00  0.00    -0.074 NA
ENDBRANCH  19  20
ENDBRANCH  18  19
ENDBRANCH  17  18
BRANCH  17  23
HETATM   23  C14 UNL     1      59.252  -1.942  71.540  1.00  0.00     0.049 A 
HETATM   24  C15 UNL     1      58.939  -1.450  72.778  1.00  0.00     0.080 A 
HETATM   25  S3  UNL     1      59.893  -2.417  73.808  1.00  0.00    -0.064 SA
HETATM   26  C16 UNL     1      60.634  -3.389  72.623  1.00  0.00     0.142 A 
HETATM   27  N9  UNL     1      60.118  -2.929  71.487  1.00  0.00    -0.338 N 
ATOM     28  H9  UNL     1      60.389  -3.336  70.591  1.00  0.00     0.168 HD
BRANCH  26  29
HETATM   29  N8  UNL     1      61.506  -4.361  72.782  1.00  0.00    -0.380 N 
ATOM     30  H82 UNL     1      61.613  -4.984  73.583  1.00  0.00     0.158 HD
ATOM     31  H81 UNL     1      62.235  -4.676  72.142  1.00  0.00     0.158 HD
ENDBRANCH  26  29
ENDBRANCH  17  23
ENDBRANCH   1  17
BRANCH  14  32
HETATM   32  C12 UNL     1      62.707  -3.318  65.117  1.00  0.00     0.283 C 
HETATM   33  N6  UNL     1      62.149  -4.549  64.755  1.00  0.00    -0.056 NA
HETATM   34  O6  UNL     1      63.267  -2.670  64.162  1.00  0.00    -0.269 OA
ENDBRANCH  14  32
BRANCH  13  35
HETATM   35  C10 UNL     1      64.871  -3.718  67.105  1.00  0.00     0.308 C 
BRANCH  35  36
HETATM   36  O4  UNL     1      64.486  -5.078  66.782  1.00  0.00    -0.366 OA
ATOM     37  H4  UNL     1      65.268  -5.613  66.719  1.00  0.00     0.213 HD
ENDBRANCH  35  36
BRANCH  35  38
HETATM   38  O5  UNL     1      65.681  -3.219  66.124  1.00  0.00    -0.366 OA
ATOM     39  H5  UNL     1      66.570  -3.553  66.132  1.00  0.00     0.213 HD
ENDBRANCH  35  38
ENDBRANCH  13  35
BRANCH  10  40
HETATM   40  O3  UNL     1      65.201  -4.172  71.460  1.00  0.00    -0.188 OA
HETATM   41  S2  UNL     1      66.892  -3.992  71.814  1.00  0.00     0.125 SA
ENDBRANCH  10  40
TORSDOF 11
ENDMDL
MODEL 5
REMARK VINA RESULT: -7.697281598      2.142      2.995
REMARK  11 active torsions:
REMARK  status: ('A' for Active; 'I' for Inactive)
REMARK    1  A    between atoms: C2_2  and  O1_4 
REMARK    2  A    between atoms: O1_4  and  N2_5 
REMARK    3  A    between atoms: N2_5  and  C3_6 
REMARK    4  A    between atoms: C3_6  and  C4_7 
REMARK    5  A    between atoms: C3_6  and  C14_33 
REMARK       I    between atoms: C4_7  and  N3_9 
REMARK    6  A    between atoms: N4_16  and  O3_18 
REMARK    7  A    between atoms: C9_21  and  C10_22 
REMARK    8  A    between atoms: C10_22  and  O4_23 
REMARK    9  A    between atoms: C10_22  and  O5_25 
REMARK   10  A    between atoms: C11_27  and  C12_28 
REMARK   11  A    between atoms: C16_36  and  N8_37 
ROOT
HETATM    1  C4  UNL     1      60.487  -1.169  70.483  1.00  0.00     0.250 C 
HETATM    2  O2  UNL     1      60.754  -0.037  71.008  1.00  0.00    -0.271 OA
HETATM    3  N3  UNL     1      61.195  -1.579  69.409  1.00  0.00    -0.313 N 
ATOM      4  H3  UNL     1      60.548  -1.670  68.626  1.00  0.00     0.170 HD
HETATM    5  C5  UNL     1      62.328  -1.888  69.002  1.00  0.00     0.111 C 
HETATM    6  C6  UNL     1      63.612  -1.923  69.748  1.00  0.00     0.169 C 
HETATM    7  C7  UNL     1      63.331  -1.795  71.196  1.00  0.00     0.116 C 
HETATM    8  S1  UNL     1      64.840  -2.674  71.858  1.00  0.00    -0.089 SA
HETATM    9  C8  UNL     1      64.802  -3.869  70.481  1.00  0.00     0.168 C 
HETATM   10  N4  UNL     1      65.189  -5.062  70.642  1.00  0.00    -0.230 N 
ATOM     11  H4  UNL     1      65.137  -5.673  69.826  1.00  0.00     0.198 HD
HETATM   12  N5  UNL     1      64.278  -3.122  69.401  1.00  0.00    -0.310 N 
HETATM   13  C9  UNL     1      64.369  -3.461  67.984  1.00  0.00     0.101 C 
HETATM   14  C11 UNL     1      63.467  -3.033  67.110  1.00  0.00     0.129 C 
HETATM   15  N7  UNL     1      62.405  -2.223  67.598  1.00  0.00    -0.333 N 
HETATM   16  C13 UNL     1      61.367  -1.705  66.718  1.00  0.00     0.158 C 
ENDROOT
BRANCH   1  17
HETATM   17  C3  UNL     1      59.403  -2.023  71.056  1.00  0.00     0.249 C 
BRANCH  17  18
HETATM   18  N2  UNL     1      58.821  -1.477  72.250  1.00  0.00    -0.072 NA
BRANCH  18  19
HETATM   19  O1  UNL     1      57.526  -1.126  72.113  1.00  0.00    -0.229 OA
BRANCH  19  20
HETATM   20  C2  UNL     1      56.465  -1.724  72.751  1.00  0.00     0.166 C 
HETATM   21  C1  UNL     1      56.683  -2.448  73.807  1.00  0.00     0.070 C 
HETATM   22  N1  UNL     1      55.138  -1.560  72.271  1.00  0.00    -0.074 NA
ENDBRANCH  19  20
ENDBRANCH  18  19
ENDBRANCH  17  18
BRANCH  17  23
HETATM   23  C14 UNL     1      58.323  -2.288  70.025  1.00  0.00     0.049 A 
HETATM   24  C15 UNL     1      58.331  -1.641  68.819  1.00  0.00     0.080 A 
HETATM   25  S3  UNL     1      56.945  -2.276  68.054  1.00  0.00    -0.064 SA
HETATM   26  C16 UNL     1      56.433  -3.323  69.295  1.00  0.00     0.142 A 
HETATM   27  N9  UNL     1      57.347  -3.140  70.244  1.00  0.00    -0.338 N 
ATOM     28  H9  UNL     1      57.290  -3.651  71.124  1.00  0.00     0.168 HD
BRANCH  26  29
HETATM   29  N8  UNL     1      55.389  -4.123  69.319  1.00  0.00    -0.380 N 
ATOM     30  H82 UNL     1      55.351  -5.098  69.617  1.00  0.00     0.158 HD
ATOM     31  H81 UNL     1      54.426  -3.925  69.047  1.00  0.00     0.158 HD
ENDBRANCH  26  29
ENDBRANCH  17  23
ENDBRANCH   1  17
BRANCH  14  32
HETATM   32  C12 UNL     1      63.483  -3.334  65.678  1.00  0.00     0.283 C 
HETATM   33  N6  UNL     1      63.223  -4.588  65.117  1.00  0.00    -0.056 NA
HETATM   34  O6  UNL     1      63.751  -2.403  64.837  1.00  0.00    -0.269 OA
ENDBRANCH  14  32
BRANCH  13  35
HETATM   35  C10 UNL     1      65.530  -4.307  67.591  1.00  0.00     0.308 C 
BRANCH  35  36
HETATM   36  O4  UNL     1      65.100  -5.689  67.511  1.00  0.00    -0.366 OA
ATOM     37  H4  UNL     1      65.815  -6.251  67.785  1.00  0.00     0.213 HD
ENDBRANCH  35  36
BRANCH  35  38
HETATM   38  O5  UNL     1      66.139  -3.942  66.423  1.00  0.00    -0.366 OA
ATOM     39  H5  UNL     1      67.053  -4.191  66.354  1.00  0.00     0.213 HD
ENDBRANCH  35  38
ENDBRANCH  13  35
BRANCH  10  40
HETATM   40  O3  UNL     1      65.663  -5.611  71.782  1.00  0.00    -0.188 OA
HETATM   41  S2  UNL     1      65.161  -7.162  72.380  1.00  0.00     0.125 SA
ENDBRANCH  10  40
TORSDOF 11
ENDMDL
