MODEL 1
REMARK VINA RESULT: -9.563705818      0.000      0.000
REMARK  12 active torsions:
REMARK  status: ('A' for Active; 'I' for Inactive)
REMARK    1  A    between atoms: S1_2  and  C2_3 
REMARK    2  A    between atoms: C3_6  and  N2_7 
REMARK    3  A    between atoms: N2_7  and  C4_9 
REMARK    4  A    between atoms: C4_9  and  C9_25 
REMARK    5  A    between atoms: N3_10  and  N4_12 
REMARK    6  A    between atoms: C5_14  and  C6_15 
REMARK    7  A    between atoms: C8_22  and  O2_23 
REMARK    8  A    between atoms: C12_28  and  O3_29 
REMARK    9  A    between atoms: O3_29  and  C13_30 
REMARK   10  A    between atoms: C13_30  and  C14_31 
REMARK   11  A    between atoms: C15_40  and  O4_41 
REMARK   12  A    between atoms: C17_46  and  N12_47 
ROOT
HETATM    1  C4  UNL     1      61.263  -1.224  69.805  1.00  0.00     0.145 C 
HETATM    2  N3  UNL     1      60.513  -1.896  70.560  1.00  0.00    -0.285 N 
ATOM      3  H3  UNL     1      60.950  -2.165  71.441  1.00  0.00     0.188 HD
ENDROOT
BRANCH   1   4
HETATM    4  N2  UNL     1      62.574  -0.908  70.206  1.00  0.00    -0.174 N 
ATOM      5  H2  UNL     1      62.824   0.079  70.272  1.00  0.00     0.186 HD
BRANCH   4   6
HETATM    6  C3  UNL     1      63.478  -1.773  70.495  1.00  0.00     0.700 A 
HETATM    7  N1  UNL     1      63.804  -2.689  69.567  1.00  0.00    -0.169 N 
HETATM    8  C2  UNL     1      64.757  -3.638  69.807  1.00  0.00     0.176 A 
ATOM      9  H1  UNL     1      63.330  -2.675  68.664  1.00  0.00     0.186 HD
HETATM   10  N13 UNL     1      65.393  -3.672  70.992  1.00  0.00    -0.166 N 
HETATM   11  C17 UNL     1      65.069  -2.757  71.925  1.00  0.00     0.694 A 
HETATM   12  C18 UNL     1      66.404  -4.691  71.226  1.00  0.00     0.177 C 
HETATM   13  N11 UNL     1      64.124  -1.822  71.676  1.00  0.00    -0.022 N 
ATOM     14  H11 UNL     1      63.895  -1.139  72.398  1.00  0.00     0.203 HD
BRANCH   8  15
HETATM   15  S1  UNL     1      65.194  -4.852  68.580  1.00  0.00    -0.097 SA
HETATM   16  C1  UNL     1      64.798  -4.259  66.904  1.00  0.00     0.099 C 
ENDBRANCH   8  15
BRANCH  11  17
HETATM   17  N12 UNL     1      65.681  -2.793  73.060  1.00  0.00    -0.234 N 
ATOM     18 2H12 UNL     1      65.165  -3.113  73.881  1.00  0.00     0.174 HD
ATOM     19 1H12 UNL     1      66.657  -2.510  73.137  1.00  0.00     0.174 HD
ENDBRANCH  11  17
ENDBRANCH   4   6
ENDBRANCH   1   4
BRANCH   1  20
HETATM   20  C9  UNL     1      60.814  -0.766  68.503  1.00  0.00     0.013 A 
HETATM   21  C10 UNL     1      60.301   0.540  68.444  1.00  0.00     0.018 A 
HETATM   22  C11 UNL     1      59.865   1.048  67.235  1.00  0.00     0.040 A 
HETATM   23  C12 UNL     1      59.909   0.328  66.069  1.00  0.00     0.102 A 
HETATM   24  C15 UNL     1      60.425  -0.959  66.179  1.00  0.00     0.100 A 
HETATM   25  C16 UNL     1      60.864  -1.489  67.364  1.00  0.00     0.054 A 
BRANCH  23  26
HETATM   26  O3  UNL     1      59.475   0.853  64.885  1.00  0.00    -0.341 OA
BRANCH  26  27
HETATM   27  C13 UNL     1      60.099   1.691  63.994  1.00  0.00     0.255 C 
BRANCH  27  28
HETATM   28  C14 UNL     1      59.586   3.068  64.113  1.00  0.00     0.137 A 
HETATM   29  N7  UNL     1      59.750   4.027  63.197  1.00  0.00    -0.270 N 
HETATM   30  N8  UNL     1      59.160   5.115  63.643  1.00  0.00    -0.227 N 
ATOM     31  H7  UNL     1      60.244   3.932  62.310  1.00  0.00     0.190 HD
HETATM   32  N9  UNL     1      58.630   4.852  64.823  1.00  0.00    -0.227 N 
ATOM     33  H8  UNL     1      59.120   6.011  63.158  1.00  0.00     0.210 HD
HETATM   34  N10 UNL     1      58.872   3.599  65.146  1.00  0.00    -0.270 N 
ATOM     35  H9  UNL     1      58.112   5.517  65.397  1.00  0.00     0.210 HD
ATOM     36  H10 UNL     1      58.583   3.120  65.999  1.00  0.00     0.190 HD
ENDBRANCH  27  28
ENDBRANCH  26  27
ENDBRANCH  23  26
BRANCH  24  37
HETATM   37  O4  UNL     1      60.467  -1.690  64.980  1.00  0.00    -0.358 OA
ATOM     38  H4  UNL     1      59.871  -2.428  64.936  1.00  0.00     0.217 HD
ENDBRANCH  24  37
ENDBRANCH   1  20
BRANCH   2  39
HETATM   39  N4  UNL     1      59.234  -2.334  70.428  1.00  0.00    -0.308 N 
HETATM   40  C5  UNL     1      58.268  -2.249  71.245  1.00  0.00     0.141 C 
ATOM     41  H4  UNL     1      59.019  -2.797  69.544  1.00  0.00     0.186 HD
BRANCH  40  42
HETATM   42  C6  UNL     1      56.970  -2.804  70.864  1.00  0.00     0.104 A 
HETATM   43  N5  UNL     1      55.763  -2.343  71.263  1.00  0.00    -0.304 N 
HETATM   44  C7  UNL     1      54.777  -3.082  70.728  1.00  0.00     0.326 A 
ATOM     45  H5  UNL     1      55.621  -1.546  71.883  1.00  0.00     0.171 HD
HETATM   46  O1  UNL     1      53.549  -2.893  70.917  1.00  0.00    -0.247 OA
HETATM   47  N6  UNL     1      55.375  -4.031  69.974  1.00  0.00    -0.287 N 
HETATM   48  C8  UNL     1      56.696  -3.872  70.049  1.00  0.00     0.173 A 
ATOM     49  H6  UNL     1      54.894  -4.751  69.435  1.00  0.00     0.172 HD
BRANCH  48  50
HETATM   50  O2  UNL     1      57.644  -4.655  69.411  1.00  0.00    -0.344 OA
ATOM     51  H2  UNL     1      57.458  -5.443  68.914  1.00  0.00     0.219 HD
ENDBRANCH  48  50
ENDBRANCH  40  42
ENDBRANCH   2  39
TORSDOF 12
ENDMDL
MODEL 2
REMARK VINA RESULT: -9.549842615      1.636      2.294
REMARK  12 active torsions:
REMARK  status: ('A' for Active; 'I' for Inactive)
REMARK    1  A    between atoms: S1_2  and  C2_3 
REMARK    2  A    between atoms: C3_6  and  N2_7 
REMARK    3  A    between atoms: N2_7  and  C4_9 
REMARK    4  A    between atoms: C4_9  and  C9_25 
REMARK    5  A    between atoms: N3_10  and  N4_12 
REMARK    6  A    between atoms: C5_14  and  C6_15 
REMARK    7  A    between atoms: C8_22  and  O2_23 
REMARK    8  A    between atoms: C12_28  and  O3_29 
REMARK    9  A    between atoms: O3_29  and  C13_30 
REMARK   10  A    between atoms: C13_30  and  C14_31 
REMARK   11  A    between atoms: C15_40  and  O4_41 
REMARK   12  A    between atoms: C17_46  and  N12_47 
ROOT
HETATM    1  C4  UNL     1      61.539  -1.383  69.534  1.00  0.00     0.145 C 
HETATM    2  N3  UNL     1      60.893  -2.060  70.376  1.00  0.00    -0.285 N 
ATOM      3  H3  UNL     1      61.483  -2.594  71.015  1.00  0.00     0.188 HD
ENDROOT
BRANCH   1   4
HETATM    4  N2  UNL     1      62.945  -1.407  69.534  1.00  0.00    -0.174 N 
ATOM      5  H2  UNL     1      63.433  -0.598  69.918  1.00  0.00     0.186 HD
BRANCH   4   6
HETATM    6  C3  UNL     1      63.660  -2.375  69.083  1.00  0.00     0.700 A 
HETATM    7  N1  UNL     1      63.633  -2.625  67.763  1.00  0.00    -0.169 N 
HETATM    8  C2  UNL     1      64.369  -3.639  67.215  1.00  0.00     0.176 A 
ATOM      9  H1  UNL     1      63.052  -2.047  67.156  1.00  0.00     0.186 HD
HETATM   10  N13 UNL     1      65.140  -4.412  67.999  1.00  0.00    -0.166 N 
HETATM   11  C17 UNL     1      65.169  -4.166  69.322  1.00  0.00     0.694 A 
HETATM   12  C18 UNL     1      65.914  -5.486  67.395  1.00  0.00     0.177 C 
HETATM   13  N11 UNL     1      64.437  -3.160  69.853  1.00  0.00    -0.022 N 
ATOM     14  H11 UNL     1      64.475  -2.991  70.858  1.00  0.00     0.203 HD
BRANCH   8  15
HETATM   15  S1  UNL     1      64.338  -3.973  65.467  1.00  0.00    -0.097 SA
HETATM   16  C1  UNL     1      65.065  -2.595  64.525  1.00  0.00     0.099 C 
ENDBRANCH   8  15
BRANCH  11  17
HETATM   17  N12 UNL     1      65.910  -4.911  70.071  1.00  0.00    -0.234 N 
ATOM     18 2H12 UNL     1      66.585  -4.460  70.688  1.00  0.00     0.174 HD
ATOM     19 1H12 UNL     1      65.824  -5.926  70.047  1.00  0.00     0.174 HD
ENDBRANCH  11  17
ENDBRANCH   4   6
ENDBRANCH   1   4
BRANCH   1  20
HETATM   20  C9  UNL     1      60.865  -0.573  68.536  1.00  0.00     0.013 A 
HETATM   21  C10 UNL     1      60.497   0.723  68.930  1.00  0.00     0.018 A 
HETATM   22  C11 UNL     1      59.862   1.556  68.029  1.00  0.00     0.040 A 
HETATM   23  C12 UNL     1      59.568   1.174  66.745  1.00  0.00     0.102 A 
HETATM   24  C15 UNL     1      59.952  -0.118  66.403  1.00  0.00     0.100 A 
HETATM   25  C16 UNL     1      60.583  -0.966  67.276  1.00  0.00     0.054 A 
BRANCH  23  26
HETATM   26  O3  UNL     1      58.942   2.016  65.872  1.00  0.00    -0.341 OA
BRANCH  26  27
HETATM   27  C13 UNL     1      59.345   3.217  65.340  1.00  0.00     0.255 C 
BRANCH  27  28
HETATM   28  C14 UNL     1      59.671   3.081  63.909  1.00  0.00     0.137 A 
HETATM   29  N7  UNL     1      60.244   2.008  63.355  1.00  0.00    -0.270 N 
HETATM   30  N8  UNL     1      60.379   2.244  62.068  1.00  0.00    -0.227 N 
ATOM     31  H7  UNL     1      60.526   1.158  63.842  1.00  0.00     0.190 HD
HETATM   32  N9  UNL     1      59.900   3.447  61.808  1.00  0.00    -0.227 N 
ATOM     33  H8  UNL     1      60.786   1.605  61.385  1.00  0.00     0.210 HD
HETATM   34  N10 UNL     1      59.454   3.993  62.920  1.00  0.00    -0.270 N 
ATOM     35  H9  UNL     1      59.878   3.886  60.888  1.00  0.00     0.210 HD
ATOM     36  H10 UNL     1      59.031   4.915  63.021  1.00  0.00     0.190 HD
ENDBRANCH  27  28
ENDBRANCH  26  27
ENDBRANCH  23  26
BRANCH  24  37
HETATM   37  O4  UNL     1      59.648  -0.502  65.086  1.00  0.00    -0.358 OA
ATOM     38  H4  UNL     1      59.886  -1.393  64.860  1.00  0.00     0.217 HD
ENDBRANCH  24  37
ENDBRANCH   1  20
BRANCH   2  39
HETATM   39  N4  UNL     1      59.562  -2.218  70.598  1.00  0.00    -0.308 N 
HETATM   40  C5  UNL     1      58.842  -1.743  71.527  1.00  0.00     0.141 C 
ATOM     41  H4  UNL     1      59.072  -2.804  69.922  1.00  0.00     0.186 HD
BRANCH  40  42
HETATM   42  C6  UNL     1      57.415  -2.063  71.548  1.00  0.00     0.104 A 
HETATM   43  N5  UNL     1      56.726  -2.674  70.557  1.00  0.00    -0.304 N 
HETATM   44  C7  UNL     1      55.434  -2.816  70.902  1.00  0.00     0.326 A 
ATOM     45  H5  UNL     1      57.129  -2.984  69.673  1.00  0.00     0.171 HD
HETATM   46  O1  UNL     1      54.550  -3.348  70.185  1.00  0.00    -0.247 OA
HETATM   47  N6  UNL     1      55.307  -2.283  72.138  1.00  0.00    -0.287 N 
HETATM   48  C8  UNL     1      56.494  -1.827  72.535  1.00  0.00     0.173 A 
ATOM     49  H6  UNL     1      54.443  -2.238  72.678  1.00  0.00     0.172 HD
BRANCH  48  50
HETATM   50  O2  UNL     1      56.761  -1.213  73.748  1.00  0.00    -0.344 OA
ATOM     51  H2  UNL     1      56.477  -1.531  74.597  1.00  0.00     0.219 HD
ENDBRANCH  48  50
ENDBRANCH  40  42
ENDBRANCH   2  39
TORSDOF 12
ENDMDL
MODEL 3
REMARK VINA RESULT: -9.513984576      1.600      2.610
REMARK  12 active torsions:
REMARK  status: ('A' for Active; 'I' for Inactive)
REMARK    1  A    between atoms: S1_2  and  C2_3 
REMARK    2  A    between atoms: C3_6  and  N2_7 
REMARK    3  A    between atoms: N2_7  and  C4_9 
REMARK    4  A    between atoms: C4_9  and  C9_25 
REMARK    5  A    between atoms: N3_10  and  N4_12 
REMARK    6  A    between atoms: C5_14  and  C6_15 
REMARK    7  A    between atoms: C8_22  and  O2_23 
REMARK    8  A    between atoms: C12_28  and  O3_29 
REMARK    9  A    between atoms: O3_29  and  C13_30 
REMARK   10  A    between atoms: C13_30  and  C14_31 
REMARK   11  A    between atoms: C15_40  and  O4_41 
REMARK   12  A    between atoms: C17_46  and  N12_47 
ROOT
HETATM    1  C4  UNL     1      61.451  -1.312  69.477  1.00  0.00     0.145 C 
HETATM    2  N3  UNL     1      60.785  -1.960  70.326  1.00  0.00    -0.285 N 
ATOM      3  H3  UNL     1      61.359  -2.491  70.980  1.00  0.00     0.188 HD
ENDROOT
BRANCH   1   4
HETATM    4  N2  UNL     1      62.857  -1.362  69.490  1.00  0.00    -0.174 N 
ATOM      5  H2  UNL     1      63.357  -0.528  69.797  1.00  0.00     0.186 HD
BRANCH   4   6
HETATM    6  C3  UNL     1      63.555  -2.382  69.142  1.00  0.00     0.700 A 
HETATM    7  N1  UNL     1      64.192  -3.075  70.101  1.00  0.00    -0.169 N 
HETATM    8  C2  UNL     1      64.952  -4.171  69.803  1.00  0.00     0.176 A 
ATOM      9  H1  UNL     1      64.106  -2.777  71.073  1.00  0.00     0.186 HD
HETATM   10  N13 UNL     1      65.078  -4.578  68.527  1.00  0.00    -0.166 N 
HETATM   11  C17 UNL     1      64.442  -3.886  67.563  1.00  0.00     0.694 A 
HETATM   12  C18 UNL     1      65.892  -5.747  68.231  1.00  0.00     0.177 C 
HETATM   13  N11 UNL     1      63.692  -2.803  67.870  1.00  0.00    -0.022 N 
ATOM     14  H11 UNL     1      63.220  -2.294  67.123  1.00  0.00     0.203 HD
BRANCH   8  15
HETATM   15  S1  UNL     1      65.797  -5.093  71.070  1.00  0.00    -0.097 SA
HETATM   16  C1  UNL     1      67.184  -4.136  71.760  1.00  0.00     0.099 C 
ENDBRANCH   8  15
BRANCH  11  17
HETATM   17  N12 UNL     1      64.565  -4.280  66.340  1.00  0.00    -0.234 N 
ATOM     18 2H12 UNL     1      64.124  -3.728  65.605  1.00  0.00     0.174 HD
ATOM     19 1H12 UNL     1      65.092  -5.123  66.113  1.00  0.00     0.174 HD
ENDBRANCH  11  17
ENDBRANCH   4   6
ENDBRANCH   1   4
BRANCH   1  20
HETATM   20  C9  UNL     1      60.802  -0.509  68.456  1.00  0.00     0.013 A 
HETATM   21  C10 UNL     1      60.412   0.785  68.835  1.00  0.00     0.018 A 
HETATM   22  C11 UNL     1      59.799   1.611  67.913  1.00  0.00     0.040 A 
HETATM   23  C12 UNL     1      59.546   1.223  66.622  1.00  0.00     0.102 A 
HETATM   24  C15 UNL     1      59.949  -0.067  66.295  1.00  0.00     0.100 A 
HETATM   25  C16 UNL     1      60.560  -0.908  67.189  1.00  0.00     0.054 A 
BRANCH  23  26
HETATM   26  O3  UNL     1      58.941   2.058  65.728  1.00  0.00    -0.341 OA
BRANCH  26  27
HETATM   27  C13 UNL     1      59.375   3.232  65.162  1.00  0.00     0.255 C 
BRANCH  27  28
HETATM   28  C14 UNL     1      59.727   3.038  63.744  1.00  0.00     0.137 A 
HETATM   29  N7  UNL     1      59.538   3.943  62.779  1.00  0.00    -0.270 N 
HETATM   30  N8  UNL     1      59.968   3.424  61.650  1.00  0.00    -0.227 N 
ATOM     31  H7  UNL     1      59.133   4.872  62.897  1.00  0.00     0.190 HD
HETATM   32  N9  UNL     1      60.423   2.208  61.893  1.00  0.00    -0.227 N 
ATOM     33  H8  UNL     1      59.952   3.883  60.739  1.00  0.00     0.210 HD
HETATM   34  N10 UNL     1      60.290   1.936  63.173  1.00  0.00    -0.270 N 
ATOM     35  H9  UNL     1      60.816   1.576  61.195  1.00  0.00     0.210 HD
ATOM     36  H10 UNL     1      60.556   1.072  63.646  1.00  0.00     0.190 HD
ENDBRANCH  27  28
ENDBRANCH  26  27
ENDBRANCH  23  26
BRANCH  24  37
HETATM   37  O4  UNL     1      59.687  -0.457  64.971  1.00  0.00    -0.358 OA
ATOM     38  H4  UNL     1      59.684  -1.395  64.820  1.00  0.00     0.217 HD
ENDBRANCH  24  37
ENDBRANCH   1  20
BRANCH   2  39
HETATM   39  N4  UNL     1      59.449  -2.089  70.539  1.00  0.00    -0.308 N 
HETATM   40  C5  UNL     1      58.795  -1.981  71.619  1.00  0.00     0.141 C 
ATOM     41  H4  UNL     1      58.893  -2.303  69.711  1.00  0.00     0.186 HD
BRANCH  40  42
HETATM   42  C6  UNL     1      57.345  -2.167  71.588  1.00  0.00     0.104 A 
HETATM   43  N5  UNL     1      56.640  -2.733  70.581  1.00  0.00    -0.304 N 
HETATM   44  C7  UNL     1      55.329  -2.746  70.876  1.00  0.00     0.326 A 
ATOM     45  H5  UNL     1      57.046  -3.098  69.720  1.00  0.00     0.171 HD
HETATM   46  O1  UNL     1      54.427  -3.209  70.133  1.00  0.00    -0.247 OA
HETATM   47  N6  UNL     1      55.204  -2.177  72.095  1.00  0.00    -0.287 N 
HETATM   48  C8  UNL     1      56.412  -1.824  72.532  1.00  0.00     0.173 A 
ATOM     49  H6  UNL     1      54.328  -2.039  72.599  1.00  0.00     0.172 HD
BRANCH  48  50
HETATM   50  O2  UNL     1      56.689  -1.211  73.743  1.00  0.00    -0.344 OA
ATOM     51  H2  UNL     1      56.971  -0.310  73.849  1.00  0.00     0.219 HD
ENDBRANCH  48  50
ENDBRANCH  40  42
ENDBRANCH   2  39
TORSDOF 12
ENDMDL
MODEL 4
REMARK VINA RESULT: -9.512041034      1.175      1.985
REMARK  12 active torsions:
REMARK  status: ('A' for Active; 'I' for Inactive)
REMARK    1  A    between atoms: S1_2  and  C2_3 
REMARK    2  A    between atoms: C3_6  and  N2_7 
REMARK    3  A    between atoms: N2_7  and  C4_9 
REMARK    4  A    between atoms: C4_9  and  C9_25 
REMARK    5  A    between atoms: N3_10  and  N4_12 
REMARK    6  A    between atoms: C5_14  and  C6_15 
REMARK    7  A    between atoms: C8_22  and  O2_23 
REMARK    8  A    between atoms: C12_28  and  O3_29 
REMARK    9  A    between atoms: O3_29  and  C13_30 
REMARK   10  A    between atoms: C13_30  and  C14_31 
REMARK   11  A    between atoms: C15_40  and  O4_41 
REMARK   12  A    between atoms: C17_46  and  N12_47 
ROOT
HETATM    1  C4  UNL     1      61.257  -1.086  69.917  1.00  0.00     0.145 C 
HETATM    2  N3  UNL     1      60.522  -1.773  70.674  1.00  0.00    -0.285 N 
ATOM      3  H3  UNL     1      60.962  -2.018  71.561  1.00  0.00     0.188 HD
ENDROOT
BRANCH   1   4
HETATM    4  N2  UNL     1      62.555  -0.726  70.323  1.00  0.00    -0.174 N 
ATOM      5  H2  UNL     1      62.746   0.264  70.474  1.00  0.00     0.186 HD
BRANCH   4   6
HETATM    6  C3  UNL     1      63.517  -1.555  70.515  1.00  0.00     0.700 A 
HETATM    7  N1  UNL     1      64.330  -1.355  71.567  1.00  0.00    -0.169 N 
HETATM    8  C2  UNL     1      65.372  -2.197  71.832  1.00  0.00     0.176 A 
ATOM      9  H1  UNL     1      64.164  -0.557  72.180  1.00  0.00     0.186 HD
HETATM   10  N13 UNL     1      65.606  -3.254  71.033  1.00  0.00    -0.166 N 
HETATM   11  C17 UNL     1      64.795  -3.458  69.978  1.00  0.00     0.694 A 
HETATM   12  C18 UNL     1      66.722  -4.138  71.333  1.00  0.00     0.177 C 
HETATM   13  N11 UNL     1      63.766  -2.617  69.726  1.00  0.00    -0.022 N 
ATOM     14  H11 UNL     1      63.164  -2.792  68.921  1.00  0.00     0.203 HD
BRANCH   8  15
HETATM   15  S1  UNL     1      66.451  -1.937  73.224  1.00  0.00    -0.097 SA
HETATM   16  C1  UNL     1      67.724  -0.692  72.841  1.00  0.00     0.099 C 
ENDBRANCH   8  15
BRANCH  11  17
HETATM   17  N12 UNL     1      65.023  -4.473  69.215  1.00  0.00    -0.234 N 
ATOM     18 2H12 UNL     1      64.380  -4.655  68.444  1.00  0.00     0.174 HD
ATOM     19 1H12 UNL     1      65.827  -5.079  69.376  1.00  0.00     0.174 HD
ENDBRANCH  11  17
ENDBRANCH   4   6
ENDBRANCH   1   4
BRANCH   1  20
HETATM   20  C9  UNL     1      60.803  -0.657  68.606  1.00  0.00     0.013 A 
HETATM   21  C10 UNL     1      60.291   0.647  68.520  1.00  0.00     0.018 A 
HETATM   22  C11 UNL     1      59.851   1.129  67.302  1.00  0.00     0.040 A 
HETATM   23  C12 UNL     1      59.890   0.383  66.152  1.00  0.00     0.102 A 
HETATM   24  C15 UNL     1      60.405  -0.901  66.288  1.00  0.00     0.100 A 
HETATM   25  C16 UNL     1      60.849  -1.405  67.483  1.00  0.00     0.054 A 
BRANCH  23  26
HETATM   26  O3  UNL     1      59.452   0.882  64.959  1.00  0.00    -0.341 OA
BRANCH  26  27
HETATM   27  C13 UNL     1      60.088   1.667  64.028  1.00  0.00     0.255 C 
BRANCH  27  28
HETATM   28  C14 UNL     1      59.599   3.057  64.084  1.00  0.00     0.137 A 
HETATM   29  N7  UNL     1      58.857   3.566  65.071  1.00  0.00    -0.270 N 
HETATM   30  N8  UNL     1      58.611   4.826  64.782  1.00  0.00    -0.227 N 
ATOM     31  H7  UNL     1      58.537   3.068  65.902  1.00  0.00     0.190 HD
HETATM   32  N9  UNL     1      59.188   5.112  63.629  1.00  0.00    -0.227 N 
ATOM     33  H8  UNL     1      58.067   5.473  65.352  1.00  0.00     0.210 HD
HETATM   34  N10 UNL     1      59.806   4.045  63.169  1.00  0.00    -0.270 N 
ATOM     35  H9  UNL     1      59.160   6.020  63.165  1.00  0.00     0.210 HD
ATOM     36  H10 UNL     1      60.336   3.972  62.300  1.00  0.00     0.190 HD
ENDBRANCH  27  28
ENDBRANCH  26  27
ENDBRANCH  23  26
BRANCH  24  37
HETATM   37  O4  UNL     1      60.442  -1.658  65.105  1.00  0.00    -0.358 OA
ATOM     38  H4  UNL     1      59.811  -2.367  65.060  1.00  0.00     0.217 HD
ENDBRANCH  24  37
ENDBRANCH   1  20
BRANCH   2  39
HETATM   39  N4  UNL     1      59.258  -2.250  70.538  1.00  0.00    -0.308 N 
HETATM   40  C5  UNL     1      58.236  -2.033  71.257  1.00  0.00     0.141 C 
ATOM     41  H4  UNL     1      59.109  -2.873  69.744  1.00  0.00     0.186 HD
BRANCH  40  42
HETATM   42  C6  UNL     1      56.972  -2.672  70.898  1.00  0.00     0.104 A 
HETATM   43  N5  UNL     1      55.748  -2.321  71.357  1.00  0.00    -0.304 N 
HETATM   44  C7  UNL     1      54.802  -3.115  70.826  1.00  0.00     0.326 A 
ATOM     45  H5  UNL     1      55.569  -1.562  72.013  1.00  0.00     0.171 HD
HETATM   46  O1  UNL     1      53.572  -3.029  71.064  1.00  0.00    -0.247 OA
HETATM   47  N6  UNL     1      55.443  -3.985  70.014  1.00  0.00    -0.287 N 
HETATM   48  C8  UNL     1      56.749  -3.727  70.051  1.00  0.00     0.173 A 
ATOM     49  H6  UNL     1      54.999  -4.720  69.463  1.00  0.00     0.172 HD
BRANCH  48  50
HETATM   50  O2  UNL     1      57.730  -4.409  69.349  1.00  0.00    -0.344 OA
ATOM     51  H2  UNL     1      57.764  -4.499  68.404  1.00  0.00     0.219 HD
ENDBRANCH  48  50
ENDBRANCH  40  42
ENDBRANCH   2  39
TORSDOF 12
ENDMDL
MODEL 5
REMARK VINA RESULT: -9.442084301      1.357      2.231
REMARK  12 active torsions:
REMARK  status: ('A' for Active; 'I' for Inactive)
REMARK    1  A    between atoms: S1_2  and  C2_3 
REMARK    2  A    between atoms: C3_6  and  N2_7 
REMARK    3  A    between atoms: N2_7  and  C4_9 
REMARK    4  A    between atoms: C4_9  and  C9_25 
REMARK    5  A    between atoms: N3_10  and  N4_12 
REMARK    6  A    between atoms: C5_14  and  C6_15 
REMARK    7  A    between atoms: C8_22  and  O2_23 
REMARK    8  A    between atoms: C12_28  and  O3_29 
REMARK    9  A    between atoms: O3_29  and  C13_30 
REMARK   10  A    between atoms: C13_30  and  C14_31 
REMARK   11  A    between atoms: C15_40  and  O4_41 
REMARK   12  A    between atoms: C17_46  and  N12_47 
ROOT
HETATM    1  C4  UNL     1      61.201  -1.094  70.042  1.00  0.00     0.145 C 
HETATM    2  N3  UNL     1      60.525  -1.930  70.697  1.00  0.00    -0.285 N 
ATOM      3  H3  UNL     1      61.033  -2.351  71.474  1.00  0.00     0.188 HD
ENDROOT
BRANCH   1   4
HETATM    4  N2  UNL     1      62.530  -0.815  70.408  1.00  0.00    -0.174 N 
ATOM      5  H2  UNL     1      62.785   0.161  70.557  1.00  0.00     0.186 HD
BRANCH   4   6
HETATM    6  C3  UNL     1      63.446  -1.701  70.566  1.00  0.00     0.700 A 
HETATM    7  N1  UNL     1      64.008  -1.827  71.781  1.00  0.00    -0.169 N 
HETATM    8  C2  UNL     1      64.987  -2.749  72.021  1.00  0.00     0.176 A 
ATOM      9  H1  UNL     1      63.696  -1.222  72.540  1.00  0.00     0.186 HD
HETATM   10  N13 UNL     1      65.412  -3.556  71.032  1.00  0.00    -0.166 N 
HETATM   11  C17 UNL     1      64.854  -3.432  69.813  1.00  0.00     0.694 A 
HETATM   12  C18 UNL     1      66.456  -4.530  71.309  1.00  0.00     0.177 C 
HETATM   13  N11 UNL     1      63.884  -2.516  69.588  1.00  0.00    -0.022 N 
ATOM     14  H11 UNL     1      63.475  -2.441  68.656  1.00  0.00     0.203 HD
BRANCH   8  15
HETATM   15  S1  UNL     1      65.733  -2.921  73.629  1.00  0.00    -0.097 SA
HETATM   16  C1  UNL     1      67.164  -1.809  73.807  1.00  0.00     0.099 C 
ENDBRANCH   8  15
BRANCH  11  17
HETATM   17  N12 UNL     1      65.264  -4.208  68.867  1.00  0.00    -0.234 N 
ATOM     18 2H12 UNL     1      66.263  -4.401  68.795  1.00  0.00     0.174 HD
ATOM     19 1H12 UNL     1      64.605  -4.619  68.206  1.00  0.00     0.174 HD
ENDBRANCH  11  17
ENDBRANCH   4   6
ENDBRANCH   1   4
BRANCH   1  20
HETATM   20  C9  UNL     1      60.646  -0.405  68.892  1.00  0.00     0.013 A 
HETATM   21  C10 UNL     1      59.818   0.696  69.164  1.00  0.00     0.018 A 
HETATM   22  C11 UNL     1      59.263   1.408  68.118  1.00  0.00     0.040 A 
HETATM   23  C12 UNL     1      59.484   1.088  66.803  1.00  0.00     0.102 A 
HETATM   24  C15 UNL     1      60.309  -0.010  66.585  1.00  0.00     0.100 A 
HETATM   25  C16 UNL     1      60.873  -0.734  67.603  1.00  0.00     0.054 A 
BRANCH  23  26
HETATM   26  O3  UNL     1      58.926   1.809  65.786  1.00  0.00    -0.341 OA
BRANCH  26  27
HETATM   27  C13 UNL     1      59.229   3.059  65.303  1.00  0.00     0.255 C 
BRANCH  27  28
HETATM   28  C14 UNL     1      59.652   2.992  63.893  1.00  0.00     0.137 A 
HETATM   29  N7  UNL     1      60.318   1.973  63.342  1.00  0.00    -0.270 N 
HETATM   30  N8  UNL     1      60.523   2.263  62.076  1.00  0.00    -0.227 N 
ATOM     31  H7  UNL     1      60.614   1.121  63.818  1.00  0.00     0.190 HD
HETATM   32  N9  UNL     1      59.996   3.448  61.825  1.00  0.00    -0.227 N 
ATOM     33  H8  UNL     1      61.007   1.672  61.400  1.00  0.00     0.210 HD
HETATM   34  N10 UNL     1      59.450   3.928  62.923  1.00  0.00    -0.270 N 
ATOM     35  H9  UNL     1      60.009   3.920  60.921  1.00  0.00     0.210 HD
ATOM     36  H10 UNL     1      58.971   4.823  63.027  1.00  0.00     0.190 HD
ENDBRANCH  27  28
ENDBRANCH  26  27
ENDBRANCH  23  26
BRANCH  24  37
HETATM   37  O4  UNL     1      60.531  -0.331  65.235  1.00  0.00    -0.358 OA
ATOM     38  H4  UNL     1      60.370  -1.238  65.005  1.00  0.00     0.217 HD
ENDBRANCH  24  37
ENDBRANCH   1  20
BRANCH   2  39
HETATM   39  N4  UNL     1      59.250  -2.380  70.568  1.00  0.00    -0.308 N 
HETATM   40  C5  UNL     1      58.234  -2.129  71.284  1.00  0.00     0.141 C 
ATOM     41  H4  UNL     1      59.086  -3.010  69.783  1.00  0.00     0.186 HD
BRANCH  40  42
HETATM   42  C6  UNL     1      56.955  -2.744  70.934  1.00  0.00     0.104 A 
HETATM   43  N5  UNL     1      55.742  -2.374  71.406  1.00  0.00    -0.304 N 
HETATM   44  C7  UNL     1      54.777  -3.148  70.881  1.00  0.00     0.326 A 
ATOM     45  H5  UNL     1      55.583  -1.614  72.067  1.00  0.00     0.171 HD
HETATM   46  O1  UNL     1      53.551  -3.041  71.131  1.00  0.00    -0.247 OA
HETATM   47  N6  UNL     1      55.394  -4.026  70.058  1.00  0.00    -0.287 N 
HETATM   48  C8  UNL     1      56.705  -3.791  70.084  1.00  0.00     0.173 A 
ATOM     49  H6  UNL     1      54.932  -4.749  69.508  1.00  0.00     0.172 HD
BRANCH  48  50
HETATM   50  O2  UNL     1      57.667  -4.487  69.370  1.00  0.00    -0.344 OA
ATOM     51  H2  UNL     1      58.568  -4.615  69.645  1.00  0.00     0.219 HD
ENDBRANCH  48  50
ENDBRANCH  40  42
ENDBRANCH   2  39
TORSDOF 12
ENDMDL
