MODEL 1
REMARK VINA RESULT: -7.851759752      0.000      0.000
REMARK  2 active torsions:
REMARK  status: ('A' for Active; 'I' for Inactive)
REMARK    1  A    between atoms: C6_7  and  O1_8 
REMARK    2  A    between atoms: O1_8  and  O2_9 
ROOT
HETATM    1  C1  UNL     1      28.527  35.669  41.651  1.00  0.00     0.010 C 
HETATM    2  C2  UNL     1      28.626  34.988  40.310  1.00  0.00    -0.013 C 
HETATM    3  C3  UNL     1      30.072  35.046  39.879  1.00  0.00     0.029 C 
HETATM    4  C4  UNL     1      30.111  34.857  38.395  1.00  0.00     0.159 C 
HETATM    5  C5  UNL     1      31.477  34.514  37.973  1.00  0.00     0.069 C 
HETATM    6  N1  UNL     1      32.568  34.245  37.654  1.00  0.00    -0.197 NA
HETATM    7  C6  UNL     1      29.726  36.176  37.693  1.00  0.00     0.221 C 
HETATM    8  O3  UNL     1      30.827  36.926  37.726  1.00  0.00    -0.341 OA
HETATM    9  C7  UNL     1      30.972  38.119  37.189  1.00  0.00     0.058 C 
HETATM   10  C8  UNL     1      30.845  39.241  38.230  1.00  0.00     0.045 C 
HETATM   11  C9  UNL     1      32.482  38.200  36.833  1.00  0.00     0.045 C 
HETATM   12  C10 UNL     1      30.248  38.535  35.988  1.00  0.00     0.041 C 
HETATM   13  C11 UNL     1      28.923  39.234  36.186  1.00  0.00     0.030 C 
HETATM   14  C12 UNL     1      27.842  38.372  36.674  1.00  0.00    -0.030 C 
HETATM   15  C13 UNL     1      27.667  37.400  37.557  1.00  0.00    -0.020 C 
HETATM   16  C14 UNL     1      28.565  36.723  38.496  1.00  0.00     0.079 C 
HETATM   17  C15 UNL     1      27.792  35.675  39.250  1.00  0.00    -0.002 C 
HETATM   18  C16 UNL     1      26.614  36.412  39.905  1.00  0.00     0.011 C 
ENDROOT
BRANCH   7  19
HETATM   19  O1  UNL     1      29.324  35.775  36.407  1.00  0.00    -0.201 OA
BRANCH  19  20
HETATM   20  O2  UNL     1      30.296  35.491  35.610  1.00  0.00    -0.247 OA
ATOM     21  H2  UNL     1      31.074  36.022  35.733  1.00  0.00     0.253 HD
ENDBRANCH  19  20
ENDBRANCH   7  19
TORSDOF 2
ENDMDL
MODEL 2
REMARK VINA RESULT: -7.610538714      1.939      3.894
REMARK  2 active torsions:
REMARK  status: ('A' for Active; 'I' for Inactive)
REMARK    1  A    between atoms: C6_7  and  O1_8 
REMARK    2  A    between atoms: O1_8  and  O2_9 
ROOT
HETATM    1  C1  UNL     1      34.525  35.523  39.194  1.00  0.00     0.010 C 
HETATM    2  C2  UNL     1      33.861  35.113  37.905  1.00  0.00    -0.013 C 
HETATM    3  C3  UNL     1      33.580  36.372  37.120  1.00  0.00     0.029 C 
HETATM    4  C4  UNL     1      32.504  36.058  36.128  1.00  0.00     0.159 C 
HETATM    5  C5  UNL     1      32.464  37.102  35.092  1.00  0.00     0.069 C 
HETATM    6  N1  UNL     1      32.442  37.941  34.280  1.00  0.00    -0.197 NA
HETATM    7  C6  UNL     1      31.132  36.049  36.832  1.00  0.00     0.221 C 
HETATM    8  O3  UNL     1      30.789  37.332  36.948  1.00  0.00    -0.341 OA
HETATM    9  C7  UNL     1      29.659  37.793  37.443  1.00  0.00     0.058 C 
HETATM   10  C8  UNL     1      29.819  38.279  38.892  1.00  0.00     0.045 C 
HETATM   11  C9  UNL     1      29.429  39.134  36.693  1.00  0.00     0.045 C 
HETATM   12  C10 UNL     1      28.400  37.054  37.352  1.00  0.00     0.041 C 
HETATM   13  C11 UNL     1      28.053  36.134  38.500  1.00  0.00     0.030 C 
HETATM   14  C12 UNL     1      28.883  34.929  38.591  1.00  0.00    -0.030 C 
HETATM   15  C13 UNL     1      30.156  34.585  38.464  1.00  0.00    -0.020 C 
HETATM   16  C14 UNL     1      31.372  35.339  38.148  1.00  0.00     0.079 C 
HETATM   17  C15 UNL     1      32.546  34.398  38.132  1.00  0.00    -0.002 C 
HETATM   18  C16 UNL     1      32.553  33.713  39.508  1.00  0.00     0.011 C 
ENDROOT
BRANCH   7  19
HETATM   19  O1  UNL     1      30.312  35.295  35.977  1.00  0.00    -0.201 OA
BRANCH  19  20
HETATM   20  O2  UNL     1      29.891  35.934  34.941  1.00  0.00    -0.247 OA
ATOM     21  H2  UNL     1      30.101  35.521  34.112  1.00  0.00     0.253 HD
ENDBRANCH  19  20
ENDBRANCH   7  19
TORSDOF 2
ENDMDL
MODEL 3
REMARK VINA RESULT: -7.573764321      1.327      1.469
REMARK  2 active torsions:
REMARK  status: ('A' for Active; 'I' for Inactive)
REMARK    1  A    between atoms: C6_7  and  O1_8 
REMARK    2  A    between atoms: O1_8  and  O2_9 
ROOT
HETATM    1  C1  UNL     1      27.918  36.292  41.049  1.00  0.00     0.010 C 
HETATM    2  C2  UNL     1      28.498  35.203  40.183  1.00  0.00    -0.013 C 
HETATM    3  C3  UNL     1      30.002  35.289  40.295  1.00  0.00     0.029 C 
HETATM    4  C4  UNL     1      30.587  34.600  39.102  1.00  0.00     0.159 C 
HETATM    5  C5  UNL     1      32.007  34.307  39.345  1.00  0.00     0.069 C 
HETATM    6  N1  UNL     1      33.135  34.085  39.551  1.00  0.00    -0.197 NA
HETATM    7  C6  UNL     1      30.507  35.530  37.874  1.00  0.00     0.221 C 
HETATM    8  O3  UNL     1      31.527  36.377  38.008  1.00  0.00    -0.341 OA
HETATM    9  C7  UNL     1      31.876  37.316  37.153  1.00  0.00     0.058 C 
HETATM   10  C8  UNL     1      31.386  38.706  37.588  1.00  0.00     0.045 C 
HETATM   11  C9  UNL     1      33.411  37.458  37.345  1.00  0.00     0.045 C 
HETATM   12  C10 UNL     1      31.655  37.190  35.713  1.00  0.00     0.041 C 
HETATM   13  C11 UNL     1      30.361  37.740  35.161  1.00  0.00     0.030 C 
HETATM   14  C12 UNL     1      29.165  36.974  35.524  1.00  0.00    -0.030 C 
HETATM   15  C13 UNL     1      28.662  36.358  36.583  1.00  0.00    -0.020 C 
HETATM   16  C14 UNL     1      29.138  36.172  37.956  1.00  0.00     0.079 C 
HETATM   17  C15 UNL     1      28.127  35.364  38.724  1.00  0.00    -0.002 C 
HETATM   18  C16 UNL     1      26.800  36.129  38.603  1.00  0.00     0.011 C 
ENDROOT
BRANCH   7  19
HETATM   19  O1  UNL     1      30.606  34.658  36.777  1.00  0.00    -0.201 OA
BRANCH  19  20
HETATM   20  O2  UNL     1      31.755  34.088  36.652  1.00  0.00    -0.247 OA
ATOM     21  H2  UNL     1      32.039  33.970  35.753  1.00  0.00     0.253 HD
ENDBRANCH  19  20
ENDBRANCH   7  19
TORSDOF 2
ENDMDL
MODEL 4
REMARK VINA RESULT: -6.581005598      1.663      2.594
REMARK  2 active torsions:
REMARK  status: ('A' for Active; 'I' for Inactive)
REMARK    1  A    between atoms: C6_7  and  O1_8 
REMARK    2  A    between atoms: O1_8  and  O2_9 
ROOT
HETATM    1  C1  UNL     1      32.132  33.960  39.717  1.00  0.00     0.010 C 
HETATM    2  C2  UNL     1      31.713  33.912  38.270  1.00  0.00    -0.013 C 
HETATM    3  C3  UNL     1      32.424  35.035  37.556  1.00  0.00     0.029 C 
HETATM    4  C4  UNL     1      31.666  35.326  36.298  1.00  0.00     0.159 C 
HETATM    5  C5  UNL     1      32.505  36.116  35.384  1.00  0.00     0.069 C 
HETATM    6  N1  UNL     1      33.182  36.746  34.670  1.00  0.00    -0.197 NA
HETATM    7  C6  UNL     1      30.417  36.169  36.628  1.00  0.00     0.221 C 
HETATM    8  O3  UNL     1      30.862  37.417  36.766  1.00  0.00    -0.341 OA
HETATM    9  C7  UNL     1      30.126  38.485  36.997  1.00  0.00     0.058 C 
HETATM   10  C8  UNL     1      30.157  38.899  38.476  1.00  0.00     0.045 C 
HETATM   11  C9  UNL     1      30.916  39.647  36.335  1.00  0.00     0.045 C 
HETATM   12  C10 UNL     1      28.748  38.607  36.523  1.00  0.00     0.041 C 
HETATM   13  C11 UNL     1      27.652  38.151  37.459  1.00  0.00     0.030 C 
HETATM   14  C12 UNL     1      27.574  36.700  37.650  1.00  0.00    -0.030 C 
HETATM   15  C13 UNL     1      28.395  35.674  37.820  1.00  0.00    -0.020 C 
HETATM   16  C14 UNL     1      29.853  35.557  37.892  1.00  0.00     0.079 C 
HETATM   17  C15 UNL     1      30.223  34.111  38.092  1.00  0.00    -0.002 C 
HETATM   18  C16 UNL     1      29.478  33.659  39.357  1.00  0.00     0.011 C 
ENDROOT
BRANCH   7  19
HETATM   19  O1  UNL     1      29.566  35.965  35.529  1.00  0.00    -0.201 OA
BRANCH  19  20
HETATM   20  O2  UNL     1      29.878  36.645  34.480  1.00  0.00    -0.247 OA
ATOM     21  H2  UNL     1      29.204  37.246  34.186  1.00  0.00     0.253 HD
ENDBRANCH  19  20
ENDBRANCH   7  19
TORSDOF 2
ENDMDL
MODEL 5
REMARK VINA RESULT: -6.389396709      1.902      4.350
REMARK  2 active torsions:
REMARK  status: ('A' for Active; 'I' for Inactive)
REMARK    1  A    between atoms: C6_7  and  O1_8 
REMARK    2  A    between atoms: O1_8  and  O2_9 
ROOT
HETATM    1  C1  UNL     1      29.849  39.978  37.913  1.00  0.00     0.010 C 
HETATM    2  C2  UNL     1      29.472  38.703  37.203  1.00  0.00    -0.013 C 
HETATM    3  C3  UNL     1      29.477  37.596  38.229  1.00  0.00     0.029 C 
HETATM    4  C4  UNL     1      29.615  36.298  37.496  1.00  0.00     0.159 C 
HETATM    5  C5  UNL     1      29.237  35.185  38.381  1.00  0.00     0.069 C 
HETATM    6  N1  UNL     1      28.937  34.312  39.096  1.00  0.00    -0.197 NA
HETATM    7  C6  UNL     1      31.087  36.086  37.086  1.00  0.00     0.221 C 
HETATM    8  O3  UNL     1      31.697  35.644  38.184  1.00  0.00    -0.341 OA
HETATM    9  C7  UNL     1      32.959  35.278  38.280  1.00  0.00     0.058 C 
HETATM   10  C8  UNL     1      33.833  36.376  38.905  1.00  0.00     0.045 C 
HETATM   11  C9  UNL     1      32.964  34.204  39.403  1.00  0.00     0.045 C 
HETATM   12  C10 UNL     1      33.697  34.699  37.158  1.00  0.00     0.041 C 
HETATM   13  C11 UNL     1      34.465  35.650  36.269  1.00  0.00     0.030 C 
HETATM   14  C12 UNL     1      33.629  36.506  35.422  1.00  0.00    -0.030 C 
HETATM   15  C13 UNL     1      32.511  37.209  35.514  1.00  0.00    -0.020 C 
HETATM   16  C14 UNL     1      31.558  37.441  36.604  1.00  0.00     0.079 C 
HETATM   17  C15 UNL     1      30.453  38.337  36.110  1.00  0.00    -0.002 C 
HETATM   18  C16 UNL     1      31.143  39.602  35.579  1.00  0.00     0.011 C 
ENDROOT
BRANCH   7  19
HETATM   19  O1  UNL     1      31.019  35.156  36.035  1.00  0.00    -0.201 OA
BRANCH  19  20
HETATM   20  O2  UNL     1      30.002  35.303  35.258  1.00  0.00    -0.247 OA
ATOM     21  H2  UNL     1      30.171  35.098  34.346  1.00  0.00     0.253 HD
ENDBRANCH  19  20
ENDBRANCH   7  19
TORSDOF 2
ENDMDL
