MODEL 1
REMARK VINA RESULT: -7.170557058      0.000      0.000
REMARK  1 active torsions:
REMARK  status: ('A' for Active; 'I' for Inactive)
REMARK    1  A    between atoms: C4_8  and  C5_9 
ROOT
HETATM    1  C5  UNL     1      30.195  35.943  38.132  1.00  0.00     0.135 A 
HETATM    2  N2  UNL     1      28.902  36.126  37.729  1.00  0.00    -0.334 N 
ATOM      3  H2  UNL     1      28.589  36.419  36.804  1.00  0.00     0.168 HD
HETATM    4  C6  UNL     1      28.133  35.846  38.776  1.00  0.00     0.094 A 
HETATM    5  C7  UNL     1      28.911  35.484  39.851  1.00  0.00     0.044 A 
HETATM    6  N3  UNL     1      30.190  35.564  39.386  1.00  0.00    -0.342 N 
ATOM      7  H3  UNL     1      31.024  35.357  39.937  1.00  0.00     0.167 HD
HETATM    8  C8  UNL     1      28.233  35.138  41.106  1.00  0.00     0.061 C 
HETATM    9  C9  UNL     1      27.348  36.229  41.634  1.00  0.00     0.021 C 
HETATM   10  C10 UNL     1      26.145  36.493  40.770  1.00  0.00     0.050 C 
HETATM   11  C11 UNL     1      24.898  35.849  41.354  1.00  0.00     0.021 C 
HETATM   12  S3  UNL     1      26.353  35.835  39.094  1.00  0.00    -0.106 SA
ENDROOT
BRANCH   1  13
HETATM   13  C4  UNL     1      31.341  36.173  37.186  1.00  0.00     0.091 A 
HETATM   14  C2  UNL     1      31.157  36.818  35.995  1.00  0.00     0.012 A 
HETATM   15  C1  UNL     1      29.943  37.418  35.336  1.00  0.00     0.059 C 
HETATM   16  S1  UNL     1      32.762  36.807  35.324  1.00  0.00    -0.063 SA
HETATM   17  C3  UNL     1      33.532  35.997  36.588  1.00  0.00     0.143 A 
HETATM   18  S2  UNL     1      35.128  35.578  36.723  1.00  0.00    -0.052 SA
HETATM   19  N1  UNL     1      32.562  35.768  37.458  1.00  0.00    -0.338 N 
ATOM     20  H1  UNL     1      32.760  35.281  38.332  1.00  0.00     0.167 HD
ENDBRANCH   1  13
TORSDOF 1
ENDMDL
MODEL 2
REMARK VINA RESULT: -7.141225134      1.219      1.765
REMARK  1 active torsions:
REMARK  status: ('A' for Active; 'I' for Inactive)
REMARK    1  A    between atoms: C4_8  and  C5_9 
ROOT
HETATM    1  C5  UNL     1      30.339  36.499  37.989  1.00  0.00     0.135 A 
HETATM    2  N2  UNL     1      30.125  36.218  39.309  1.00  0.00    -0.334 N 
ATOM      3  H2  UNL     1      30.823  35.912  39.987  1.00  0.00     0.168 HD
HETATM    4  C6  UNL     1      28.832  36.422  39.538  1.00  0.00     0.094 A 
HETATM    5  C7  UNL     1      28.207  36.831  38.384  1.00  0.00     0.044 A 
HETATM    6  N3  UNL     1      29.200  36.860  37.452  1.00  0.00    -0.342 N 
ATOM      7  H3  UNL     1      29.074  37.126  36.475  1.00  0.00     0.167 HD
HETATM    8  C8  UNL     1      26.765  37.106  38.442  1.00  0.00     0.061 C 
HETATM    9  C9  UNL     1      25.948  35.941  38.919  1.00  0.00     0.021 C 
HETATM   10  C10 UNL     1      26.190  35.593  40.363  1.00  0.00     0.050 C 
HETATM   11  C11 UNL     1      25.078  36.127  41.250  1.00  0.00     0.021 C 
HETATM   12  S3  UNL     1      27.748  36.286  40.979  1.00  0.00    -0.106 SA
ENDROOT
BRANCH   1  13
HETATM   13  C4  UNL     1      31.709  36.373  37.382  1.00  0.00     0.091 A 
HETATM   14  C2  UNL     1      31.959  36.792  36.105  1.00  0.00     0.012 A 
HETATM   15  C1  UNL     1      31.089  37.418  35.048  1.00  0.00     0.059 C 
HETATM   16  S1  UNL     1      33.649  36.421  35.926  1.00  0.00    -0.063 SA
HETATM   17  C3  UNL     1      33.904  35.773  37.463  1.00  0.00     0.143 A 
HETATM   18  S2  UNL     1      35.305  35.166  38.105  1.00  0.00    -0.052 SA
HETATM   19  N1  UNL     1      32.721  35.860  38.046  1.00  0.00    -0.338 N 
ATOM     20  H1  UNL     1      32.595  35.531  39.004  1.00  0.00     0.167 HD
ENDBRANCH   1  13
TORSDOF 1
ENDMDL
MODEL 3
REMARK VINA RESULT: -7.120096100      1.256      2.052
REMARK  1 active torsions:
REMARK  status: ('A' for Active; 'I' for Inactive)
REMARK    1  A    between atoms: C4_8  and  C5_9 
ROOT
HETATM    1  C5  UNL     1      29.994  35.573  38.761  1.00  0.00     0.135 A 
HETATM    2  N2  UNL     1      28.757  35.852  38.250  1.00  0.00    -0.334 N 
ATOM      3  H2  UNL     1      28.544  36.142  37.296  1.00  0.00     0.168 HD
HETATM    4  C6  UNL     1      27.886  35.671  39.238  1.00  0.00     0.094 A 
HETATM    5  C7  UNL     1      28.544  35.279  40.380  1.00  0.00     0.044 A 
HETATM    6  N3  UNL     1      29.857  35.236  40.019  1.00  0.00    -0.342 N 
ATOM      7  H3  UNL     1      30.624  34.977  40.640  1.00  0.00     0.167 HD
HETATM    8  C8  UNL     1      27.741  35.030  41.585  1.00  0.00     0.061 C 
HETATM    9  C9  UNL     1      26.916  36.208  42.013  1.00  0.00     0.021 C 
HETATM   10  C10 UNL     1      25.811  36.545  41.048  1.00  0.00     0.050 C 
HETATM   11  C11 UNL     1      24.471  36.028  41.545  1.00  0.00     0.021 C 
HETATM   12  S3  UNL     1      26.093  35.821  39.410  1.00  0.00    -0.106 SA
ENDROOT
BRANCH   1  13
HETATM   13  C4  UNL     1      31.226  35.676  37.905  1.00  0.00     0.091 A 
HETATM   14  C2  UNL     1      32.354  34.962  38.199  1.00  0.00     0.012 A 
HETATM   15  C1  UNL     1      32.688  33.990  39.300  1.00  0.00     0.059 C 
HETATM   16  S1  UNL     1      33.433  35.447  36.925  1.00  0.00    -0.063 SA
HETATM   17  C3  UNL     1      32.386  36.504  36.128  1.00  0.00     0.143 A 
HETATM   18  S2  UNL     1      32.668  37.403  34.767  1.00  0.00    -0.052 SA
HETATM   19  N1  UNL     1      31.275  36.451  36.844  1.00  0.00    -0.338 N 
ATOM     20  H1  UNL     1      30.464  37.007  36.575  1.00  0.00     0.167 HD
ENDBRANCH   1  13
TORSDOF 1
ENDMDL
MODEL 4
REMARK VINA RESULT: -6.422516607      1.970      6.456
REMARK  1 active torsions:
REMARK  status: ('A' for Active; 'I' for Inactive)
REMARK    1  A    between atoms: C4_8  and  C5_9 
ROOT
HETATM    1  C5  UNL     1      29.456  35.871  38.325  1.00  0.00     0.135 A 
HETATM    2  N2  UNL     1      30.410  35.535  39.244  1.00  0.00    -0.334 N 
ATOM      3  H2  UNL     1      30.287  35.476  40.254  1.00  0.00     0.168 HD
HETATM    4  C6  UNL     1      31.529  35.301  38.565  1.00  0.00     0.094 A 
HETATM    5  C7  UNL     1      31.311  35.480  37.219  1.00  0.00     0.044 A 
HETATM    6  N3  UNL     1      29.998  35.835  37.132  1.00  0.00    -0.342 N 
ATOM      7  H3  UNL     1      29.508  36.043  36.262  1.00  0.00     0.167 HD
HETATM    8  C8  UNL     1      32.439  35.265  36.305  1.00  0.00     0.061 C 
HETATM    9  C9  UNL     1      33.634  36.122  36.609  1.00  0.00     0.021 C 
HETATM   10  C10 UNL     1      34.303  35.773  37.911  1.00  0.00     0.050 C 
HETATM   11  C11 UNL     1      35.553  34.941  37.679  1.00  0.00     0.021 C 
HETATM   12  S3  UNL     1      33.215  34.816  39.001  1.00  0.00    -0.106 SA
ENDROOT
BRANCH   1  13
HETATM   13  C4  UNL     1      28.053  36.202  38.751  1.00  0.00     0.091 A 
HETATM   14  C2  UNL     1      27.310  37.132  38.078  1.00  0.00     0.012 A 
HETATM   15  C1  UNL     1      27.599  37.996  36.879  1.00  0.00     0.059 C 
HETATM   16  S1  UNL     1      25.817  37.117  38.970  1.00  0.00    -0.063 SA
HETATM   17  C3  UNL     1      26.244  35.950  40.111  1.00  0.00     0.143 A 
HETATM   18  S2  UNL     1      25.337  35.348  41.359  1.00  0.00    -0.052 SA
HETATM   19  N1  UNL     1      27.481  35.619  39.781  1.00  0.00    -0.338 N 
ATOM     20  H1  UNL     1      27.987  34.916  40.321  1.00  0.00     0.167 HD
ENDBRANCH   1  13
TORSDOF 1
ENDMDL
MODEL 5
REMARK VINA RESULT: -6.230378925      1.873      6.382
REMARK  1 active torsions:
REMARK  status: ('A' for Active; 'I' for Inactive)
REMARK    1  A    between atoms: C4_8  and  C5_9 
ROOT
HETATM    1  C5  UNL     1      29.249  36.184  39.019  1.00  0.00     0.135 A 
HETATM    2  N2  UNL     1      29.987  36.982  38.191  1.00  0.00    -0.334 N 
ATOM      3  H2  UNL     1      29.651  37.788  37.664  1.00  0.00     0.168 HD
HETATM    4  C6  UNL     1      31.227  36.504  38.205  1.00  0.00     0.094 A 
HETATM    5  C7  UNL     1      31.301  35.408  39.032  1.00  0.00     0.044 A 
HETATM    6  N3  UNL     1      30.034  35.257  39.511  1.00  0.00    -0.342 N 
ATOM      7  H3  UNL     1      29.739  34.528  40.160  1.00  0.00     0.167 HD
HETATM    8  C8  UNL     1      32.601  34.740  39.176  1.00  0.00     0.061 C 
HETATM    9  C9  UNL     1      33.184  34.269  37.875  1.00  0.00     0.021 C 
HETATM   10  C10 UNL     1      33.585  35.393  36.959  1.00  0.00     0.050 C 
HETATM   11  C11 UNL     1      35.086  35.627  37.002  1.00  0.00     0.021 C 
HETATM   12  S3  UNL     1      32.786  36.957  37.409  1.00  0.00    -0.106 SA
ENDROOT
BRANCH   1  13
HETATM   13  C4  UNL     1      27.784  36.442  39.240  1.00  0.00     0.091 A 
HETATM   14  C2  UNL     1      27.043  37.141  38.328  1.00  0.00     0.012 A 
HETATM   15  C1  UNL     1      27.387  37.783  37.010  1.00  0.00     0.059 C 
HETATM   16  S1  UNL     1      25.468  37.141  39.065  1.00  0.00    -0.063 SA
HETATM   17  C3  UNL     1      25.865  36.268  40.453  1.00  0.00     0.143 A 
HETATM   18  S2  UNL     1      24.881  35.826  41.709  1.00  0.00    -0.052 SA
HETATM   19  N1  UNL     1      27.154  36.011  40.310  1.00  0.00    -0.338 N 
ATOM     20  H1  UNL     1      27.655  35.483  41.025  1.00  0.00     0.167 HD
ENDBRANCH   1  13
TORSDOF 1
ENDMDL
