MODEL 1
REMARK VINA RESULT: -7.363212748      0.000      0.000
REMARK  3 active torsions:
REMARK  status: ('A' for Active; 'I' for Inactive)
REMARK    1  A    between atoms: C4_4  and  N1_5 
REMARK    2  A    between atoms: N1_5  and  C5_7 
REMARK    3  A    between atoms: C7_16  and  C8_17 
ROOT
HETATM    1  C1  UNL     1      25.250  36.838  39.146  1.00  0.00     0.049 C 
HETATM    2  C2  UNL     1      26.750  36.746  38.880  1.00  0.00    -0.045 A 
HETATM    3  C3  UNL     1      27.261  37.058  37.671  1.00  0.00     0.045 A 
HETATM    4  C4  UNL     1      28.618  36.952  37.517  1.00  0.00     0.076 A 
HETATM    5  S3  UNL     1      29.137  36.426  39.047  1.00  0.00    -0.076 SA
HETATM    6  C7  UNL     1      27.633  36.351  39.848  1.00  0.00    -0.002 A 
ENDROOT
BRANCH   4   7
HETATM    7  N1  UNL     1      29.420  37.214  36.364  1.00  0.00    -0.330 N 
ATOM      8  H1  UNL     1      29.054  37.797  35.612  1.00  0.00     0.168 HD
BRANCH   7   9
HETATM    9  C5  UNL     1      30.629  36.704  36.272  1.00  0.00     0.167 A 
HETATM   10  N2  UNL     1      31.003  35.597  35.627  1.00  0.00    -0.278 N 
HETATM   11  N3  UNL     1      32.237  35.263  35.653  1.00  0.00    -0.282 N 
ATOM     12  H2  UNL     1      30.320  35.030  35.124  1.00  0.00     0.189 HD
HETATM   13  C6  UNL     1      33.102  36.025  36.319  1.00  0.00     0.160 A 
ATOM     14  H3  UNL     1      32.555  34.423  35.169  1.00  0.00     0.188 HD
HETATM   15  S1  UNL     1      34.734  35.792  36.491  1.00  0.00    -0.051 SA
HETATM   16  S2  UNL     1      32.097  37.265  36.927  1.00  0.00    -0.022 SA
ENDBRANCH   7   9
ENDBRANCH   4   7
BRANCH   6  17
HETATM   17  C8  UNL     1      27.387  35.942  41.259  1.00  0.00    -0.017 C 
HETATM   18  C9  UNL     1      27.010  34.464  41.220  1.00  0.00     0.020 C 
HETATM   19  C10 UNL     1      26.208  36.645  41.885  1.00  0.00     0.020 C 
HETATM   20  C11 UNL     1      28.656  36.078  42.024  1.00  0.00     0.020 C 
ENDBRANCH   6  17
TORSDOF 3
ENDMDL
MODEL 2
REMARK VINA RESULT: -7.334108421      0.102      1.017
REMARK  3 active torsions:
REMARK  status: ('A' for Active; 'I' for Inactive)
REMARK    1  A    between atoms: C4_4  and  N1_5 
REMARK    2  A    between atoms: N1_5  and  C5_7 
REMARK    3  A    between atoms: C7_16  and  C8_17 
ROOT
HETATM    1  C1  UNL     1      25.218  36.840  39.192  1.00  0.00     0.049 C 
HETATM    2  C2  UNL     1      26.717  36.745  38.921  1.00  0.00    -0.045 A 
HETATM    3  C3  UNL     1      27.232  37.111  37.728  1.00  0.00     0.045 A 
HETATM    4  C4  UNL     1      28.587  36.999  37.568  1.00  0.00     0.076 A 
HETATM    5  S3  UNL     1      29.101  36.394  39.070  1.00  0.00    -0.076 SA
HETATM    6  C7  UNL     1      27.596  36.295  39.867  1.00  0.00    -0.002 A 
ENDROOT
BRANCH   4   7
HETATM    7  N1  UNL     1      29.391  37.309  36.429  1.00  0.00    -0.330 N 
ATOM      8  H1  UNL     1      29.032  37.935  35.708  1.00  0.00     0.168 HD
BRANCH   7   9
HETATM    9  C5  UNL     1      30.593  36.789  36.309  1.00  0.00     0.167 A 
HETATM   10  N2  UNL     1      30.950  35.704  35.619  1.00  0.00    -0.278 N 
HETATM   11  N3  UNL     1      32.180  35.354  35.624  1.00  0.00    -0.282 N 
ATOM     12  H2  UNL     1      30.258  35.165  35.099  1.00  0.00     0.189 HD
HETATM   13  C6  UNL     1      33.058  36.079  36.314  1.00  0.00     0.160 A 
ATOM     14  H3  UNL     1      32.485  34.530  35.106  1.00  0.00     0.188 HD
HETATM   15  S1  UNL     1      34.689  35.820  36.466  1.00  0.00    -0.051 SA
HETATM   16  S2  UNL     1      32.072  37.307  36.977  1.00  0.00    -0.022 SA
ENDBRANCH   7   9
ENDBRANCH   4   7
BRANCH   6  17
HETATM   17  C8  UNL     1      27.346  35.820  41.257  1.00  0.00    -0.017 C 
HETATM   18  C9  UNL     1      28.670  35.954  42.003  1.00  0.00     0.020 C 
HETATM   19  C10 UNL     1      26.987  34.355  41.328  1.00  0.00     0.020 C 
HETATM   20  C11 UNL     1      26.356  36.724  41.901  1.00  0.00     0.020 C 
ENDBRANCH   6  17
TORSDOF 3
ENDMDL
MODEL 3
REMARK VINA RESULT: -6.896648419      3.145      6.778
REMARK  3 active torsions:
REMARK  status: ('A' for Active; 'I' for Inactive)
REMARK    1  A    between atoms: C4_4  and  N1_5 
REMARK    2  A    between atoms: N1_5  and  C5_7 
REMARK    3  A    between atoms: C7_16  and  C8_17 
ROOT
HETATM    1  C1  UNL     1      33.301  36.617  37.764  1.00  0.00     0.049 C 
HETATM    2  C2  UNL     1      31.814  36.276  37.753  1.00  0.00    -0.045 A 
HETATM    3  C3  UNL     1      31.292  35.415  38.652  1.00  0.00     0.045 A 
HETATM    4  C4  UNL     1      29.948  35.167  38.576  1.00  0.00     0.076 A 
HETATM    5  S3  UNL     1      29.454  36.131  37.266  1.00  0.00    -0.076 SA
HETATM    6  C7  UNL     1      30.953  36.827  36.844  1.00  0.00    -0.002 A 
ENDROOT
BRANCH   4   7
HETATM    7  N1  UNL     1      29.140  34.312  39.386  1.00  0.00    -0.330 N 
ATOM      8  H1  UNL     1      29.336  33.312  39.423  1.00  0.00     0.168 HD
BRANCH   7   9
HETATM    9  C5  UNL     1      28.143  34.812  40.082  1.00  0.00     0.167 A 
HETATM   10  N2  UNL     1      27.988  34.810  41.408  1.00  0.00    -0.278 N 
HETATM   11  N3  UNL     1      26.940  35.351  41.902  1.00  0.00    -0.282 N 
ATOM     12  H2  UNL     1      28.691  34.387  42.014  1.00  0.00     0.189 HD
HETATM   13  C6  UNL     1      26.043  35.895  41.082  1.00  0.00     0.160 A 
ATOM     14  H3  UNL     1      26.794  35.367  42.911  1.00  0.00     0.188 HD
HETATM   15  S1  UNL     1      24.621  36.644  41.490  1.00  0.00    -0.051 SA
HETATM   16  S2  UNL     1      26.738  35.613  39.547  1.00  0.00    -0.022 SA
ENDBRANCH   7   9
ENDBRANCH   4   7
BRANCH   6  17
HETATM   17  C8  UNL     1      31.215  37.790  35.739  1.00  0.00    -0.017 C 
HETATM   18  C9  UNL     1      30.055  37.648  34.758  1.00  0.00     0.020 C 
HETATM   19  C10 UNL     1      32.458  37.464  34.947  1.00  0.00     0.020 C 
HETATM   20  C11 UNL     1      31.189  39.171  36.292  1.00  0.00     0.020 C 
ENDBRANCH   6  17
TORSDOF 3
ENDMDL
MODEL 4
REMARK VINA RESULT: -6.646376102      3.232      6.872
REMARK  3 active torsions:
REMARK  status: ('A' for Active; 'I' for Inactive)
REMARK    1  A    between atoms: C4_4  and  N1_5 
REMARK    2  A    between atoms: N1_5  and  C5_7 
REMARK    3  A    between atoms: C7_16  and  C8_17 
ROOT
HETATM    1  C1  UNL     1      33.597  34.921  38.834  1.00  0.00     0.049 C 
HETATM    2  C2  UNL     1      32.128  35.027  38.436  1.00  0.00    -0.045 A 
HETATM    3  C3  UNL     1      31.175  34.354  39.115  1.00  0.00     0.045 A 
HETATM    4  C4  UNL     1      29.880  34.507  38.696  1.00  0.00     0.076 A 
HETATM    5  S3  UNL     1      30.027  35.574  37.381  1.00  0.00    -0.076 SA
HETATM    6  C7  UNL     1      31.717  35.804  37.388  1.00  0.00    -0.002 A 
ENDROOT
BRANCH   4   7
HETATM    7  N1  UNL     1      28.686  33.924  39.219  1.00  0.00    -0.330 N 
ATOM      8  H1  UNL     1      28.483  32.939  39.047  1.00  0.00     0.168 HD
BRANCH   7   9
HETATM    9  C5  UNL     1      27.848  34.654  39.922  1.00  0.00     0.167 A 
HETATM   10  N2  UNL     1      27.746  34.732  41.251  1.00  0.00    -0.278 N 
HETATM   11  N3  UNL     1      26.860  35.506  41.752  1.00  0.00    -0.282 N 
ATOM     12  H2  UNL     1      28.362  34.187  41.854  1.00  0.00     0.189 HD
HETATM   13  C6  UNL     1      26.072  36.204  40.935  1.00  0.00     0.160 A 
ATOM     14  H3  UNL     1      26.758  35.588  42.763  1.00  0.00     0.188 HD
HETATM   15  S1  UNL     1      24.864  37.259  41.352  1.00  0.00    -0.051 SA
HETATM   16  S2  UNL     1      26.632  35.724  39.394  1.00  0.00    -0.022 SA
ENDBRANCH   7   9
ENDBRANCH   4   7
BRANCH   6  17
HETATM   17  C8  UNL     1      32.511  36.650  36.455  1.00  0.00    -0.017 C 
HETATM   18  C9  UNL     1      31.580  37.008  35.300  1.00  0.00     0.020 C 
HETATM   19  C10 UNL     1      33.671  35.916  35.828  1.00  0.00     0.020 C 
HETATM   20  C11 UNL     1      32.889  37.908  37.153  1.00  0.00     0.020 C 
ENDBRANCH   6  17
TORSDOF 3
ENDMDL
MODEL 5
REMARK VINA RESULT: -6.479849850      3.193      6.867
REMARK  3 active torsions:
REMARK  status: ('A' for Active; 'I' for Inactive)
REMARK    1  A    between atoms: C4_4  and  N1_5 
REMARK    2  A    between atoms: N1_5  and  C5_7 
REMARK    3  A    between atoms: C7_16  and  C8_17 
ROOT
HETATM    1  C1  UNL     1      33.657  35.046  38.685  1.00  0.00     0.049 C 
HETATM    2  C2  UNL     1      32.177  35.105  38.317  1.00  0.00    -0.045 A 
HETATM    3  C3  UNL     1      31.258  34.419  39.028  1.00  0.00     0.045 A 
HETATM    4  C4  UNL     1      29.951  34.529  38.634  1.00  0.00     0.076 A 
HETATM    5  S3  UNL     1      30.041  35.576  37.297  1.00  0.00    -0.076 SA
HETATM    6  C7  UNL     1      31.724  35.852  37.265  1.00  0.00    -0.002 A 
ENDROOT
BRANCH   4   7
HETATM    7  N1  UNL     1      28.784  33.924  39.192  1.00  0.00    -0.330 N 
ATOM      8  H1  UNL     1      28.610  32.929  39.050  1.00  0.00     0.168 HD
BRANCH   7   9
HETATM    9  C5  UNL     1      27.935  34.646  39.890  1.00  0.00     0.167 A 
HETATM   10  N2  UNL     1      27.859  34.764  41.218  1.00  0.00    -0.278 N 
HETATM   11  N3  UNL     1      26.955  35.522  41.712  1.00  0.00    -0.282 N 
ATOM     12  H2  UNL     1      28.506  34.262  41.824  1.00  0.00     0.189 HD
HETATM   13  C6  UNL     1      26.125  36.163  40.892  1.00  0.00     0.160 A 
ATOM     14  H3  UNL     1      26.871  35.634  42.722  1.00  0.00     0.188 HD
HETATM   15  S1  UNL     1      24.888  37.188  41.301  1.00  0.00    -0.051 SA
HETATM   16  S2  UNL     1      26.670  35.653  39.355  1.00  0.00    -0.022 SA
ENDBRANCH   7   9
ENDBRANCH   4   7
BRANCH   6  17
HETATM   17  C8  UNL     1      32.474  36.702  36.300  1.00  0.00    -0.017 C 
HETATM   18  C9  UNL     1      32.928  37.936  37.074  1.00  0.00     0.020 C 
HETATM   19  C10 UNL     1      31.616  37.223  35.173  1.00  0.00     0.020 C 
HETATM   20  C11 UNL     1      33.686  35.963  35.852  1.00  0.00     0.020 C 
ENDBRANCH   6  17
TORSDOF 3
ENDMDL
