MODEL 1
REMARK VINA RESULT: -7.927977373      0.000      0.000
REMARK  2 active torsions:
REMARK  status: ('A' for Active; 'I' for Inactive)
REMARK    1  A    between atoms: C4_7  and  N2_8 
REMARK    2  A    between atoms: N2_8  and  C5_10 
ROOT
HETATM    1  C1  UNL     1      34.125  35.542  37.640  1.00  0.00     0.056 C 
HETATM    2  C2  UNL     1      32.638  35.462  37.807  1.00  0.00     0.025 A 
HETATM    3  C3  UNL     1      32.096  34.773  38.868  1.00  0.00     0.254 A 
HETATM    4  O1  UNL     1      32.912  34.219  39.683  1.00  0.00    -0.268 OA
HETATM    5  N1  UNL     1      30.772  34.664  39.077  1.00  0.00    -0.308 N 
ATOM      6  H1  UNL     1      30.416  34.143  39.878  1.00  0.00     0.170 HD
HETATM    7  C4  UNL     1      29.917  35.255  38.206  1.00  0.00     0.123 A 
HETATM    8  C11 UNL     1      30.386  35.973  37.104  1.00  0.00     0.074 A 
HETATM    9  S1  UNL     1      29.787  36.873  35.760  1.00  0.00    -0.047 SA
HETATM   10  S2  UNL     1      31.782  37.011  35.487  1.00  0.00    -0.050 SA
HETATM   11  C12 UNL     1      31.757  36.062  36.927  1.00  0.00     0.044 A 
ENDROOT
BRANCH   7  12
HETATM   12  N2  UNL     1      28.536  35.124  38.506  1.00  0.00    -0.370 N 
ATOM     13  H2  UNL     1      28.042  34.342  38.077  1.00  0.00     0.161 HD
BRANCH  12  14
HETATM   14  C5  UNL     1      27.764  35.994  39.363  1.00  0.00     0.083 C 
HETATM   15  C6  UNL     1      26.683  36.617  38.496  1.00  0.00     0.025 C 
HETATM   16  C7  UNL     1      25.346  36.649  39.177  1.00  0.00     0.002 C 
HETATM   17  C8  UNL     1      25.585  37.094  40.598  1.00  0.00     0.000 C 
HETATM   18  C9  UNL     1      26.174  35.876  41.309  1.00  0.00     0.002 C 
HETATM   19  C10 UNL     1      27.161  35.155  40.452  1.00  0.00     0.025 C 
ENDBRANCH  12  14
ENDBRANCH   7  12
TORSDOF 2
ENDMDL
MODEL 2
REMARK VINA RESULT: -7.734834285      3.407      6.090
REMARK  2 active torsions:
REMARK  status: ('A' for Active; 'I' for Inactive)
REMARK    1  A    between atoms: C4_7  and  N2_8 
REMARK    2  A    between atoms: N2_8  and  C5_10 
ROOT
HETATM    1  C1  UNL     1      25.407  36.496  41.452  1.00  0.00     0.056 C 
HETATM    2  C2  UNL     1      26.351  36.396  40.292  1.00  0.00     0.025 A 
HETATM    3  C3  UNL     1      25.923  36.707  39.022  1.00  0.00     0.254 A 
HETATM    4  O1  UNL     1      24.706  37.080  38.890  1.00  0.00    -0.268 OA
HETATM    5  N1  UNL     1      26.717  36.639  37.938  1.00  0.00    -0.308 N 
ATOM      6  H1  UNL     1      26.355  36.881  37.016  1.00  0.00     0.170 HD
HETATM    7  C4  UNL     1      28.005  36.243  38.090  1.00  0.00     0.123 A 
HETATM    8  C11 UNL     1      28.517  35.909  39.345  1.00  0.00     0.074 A 
HETATM    9  S1  UNL     1      29.987  35.376  40.074  1.00  0.00    -0.047 SA
HETATM   10  S2  UNL     1      28.759  35.494  41.672  1.00  0.00    -0.050 SA
HETATM   11  C12 UNL     1      27.666  35.995  40.434  1.00  0.00     0.044 A 
ENDROOT
BRANCH   7  12
HETATM   12  N2  UNL     1      28.792  36.224  36.910  1.00  0.00    -0.370 N 
ATOM     13  H2  UNL     1      28.997  35.310  36.505  1.00  0.00     0.161 HD
BRANCH  12  14
HETATM   14  C5  UNL     1      29.330  37.377  36.225  1.00  0.00     0.083 C 
HETATM   15  C6  UNL     1      29.465  38.479  37.263  1.00  0.00     0.025 C 
HETATM   16  C7  UNL     1      30.759  39.229  37.141  1.00  0.00     0.002 C 
HETATM   17  C8  UNL     1      30.986  39.483  35.672  1.00  0.00     0.000 C 
HETATM   18  C9  UNL     1      31.443  38.144  35.097  1.00  0.00     0.002 C 
HETATM   19  C10 UNL     1      30.671  37.001  35.667  1.00  0.00     0.025 C 
ENDBRANCH  12  14
ENDBRANCH   7  12
TORSDOF 2
ENDMDL
MODEL 3
REMARK VINA RESULT: -7.626872765      2.419      2.673
REMARK  2 active torsions:
REMARK  status: ('A' for Active; 'I' for Inactive)
REMARK    1  A    between atoms: C4_7  and  N2_8 
REMARK    2  A    between atoms: N2_8  and  C5_10 
ROOT
HETATM    1  C1  UNL     1      33.377  37.024  35.897  1.00  0.00     0.056 C 
HETATM    2  C2  UNL     1      32.031  36.697  36.471  1.00  0.00     0.025 A 
HETATM    3  C3  UNL     1      30.898  37.283  35.955  1.00  0.00     0.254 A 
HETATM    4  O1  UNL     1      31.052  38.100  34.983  1.00  0.00    -0.268 OA
HETATM    5  N1  UNL     1      29.661  37.034  36.422  1.00  0.00    -0.308 N 
ATOM      6  H1  UNL     1      28.849  37.491  36.007  1.00  0.00     0.170 HD
HETATM    7  C4  UNL     1      29.509  36.165  37.453  1.00  0.00     0.123 A 
HETATM    8  C11 UNL     1      30.609  35.529  38.033  1.00  0.00     0.074 A 
HETATM    9  S1  UNL     1      30.975  34.403  39.287  1.00  0.00    -0.047 SA
HETATM   10  S2  UNL     1      32.811  34.807  38.553  1.00  0.00    -0.050 SA
HETATM   11  C12 UNL     1      31.864  35.813  37.520  1.00  0.00     0.044 A 
ENDROOT
BRANCH   7  12
HETATM   12  N2  UNL     1      28.175  35.928  37.873  1.00  0.00    -0.370 N 
ATOM     13  H2  UNL     1      27.585  35.378  37.248  1.00  0.00     0.161 HD
BRANCH  12  14
HETATM   14  C5  UNL     1      27.573  36.390  39.102  1.00  0.00     0.083 C 
HETATM   15  C6  UNL     1      26.296  37.119  38.717  1.00  0.00     0.025 C 
HETATM   16  C7  UNL     1      25.146  36.780  39.619  1.00  0.00     0.002 C 
HETATM   17  C8  UNL     1      25.675  36.786  41.032  1.00  0.00     0.000 C 
HETATM   18  C9  UNL     1      26.467  35.487  41.172  1.00  0.00     0.002 C 
HETATM   19  C10 UNL     1      27.270  35.190  39.950  1.00  0.00     0.025 C 
ENDBRANCH  12  14
ENDBRANCH   7  12
TORSDOF 2
ENDMDL
MODEL 4
REMARK VINA RESULT: -7.570473760      1.235      1.310
REMARK  2 active torsions:
REMARK  status: ('A' for Active; 'I' for Inactive)
REMARK    1  A    between atoms: C4_7  and  N2_8 
REMARK    2  A    between atoms: N2_8  and  C5_10 
ROOT
HETATM    1  C1  UNL     1      33.584  36.773  36.503  1.00  0.00     0.056 C 
HETATM    2  C2  UNL     1      32.161  36.534  36.911  1.00  0.00     0.025 A 
HETATM    3  C3  UNL     1      31.803  35.349  37.511  1.00  0.00     0.254 A 
HETATM    4  O1  UNL     1      32.728  34.485  37.698  1.00  0.00    -0.268 OA
HETATM    5  N1  UNL     1      30.547  35.070  37.901  1.00  0.00    -0.308 N 
ATOM      6  H1  UNL     1      30.328  34.177  38.344  1.00  0.00     0.170 HD
HETATM    7  C4  UNL     1      29.574  35.993  37.698  1.00  0.00     0.123 A 
HETATM    8  C11 UNL     1      29.855  37.220  37.095  1.00  0.00     0.074 A 
HETATM    9  S1  UNL     1      29.056  38.674  36.620  1.00  0.00    -0.047 SA
HETATM   10  S2  UNL     1      30.956  39.048  36.051  1.00  0.00    -0.050 SA
HETATM   11  C12 UNL     1      31.162  37.467  36.709  1.00  0.00     0.044 A 
ENDROOT
BRANCH   7  12
HETATM   12  N2  UNL     1      28.280  35.644  38.162  1.00  0.00    -0.370 N 
ATOM     13  H2  UNL     1      27.807  34.877  37.683  1.00  0.00     0.161 HD
BRANCH  12  14
HETATM   14  C5  UNL     1      27.567  36.271  39.251  1.00  0.00     0.083 C 
HETATM   15  C6  UNL     1      26.356  36.959  38.643  1.00  0.00     0.025 C 
HETATM   16  C7  UNL     1      25.111  36.755  39.455  1.00  0.00     0.002 C 
HETATM   17  C8  UNL     1      25.491  36.940  40.903  1.00  0.00     0.000 C 
HETATM   18  C9  UNL     1      26.230  35.661  41.292  1.00  0.00     0.002 C 
HETATM   19  C10 UNL     1      27.147  35.196  40.210  1.00  0.00     0.025 C 
ENDBRANCH  12  14
ENDBRANCH   7  12
TORSDOF 2
ENDMDL
MODEL 5
REMARK VINA RESULT: -7.459619476      1.978      5.903
REMARK  2 active torsions:
REMARK  status: ('A' for Active; 'I' for Inactive)
REMARK    1  A    between atoms: C4_7  and  N2_8 
REMARK    2  A    between atoms: N2_8  and  C5_10 
ROOT
HETATM    1  C1  UNL     1      26.263  36.314  41.159  1.00  0.00     0.056 C 
HETATM    2  C2  UNL     1      27.563  35.982  40.489  1.00  0.00     0.025 A 
HETATM    3  C3  UNL     1      28.544  35.305  41.177  1.00  0.00     0.254 A 
HETATM    4  O1  UNL     1      28.291  34.982  42.389  1.00  0.00    -0.268 OA
HETATM    5  N1  UNL     1      29.730  34.976  40.636  1.00  0.00    -0.308 N 
ATOM      6  H1  UNL     1      30.427  34.473  41.185  1.00  0.00     0.170 HD
HETATM    7  C4  UNL     1      29.987  35.324  39.350  1.00  0.00     0.123 A 
HETATM    8  C11 UNL     1      29.045  36.012  38.584  1.00  0.00     0.074 A 
HETATM    9  S1  UNL     1      28.851  36.664  36.999  1.00  0.00    -0.047 SA
HETATM   10  S2  UNL     1      27.084  37.136  37.852  1.00  0.00    -0.050 SA
HETATM   11  C12 UNL     1      27.835  36.330  39.180  1.00  0.00     0.044 A 
ENDROOT
BRANCH   7  12
HETATM   12  N2  UNL     1      31.246  34.917  38.837  1.00  0.00    -0.370 N 
ATOM     13  H2  UNL     1      31.551  33.969  39.058  1.00  0.00     0.161 HD
BRANCH  12  14
HETATM   14  C5  UNL     1      32.136  35.719  38.030  1.00  0.00     0.083 C 
HETATM   15  C6  UNL     1      33.529  35.546  38.611  1.00  0.00     0.025 C 
HETATM   16  C7  UNL     1      34.576  35.367  37.551  1.00  0.00     0.002 C 
HETATM   17  C8  UNL     1      34.283  36.371  36.465  1.00  0.00     0.000 C 
HETATM   18  C9  UNL     1      33.087  35.804  35.703  1.00  0.00     0.002 C 
HETATM   19  C10 UNL     1      32.075  35.204  36.622  1.00  0.00     0.025 C 
ENDBRANCH  12  14
ENDBRANCH   7  12
TORSDOF 2
ENDMDL
