MODEL 1
REMARK VINA RESULT: -5.654659133      0.000      0.000
REMARK  5 active torsions:
REMARK  status: ('A' for Active; 'I' for Inactive)
REMARK    1  A    between atoms: C2_2  and  C3_3 
REMARK    2  A    between atoms: C3_3  and  C4_4 
REMARK    3  A    between atoms: C6_6  and  C7_7 
REMARK    4  A    between atoms: C7_7  and  N1_8 
REMARK    5  A    between atoms: N2_10  and  N3_12 
ROOT
HETATM    1  C7  UNL     1      -2.368   0.532 -19.759  1.00  0.00     0.145 C 
ENDROOT
BRANCH   1   2
HETATM    2  C6  UNL     1      -1.449  -0.231 -18.827  1.00  0.00     0.006 A 
HETATM    3  C5  UNL     1      -0.880  -1.493 -19.428  1.00  0.00     0.011 A 
HETATM    4  C4  UNL     1       0.502  -0.938 -19.351  1.00  0.00    -0.014 A 
HETATM    5  C8  UNL     1      -0.063   0.368 -18.854  1.00  0.00     0.011 A 
BRANCH   4   6
HETATM    6  C3  UNL     1       1.413  -1.535 -18.312  1.00  0.00     0.004 C 
BRANCH   6   7
HETATM    7  C2  UNL     1       2.661  -2.018 -19.060  1.00  0.00    -0.004 C 
HETATM    8  C1  UNL     1       2.656  -1.562 -20.495  1.00  0.00     0.005 C 
ENDBRANCH   6   7
ENDBRANCH   4   6
ENDBRANCH   1   2
BRANCH   1   9
HETATM    9  N1  UNL     1      -3.722   0.432 -19.265  1.00  0.00    -0.322 N 
HETATM   10  N2  UNL     1      -3.989   0.385 -18.039  1.00  0.00    -0.254 N 
ATOM     11  H2  UNL     1      -3.236   0.416 -17.352  1.00  0.00     0.207 HD
ATOM     12  H1  UNL     1      -4.489   0.399 -19.937  1.00  0.00     0.181 HD
BRANCH  10  13
HETATM   13  N3  UNL     1      -5.308   0.290 -17.616  1.00  0.00    -0.331 N 
ATOM     14  H32 UNL     1      -5.742   1.096 -17.166  1.00  0.00     0.178 HD
ATOM     15  H31 UNL     1      -5.829  -0.575 -17.756  1.00  0.00     0.178 HD
ENDBRANCH  10  13
ENDBRANCH   1   9
TORSDOF 5
ENDMDL
MODEL 2
REMARK VINA RESULT: -5.640768939      4.680      5.769
REMARK  5 active torsions:
REMARK  status: ('A' for Active; 'I' for Inactive)
REMARK    1  A    between atoms: C2_2  and  C3_3 
REMARK    2  A    between atoms: C3_3  and  C4_4 
REMARK    3  A    between atoms: C6_6  and  C7_7 
REMARK    4  A    between atoms: C7_7  and  N1_8 
REMARK    5  A    between atoms: N2_10  and  N3_12 
ROOT
HETATM    1  C7  UNL     1       1.878  -1.763 -15.639  1.00  0.00     0.145 C 
ENDROOT
BRANCH   1   2
HETATM    2  C6  UNL     1       1.773  -0.920 -16.894  1.00  0.00     0.006 A 
HETATM    3  C5  UNL     1       1.679  -1.726 -18.166  1.00  0.00     0.011 A 
HETATM    4  C4  UNL     1       0.309  -1.200 -18.429  1.00  0.00    -0.014 A 
HETATM    5  C8  UNL     1       0.345  -0.477 -17.108  1.00  0.00     0.011 A 
BRANCH   4   6
HETATM    6  C3  UNL     1       0.170  -0.210 -19.555  1.00  0.00     0.004 C 
BRANCH   6   7
HETATM    7  C2  UNL     1      -1.132  -0.565 -20.282  1.00  0.00    -0.004 C 
HETATM    8  C1  UNL     1      -2.298   0.223 -19.744  1.00  0.00     0.005 C 
ENDBRANCH   6   7
ENDBRANCH   4   6
ENDBRANCH   1   2
BRANCH   1   9
HETATM    9  N1  UNL     1       2.306  -3.094 -16.005  1.00  0.00    -0.322 N 
HETATM   10  N2  UNL     1       3.423  -3.558 -15.667  1.00  0.00    -0.254 N 
ATOM     11  H2  UNL     1       4.065  -2.989 -15.115  1.00  0.00     0.207 HD
ATOM     12  H1  UNL     1       1.677  -3.678 -16.558  1.00  0.00     0.181 HD
BRANCH  10  13
HETATM   13  N3  UNL     1       3.786  -4.844 -16.045  1.00  0.00    -0.331 N 
ATOM     14  H32 UNL     1       3.192  -5.626 -15.770  1.00  0.00     0.178 HD
ATOM     15  H31 UNL     1       4.636  -4.997 -16.587  1.00  0.00     0.178 HD
ENDBRANCH  10  13
ENDBRANCH   1   9
TORSDOF 5
ENDMDL
MODEL 3
REMARK VINA RESULT: -5.589056516      1.125      1.682
REMARK  5 active torsions:
REMARK  status: ('A' for Active; 'I' for Inactive)
REMARK    1  A    between atoms: C2_2  and  C3_3 
REMARK    2  A    between atoms: C3_3  and  C4_4 
REMARK    3  A    between atoms: C6_6  and  C7_7 
REMARK    4  A    between atoms: C7_7  and  N1_8 
REMARK    5  A    between atoms: N2_10  and  N3_12 
ROOT
HETATM    1  C7  UNL     1      -3.331  -0.077 -17.607  1.00  0.00     0.145 C 
ENDROOT
BRANCH   1   2
HETATM    2  C6  UNL     1      -2.247   0.116 -18.648  1.00  0.00     0.006 A 
HETATM    3  C5  UNL     1      -0.905   0.491 -18.069  1.00  0.00     0.011 A 
HETATM    4  C4  UNL     1      -0.307  -0.782 -18.564  1.00  0.00    -0.014 A 
HETATM    5  C8  UNL     1      -1.665  -1.219 -19.049  1.00  0.00     0.011 A 
BRANCH   4   6
HETATM    6  C3  UNL     1       0.646  -0.674 -19.725  1.00  0.00     0.004 C 
BRANCH   6   7
HETATM    7  C2  UNL     1       1.868  -1.525 -19.360  1.00  0.00    -0.004 C 
HETATM    8  C1  UNL     1       2.829  -1.636 -20.515  1.00  0.00     0.005 C 
ENDBRANCH   6   7
ENDBRANCH   4   6
ENDBRANCH   1   2
BRANCH   1   9
HETATM    9  N1  UNL     1      -4.605   0.285 -18.185  1.00  0.00    -0.322 N 
HETATM   10  N2  UNL     1      -5.662   0.337 -17.507  1.00  0.00    -0.254 N 
ATOM     11  H2  UNL     1      -5.639   0.117 -16.512  1.00  0.00     0.207 HD
ATOM     12  H1  UNL     1      -4.647   0.508 -19.180  1.00  0.00     0.181 HD
BRANCH  10  13
HETATM   13  N3  UNL     1      -6.860   0.691 -18.112  1.00  0.00    -0.331 N 
ATOM     14  H32 UNL     1      -6.842   1.326 -18.910  1.00  0.00     0.178 HD
ATOM     15  H31 UNL     1      -7.741   0.320 -17.758  1.00  0.00     0.178 HD
ENDBRANCH  10  13
ENDBRANCH   1   9
TORSDOF 5
ENDMDL
MODEL 4
REMARK VINA RESULT: -5.472473255      1.125      1.993
REMARK  5 active torsions:
REMARK  status: ('A' for Active; 'I' for Inactive)
REMARK    1  A    between atoms: C2_2  and  C3_3 
REMARK    2  A    between atoms: C3_3  and  C4_4 
REMARK    3  A    between atoms: C6_6  and  C7_7 
REMARK    4  A    between atoms: C7_7  and  N1_8 
REMARK    5  A    between atoms: N2_10  and  N3_12 
ROOT
HETATM    1  C7  UNL     1      -2.210   0.288 -18.262  1.00  0.00     0.145 C 
ENDROOT
BRANCH   1   2
HETATM    2  C6  UNL     1      -1.015   0.065 -19.167  1.00  0.00     0.006 A 
HETATM    3  C5  UNL     1       0.308   0.412 -18.529  1.00  0.00     0.011 A 
HETATM    4  C4  UNL     1       0.749  -1.010 -18.610  1.00  0.00    -0.014 A 
HETATM    5  C8  UNL     1      -0.608  -1.390 -19.145  1.00  0.00     0.011 A 
BRANCH   4   6
HETATM    6  C3  UNL     1       1.812  -1.331 -19.625  1.00  0.00     0.004 C 
BRANCH   6   7
HETATM    7  C2  UNL     1       2.870  -2.165 -18.893  1.00  0.00    -0.004 C 
HETATM    8  C1  UNL     1       2.710  -2.070 -17.398  1.00  0.00     0.005 C 
ENDBRANCH   6   7
ENDBRANCH   4   6
ENDBRANCH   1   2
BRANCH   1   9
HETATM    9  N1  UNL     1      -3.360   0.609 -19.077  1.00  0.00    -0.322 N 
HETATM   10  N2  UNL     1      -3.302   0.663 -20.331  1.00  0.00    -0.254 N 
ATOM     11  H2  UNL     1      -2.420   0.477 -20.809  1.00  0.00     0.207 HD
ATOM     12  H1  UNL     1      -4.251   0.798 -18.617  1.00  0.00     0.181 HD
BRANCH  10  13
HETATM   13  N3  UNL     1      -4.436   0.975 -21.068  1.00  0.00    -0.331 N 
ATOM     14  H32 UNL     1      -4.831   0.269 -21.690  1.00  0.00     0.178 HD
ATOM     15  H31 UNL     1      -4.862   1.897 -20.984  1.00  0.00     0.178 HD
ENDBRANCH  10  13
ENDBRANCH   1   9
TORSDOF 5
ENDMDL
MODEL 5
REMARK VINA RESULT: -5.450421247      4.549      5.777
REMARK  5 active torsions:
REMARK  status: ('A' for Active; 'I' for Inactive)
REMARK    1  A    between atoms: C2_2  and  C3_3 
REMARK    2  A    between atoms: C3_3  and  C4_4 
REMARK    3  A    between atoms: C6_6  and  C7_7 
REMARK    4  A    between atoms: C7_7  and  N1_8 
REMARK    5  A    between atoms: N2_10  and  N3_12 
ROOT
HETATM    1  C7  UNL     1       2.958  -3.069 -17.299  1.00  0.00     0.145 C 
ENDROOT
BRANCH   1   2
HETATM    2  C6  UNL     1       2.525  -1.739 -17.882  1.00  0.00     0.006 A 
HETATM    3  C5  UNL     1       1.986  -1.835 -19.288  1.00  0.00     0.011 A 
HETATM    4  C4  UNL     1       0.641  -1.382 -18.831  1.00  0.00    -0.014 A 
HETATM    5  C8  UNL     1       1.135  -1.388 -17.407  1.00  0.00     0.011 A 
BRANCH   4   6
HETATM    6  C3  UNL     1       0.226   0.010 -19.226  1.00  0.00     0.004 C 
BRANCH   6   7
HETATM    7  C2  UNL     1      -1.153  -0.122 -19.884  1.00  0.00    -0.004 C 
HETATM    8  C1  UNL     1      -2.021  -1.113 -19.153  1.00  0.00     0.005 C 
ENDBRANCH   6   7
ENDBRANCH   4   6
ENDBRANCH   1   2
BRANCH   1   9
HETATM    9  N1  UNL     1       2.793  -3.027 -15.865  1.00  0.00    -0.322 N 
HETATM   10  N2  UNL     1       3.597  -2.421 -15.113  1.00  0.00    -0.254 N 
ATOM     11  H2  UNL     1       4.401  -1.936 -15.512  1.00  0.00     0.207 HD
ATOM     12  H1  UNL     1       1.996  -3.507 -15.447  1.00  0.00     0.181 HD
BRANCH  10  13
HETATM   13  N3  UNL     1       3.393  -2.411 -13.740  1.00  0.00    -0.331 N 
ATOM     14  H32 UNL     1       3.418  -1.520 -13.243  1.00  0.00     0.178 HD
ATOM     15  H31 UNL     1       3.222  -3.284 -13.241  1.00  0.00     0.178 HD
ENDBRANCH  10  13
ENDBRANCH   1   9
TORSDOF 5
ENDMDL
