MODEL 1
REMARK VINA RESULT: -4.911624817      0.000      0.000
REMARK  3 active torsions:
REMARK  status: ('A' for Active; 'I' for Inactive)
REMARK    1  A    between atoms: N1_1  and  C1_5 
REMARK    2  A    between atoms: C1_5  and  C2_6 
REMARK    3  A    between atoms: C2_6  and  C3_7 
ROOT
HETATM    1  C3  UNL     1       0.955  -1.278 -17.507  1.00  0.00     0.225 C 
HETATM    2  C4  UNL     1       1.234  -1.245 -18.990  1.00  0.00     0.042 C 
HETATM    3  C5  UNL     1       0.123  -0.310 -19.455  1.00  0.00     0.018 C 
HETATM    4  C6  UNL     1      -1.247  -0.842 -19.191  1.00  0.00     0.036 C 
HETATM    5  C7  UNL     1      -1.310  -0.890 -17.684  1.00  0.00     0.273 C 
HETATM    6  N2  UNL     1      -0.052  -0.267 -17.222  1.00  0.00     0.093 N 
HETATM    7  C8  UNL     1       0.213   0.695 -18.286  1.00  0.00     0.277 C 
ENDROOT
BRANCH   1   8
HETATM    8  C2  UNL     1       2.157  -1.201 -16.638  1.00  0.00     0.063 C 
BRANCH   8   9
HETATM    9  C1  UNL     1       1.872  -1.681 -15.247  1.00  0.00     0.231 C 
BRANCH   9  10
HETATM   10  N1  UNL     1       3.021  -2.068 -14.479  1.00  0.00    -0.079 N 
ATOM     11  H13 UNL     1       3.869  -1.702 -14.910  1.00  0.00     0.274 HD
ATOM     12  H12 UNL     1       3.035  -1.562 -13.593  1.00  0.00     0.274 HD
ATOM     13  H11 UNL     1       3.119  -3.070 -14.310  1.00  0.00     0.274 HD
ENDBRANCH   9  10
ENDBRANCH   8   9
ENDBRANCH   1   8
TORSDOF 3
ENDMDL
MODEL 2
REMARK VINA RESULT: -4.896100213      5.731      6.846
REMARK  3 active torsions:
REMARK  status: ('A' for Active; 'I' for Inactive)
REMARK    1  A    between atoms: N1_1  and  C1_5 
REMARK    2  A    between atoms: C1_5  and  C2_6 
REMARK    3  A    between atoms: C2_6  and  C3_7 
ROOT
HETATM    1  C3  UNL     1       3.220  -6.557 -16.400  1.00  0.00     0.225 C 
HETATM    2  C4  UNL     1       3.726  -7.927 -16.017  1.00  0.00     0.042 C 
HETATM    3  C5  UNL     1       3.157  -8.756 -17.163  1.00  0.00     0.018 C 
HETATM    4  C6  UNL     1       1.666  -8.744 -17.218  1.00  0.00     0.036 C 
HETATM    5  C7  UNL     1       1.346  -7.300 -17.517  1.00  0.00     0.273 C 
HETATM    6  N2  UNL     1       2.656  -6.650 -17.738  1.00  0.00     0.093 N 
HETATM    7  C8  UNL     1       3.442  -7.745 -18.295  1.00  0.00     0.277 C 
ENDROOT
BRANCH   1   8
HETATM    8  C2  UNL     1       4.200  -5.454 -16.229  1.00  0.00     0.063 C 
BRANCH   8   9
HETATM    9  C1  UNL     1       3.620  -4.126 -16.614  1.00  0.00     0.231 C 
BRANCH   9  10
HETATM   10  N1  UNL     1       3.369  -3.223 -15.528  1.00  0.00    -0.079 N 
ATOM     11  H13 UNL     1       2.365  -3.094 -15.406  1.00  0.00     0.274 HD
ATOM     12  H12 UNL     1       3.603  -3.669 -14.642  1.00  0.00     0.274 HD
ATOM     13  H11 UNL     1       3.831  -2.315 -15.596  1.00  0.00     0.274 HD
ENDBRANCH   9  10
ENDBRANCH   8   9
ENDBRANCH   1   8
TORSDOF 3
ENDMDL
MODEL 3
REMARK VINA RESULT: -4.823000776      1.865      2.077
REMARK  3 active torsions:
REMARK  status: ('A' for Active; 'I' for Inactive)
REMARK    1  A    between atoms: N1_1  and  C1_5 
REMARK    2  A    between atoms: C1_5  and  C2_6 
REMARK    3  A    between atoms: C2_6  and  C3_7 
ROOT
HETATM    1  C3  UNL     1       0.882  -1.668 -18.682  1.00  0.00     0.225 C 
HETATM    2  C4  UNL     1       1.211  -0.909 -19.945  1.00  0.00     0.042 C 
HETATM    3  C5  UNL     1       0.108   0.145 -19.924  1.00  0.00     0.018 C 
HETATM    4  C6  UNL     1      -1.265  -0.434 -20.002  1.00  0.00     0.036 C 
HETATM    5  C7  UNL     1      -1.379  -1.218 -18.719  1.00  0.00     0.273 C 
HETATM    6  N2  UNL     1      -0.141  -0.918 -17.968  1.00  0.00     0.093 N 
HETATM    7  C8  UNL     1       0.152   0.441 -18.409  1.00  0.00     0.277 C 
ENDROOT
BRANCH   1   8
HETATM    8  C2  UNL     1       2.053  -2.042 -17.850  1.00  0.00     0.063 C 
BRANCH   8   9
HETATM    9  C1  UNL     1       3.243  -2.400 -18.690  1.00  0.00     0.231 C 
BRANCH   9  10
HETATM   10  N1  UNL     1       3.642  -3.777 -18.641  1.00  0.00    -0.079 N 
ATOM     11  H13 UNL     1       2.848  -4.362 -18.381  1.00  0.00     0.274 HD
ATOM     12  H12 UNL     1       3.819  -4.122 -19.585  1.00  0.00     0.274 HD
ATOM     13  H11 UNL     1       4.439  -3.983 -18.039  1.00  0.00     0.274 HD
ENDBRANCH   9  10
ENDBRANCH   8   9
ENDBRANCH   1   8
TORSDOF 3
ENDMDL
MODEL 4
REMARK VINA RESULT: -4.762031929      2.573      3.066
REMARK  3 active torsions:
REMARK  status: ('A' for Active; 'I' for Inactive)
REMARK    1  A    between atoms: N1_1  and  C1_5 
REMARK    2  A    between atoms: C1_5  and  C2_6 
REMARK    3  A    between atoms: C2_6  and  C3_7 
ROOT
HETATM    1  C3  UNL     1      -0.289  -0.960 -18.693  1.00  0.00     0.225 C 
HETATM    2  C4  UNL     1      -1.494  -1.662 -19.274  1.00  0.00     0.042 C 
HETATM    3  C5  UNL     1      -2.613  -0.804 -18.695  1.00  0.00     0.018 C 
HETATM    4  C6  UNL     1      -2.663  -0.824 -17.203  1.00  0.00     0.036 C 
HETATM    5  C7  UNL     1      -1.360  -0.175 -16.809  1.00  0.00     0.273 C 
HETATM    6  N2  UNL     1      -0.750   0.276 -18.078  1.00  0.00     0.093 N 
HETATM    7  C8  UNL     1      -1.928   0.566 -18.888  1.00  0.00     0.277 C 
ENDROOT
BRANCH   1   8
HETATM    8  C2  UNL     1       0.849  -0.786 -19.630  1.00  0.00     0.063 C 
BRANCH   8   9
HETATM    9  C1  UNL     1       2.015  -1.653 -19.260  1.00  0.00     0.231 C 
BRANCH   9  10
HETATM   10  N1  UNL     1       2.914  -1.972 -20.332  1.00  0.00    -0.079 N 
ATOM     11  H13 UNL     1       2.466  -1.787 -21.230  1.00  0.00     0.274 HD
ATOM     12  H12 UNL     1       3.673  -1.291 -20.365  1.00  0.00     0.274 HD
ATOM     13  H11 UNL     1       3.294  -2.918 -20.321  1.00  0.00     0.274 HD
ENDBRANCH   9  10
ENDBRANCH   8   9
ENDBRANCH   1   8
TORSDOF 3
ENDMDL
MODEL 5
REMARK VINA RESULT: -4.755238811      1.088      1.884
REMARK  3 active torsions:
REMARK  status: ('A' for Active; 'I' for Inactive)
REMARK    1  A    between atoms: N1_1  and  C1_5 
REMARK    2  A    between atoms: C1_5  and  C2_6 
REMARK    3  A    between atoms: C2_6  and  C3_7 
ROOT
HETATM    1  C3  UNL     1       1.132  -0.750 -17.554  1.00  0.00     0.225 C 
HETATM    2  C4  UNL     1       0.184   0.412 -17.724  1.00  0.00     0.042 C 
HETATM    3  C5  UNL     1      -0.464   0.042 -19.053  1.00  0.00     0.018 C 
HETATM    4  C6  UNL     1       0.503  -0.016 -20.188  1.00  0.00     0.036 C 
HETATM    5  C7  UNL     1       1.411  -1.158 -19.806  1.00  0.00     0.273 C 
HETATM    6  N2  UNL     1       0.817  -1.733 -18.580  1.00  0.00     0.093 N 
HETATM    7  C8  UNL     1      -0.604  -1.473 -18.787  1.00  0.00     0.277 C 
ENDROOT
BRANCH   1   8
HETATM    8  C2  UNL     1       1.205  -1.308 -16.180  1.00  0.00     0.063 C 
BRANCH   8   9
HETATM    9  C1  UNL     1       2.621  -1.540 -15.745  1.00  0.00     0.231 C 
BRANCH   9  10
HETATM   10  N1  UNL     1       2.785  -2.017 -14.402  1.00  0.00    -0.079 N 
ATOM     11  H13 UNL     1       2.931  -3.026 -14.405  1.00  0.00     0.274 HD
ATOM     12  H12 UNL     1       3.682  -1.706 -14.028  1.00  0.00     0.274 HD
ATOM     13  H11 UNL     1       2.035  -1.775 -13.754  1.00  0.00     0.274 HD
ENDBRANCH   9  10
ENDBRANCH   8   9
ENDBRANCH   1   8
TORSDOF 3
ENDMDL
