MODEL 1
REMARK VINA RESULT: -4.957941052      0.000      0.000
REMARK  4 active torsions:
REMARK  status: ('A' for Active; 'I' for Inactive)
REMARK    1  A    between atoms: N1_1  and  C1_5 
REMARK    2  A    between atoms: C1_5  and  C2_6 
REMARK    3  A    between atoms: C2_6  and  C3_7 
REMARK    4  A    between atoms: C3_7  and  C4_8 
ROOT
HETATM    1  C3  UNL     1       4.393  -5.284 -16.351  1.00  0.00     0.008 C 
ENDROOT
BRANCH   1   2
HETATM    2  C2  UNL     1       4.611  -4.696 -17.716  1.00  0.00     0.028 C 
BRANCH   2   3
HETATM    3  C1  UNL     1       4.156  -3.262 -17.806  1.00  0.00     0.229 C 
BRANCH   3   4
HETATM    4  N1  UNL     1       3.297  -3.013 -18.926  1.00  0.00    -0.079 N 
ATOM      5  H13 UNL     1       2.594  -3.747 -19.015  1.00  0.00     0.274 HD
ATOM      6  H12 UNL     1       2.685  -2.217 -18.744  1.00  0.00     0.274 HD
ATOM      7  H11 UNL     1       3.804  -2.888 -19.801  1.00  0.00     0.274 HD
ENDBRANCH   3   4
ENDBRANCH   2   3
ENDBRANCH   1   2
BRANCH   1   8
HETATM    8  C4  UNL     1       3.334  -6.347 -16.456  1.00  0.00     0.022 C 
HETATM    9  C5  UNL     1       3.577  -7.538 -15.592  1.00  0.00     0.037 C 
HETATM   10  C6  UNL     1       3.846  -8.679 -16.531  1.00  0.00     0.273 C 
HETATM   11  N2  UNL     1       3.431  -8.275 -17.843  1.00  0.00     0.097 N 
HETATM   12  C7  UNL     1       2.100  -7.824 -18.103  1.00  0.00     0.309 A 
HETATM   13  C8  UNL     1       3.231  -6.870 -17.860  1.00  0.00     0.255 A 
ENDBRANCH   1   8
TORSDOF 4
ENDMDL
MODEL 2
REMARK VINA RESULT: -4.778780247      5.714      7.667
REMARK  4 active torsions:
REMARK  status: ('A' for Active; 'I' for Inactive)
REMARK    1  A    between atoms: N1_1  and  C1_5 
REMARK    2  A    between atoms: C1_5  and  C2_6 
REMARK    3  A    between atoms: C2_6  and  C3_7 
REMARK    4  A    between atoms: C3_7  and  C4_8 
ROOT
HETATM    1  C3  UNL     1       0.684  -0.264 -17.785  1.00  0.00     0.008 C 
ENDROOT
BRANCH   1   2
HETATM    2  C2  UNL     1       0.993  -1.099 -18.994  1.00  0.00     0.028 C 
BRANCH   2   3
HETATM    3  C1  UNL     1       2.279  -1.871 -18.849  1.00  0.00     0.229 C 
BRANCH   3   4
HETATM    4  N1  UNL     1       2.934  -2.117 -20.099  1.00  0.00    -0.079 N 
ATOM      5  H13 UNL     1       2.257  -2.166 -20.861  1.00  0.00     0.274 HD
ATOM      6  H12 UNL     1       3.464  -1.299 -20.399  1.00  0.00     0.274 HD
ATOM      7  H11 UNL     1       3.525  -2.948 -20.087  1.00  0.00     0.274 HD
ENDBRANCH   3   4
ENDBRANCH   2   3
ENDBRANCH   1   2
BRANCH   1   8
HETATM    8  C4  UNL     1      -0.676   0.351 -17.968  1.00  0.00     0.022 C 
HETATM    9  C5  UNL     1      -1.595   0.156 -16.809  1.00  0.00     0.037 C 
HETATM   10  C6  UNL     1      -2.691  -0.744 -17.301  1.00  0.00     0.273 C 
HETATM   11  N2  UNL     1      -2.622  -0.778 -18.733  1.00  0.00     0.097 N 
HETATM   12  C7  UNL     1      -2.681   0.417 -19.515  1.00  0.00     0.309 A 
HETATM   13  C8  UNL     1      -1.380  -0.238 -19.156  1.00  0.00     0.255 A 
ENDBRANCH   1   8
TORSDOF 4
ENDMDL
MODEL 3
REMARK VINA RESULT: -4.747038172      5.518      7.633
REMARK  4 active torsions:
REMARK  status: ('A' for Active; 'I' for Inactive)
REMARK    1  A    between atoms: N1_1  and  C1_5 
REMARK    2  A    between atoms: C1_5  and  C2_6 
REMARK    3  A    between atoms: C2_6  and  C3_7 
REMARK    4  A    between atoms: C3_7  and  C4_8 
ROOT
HETATM    1  C3  UNL     1       0.895  -1.147 -18.971  1.00  0.00     0.008 C 
ENDROOT
BRANCH   1   2
HETATM    2  C2  UNL     1       1.676  -1.112 -20.254  1.00  0.00     0.028 C 
BRANCH   2   3
HETATM    3  C1  UNL     1       2.978  -1.865 -20.157  1.00  0.00     0.229 C 
BRANCH   3   4
HETATM    4  N1  UNL     1       3.037  -2.747 -19.028  1.00  0.00    -0.079 N 
ATOM      5  H13 UNL     1       2.693  -2.283 -18.187  1.00  0.00     0.274 HD
ATOM      6  H12 UNL     1       2.339  -3.486 -19.109  1.00  0.00     0.274 HD
ATOM      7  H11 UNL     1       3.965  -3.139 -18.873  1.00  0.00     0.274 HD
ENDBRANCH   3   4
ENDBRANCH   2   3
ENDBRANCH   1   2
BRANCH   1   8
HETATM    8  C4  UNL     1      -0.158  -0.074 -19.028  1.00  0.00     0.022 C 
HETATM    9  C5  UNL     1      -0.407   0.606 -17.723  1.00  0.00     0.037 C 
HETATM   10  C6  UNL     1      -1.799   0.218 -17.317  1.00  0.00     0.273 C 
HETATM   11  N2  UNL     1      -2.451  -0.345 -18.463  1.00  0.00     0.097 N 
HETATM   12  C7  UNL     1      -2.560   0.376 -19.692  1.00  0.00     0.309 A 
HETATM   13  C8  UNL     1      -1.482  -0.639 -19.457  1.00  0.00     0.255 A 
ENDBRANCH   1   8
TORSDOF 4
ENDMDL
MODEL 4
REMARK VINA RESULT: -4.728495569      4.932      6.740
REMARK  4 active torsions:
REMARK  status: ('A' for Active; 'I' for Inactive)
REMARK    1  A    between atoms: N1_1  and  C1_5 
REMARK    2  A    between atoms: C1_5  and  C2_6 
REMARK    3  A    between atoms: C2_6  and  C3_7 
REMARK    4  A    between atoms: C3_7  and  C4_8 
ROOT
HETATM    1  C3  UNL     1       1.294  -1.301 -16.230  1.00  0.00     0.008 C 
ENDROOT
BRANCH   1   2
HETATM    2  C2  UNL     1       2.795  -1.238 -16.240  1.00  0.00     0.028 C 
BRANCH   2   3
HETATM    3  C1  UNL     1       3.426  -2.401 -15.519  1.00  0.00     0.229 C 
BRANCH   3   4
HETATM    4  N1  UNL     1       3.437  -2.243 -14.095  1.00  0.00    -0.079 N 
ATOM      5  H13 UNL     1       2.527  -2.478 -13.696  1.00  0.00     0.274 HD
ATOM      6  H12 UNL     1       4.005  -2.966 -13.653  1.00  0.00     0.274 HD
ATOM      7  H11 UNL     1       3.735  -1.315 -13.796  1.00  0.00     0.274 HD
ENDBRANCH   3   4
ENDBRANCH   2   3
ENDBRANCH   1   2
BRANCH   1   8
HETATM    8  C4  UNL     1       0.776  -0.457 -17.362  1.00  0.00     0.022 C 
HETATM    9  C5  UNL     1      -0.621   0.030 -17.171  1.00  0.00     0.037 C 
HETATM   10  C6  UNL     1      -1.444  -0.663 -18.217  1.00  0.00     0.273 C 
HETATM   11  N2  UNL     1      -0.545  -1.229 -19.181  1.00  0.00     0.097 N 
HETATM   12  C7  UNL     1       0.417  -0.428 -19.869  1.00  0.00     0.309 A 
HETATM   13  C8  UNL     1       0.771  -1.228 -18.652  1.00  0.00     0.255 A 
ENDBRANCH   1   8
TORSDOF 4
ENDMDL
MODEL 5
REMARK VINA RESULT: -4.710486458      5.550      7.682
REMARK  4 active torsions:
REMARK  status: ('A' for Active; 'I' for Inactive)
REMARK    1  A    between atoms: N1_1  and  C1_5 
REMARK    2  A    between atoms: C1_5  and  C2_6 
REMARK    3  A    between atoms: C2_6  and  C3_7 
REMARK    4  A    between atoms: C3_7  and  C4_8 
ROOT
HETATM    1  C3  UNL     1       0.727  -0.736 -19.269  1.00  0.00     0.008 C 
ENDROOT
BRANCH   1   2
HETATM    2  C2  UNL     1       1.551  -1.446 -18.233  1.00  0.00     0.028 C 
BRANCH   2   3
HETATM    3  C1  UNL     1       2.763  -2.121 -18.822  1.00  0.00     0.229 C 
BRANCH   3   4
HETATM    4  N1  UNL     1       2.849  -1.983 -20.246  1.00  0.00    -0.079 N 
ATOM      5  H13 UNL     1       3.506  -1.246 -20.500  1.00  0.00     0.274 HD
ATOM      6  H12 UNL     1       3.327  -2.783 -20.660  1.00  0.00     0.274 HD
ATOM      7  H11 UNL     1       1.944  -1.831 -20.690  1.00  0.00     0.274 HD
ENDBRANCH   3   4
ENDBRANCH   2   3
ENDBRANCH   1   2
BRANCH   1   8
HETATM    8  C4  UNL     1      -0.719  -1.082 -19.045  1.00  0.00     0.022 C 
HETATM    9  C5  UNL     1      -1.628  -0.651 -20.147  1.00  0.00     0.037 C 
HETATM   10  C6  UNL     1      -2.503   0.419 -19.561  1.00  0.00     0.273 C 
HETATM   11  N2  UNL     1      -2.371   0.364 -18.134  1.00  0.00     0.097 N 
HETATM   12  C7  UNL     1      -2.632  -0.836 -17.404  1.00  0.00     0.309 A 
HETATM   13  C8  UNL     1      -1.244  -0.430 -17.798  1.00  0.00     0.255 A 
ENDBRANCH   1   8
TORSDOF 4
ENDMDL
