MODEL 1
REMARK VINA RESULT: -4.865677568      0.000      0.000
REMARK  4 active torsions:
REMARK  status: ('A' for Active; 'I' for Inactive)
REMARK    1  A    between atoms: N1_1  and  C1_5 
REMARK    2  A    between atoms: C1_5  and  C2_6 
REMARK    3  A    between atoms: C2_6  and  C3_7 
REMARK    4  A    between atoms: C3_7  and  N2_8 
ROOT
HETATM    1  C3  UNL     1       2.774  -3.407 -16.712  1.00  0.00     0.123 C 
ENDROOT
BRANCH   1   2
HETATM    2  C2  UNL     1       4.004  -4.260 -17.054  1.00  0.00     0.047 C 
BRANCH   2   3
HETATM    3  C1  UNL     1       3.861  -5.638 -16.421  1.00  0.00     0.231 C 
BRANCH   3   4
HETATM    4  N1  UNL     1       2.475  -5.892 -16.186  1.00  0.00    -0.079 N 
ATOM      5  H13 UNL     1       2.176  -5.595 -15.258  1.00  0.00     0.274 HD
ATOM      6  H12 UNL     1       1.868  -5.281 -16.733  1.00  0.00     0.274 HD
ATOM      7  H11 UNL     1       2.291  -6.881 -16.357  1.00  0.00     0.274 HD
ENDBRANCH   3   4
ENDBRANCH   2   3
ENDBRANCH   1   2
BRANCH   1   8
HETATM    8  N2  UNL     1       2.788  -2.299 -17.596  1.00  0.00    -0.393 N 
HETATM    9  C4  UNL     1       3.515  -2.378 -18.784  1.00  0.00     0.058 C 
HETATM   10  C5  UNL     1       2.862  -1.919 -20.038  1.00  0.00     0.044 C 
HETATM   11  C6  UNL     1       1.614  -1.134 -19.878  1.00  0.00     0.007 C 
HETATM   12  C7  UNL     1       0.807  -1.598 -18.681  1.00  0.00     0.020 C 
HETATM   13  C8  UNL     1       1.752  -1.350 -17.498  1.00  0.00     0.122 C 
ENDBRANCH   1   8
TORSDOF 4
ENDMDL
MODEL 2
REMARK VINA RESULT: -4.860538342      1.114      1.878
REMARK  4 active torsions:
REMARK  status: ('A' for Active; 'I' for Inactive)
REMARK    1  A    between atoms: N1_1  and  C1_5 
REMARK    2  A    between atoms: C1_5  and  C2_6 
REMARK    3  A    between atoms: C2_6  and  C3_7 
REMARK    4  A    between atoms: C3_7  and  N2_8 
ROOT
HETATM    1  C3  UNL     1       4.852  -3.846 -17.471  1.00  0.00     0.123 C 
ENDROOT
BRANCH   1   2
HETATM    2  C2  UNL     1       3.898  -4.967 -17.906  1.00  0.00     0.047 C 
BRANCH   2   3
HETATM    3  C1  UNL     1       3.656  -5.913 -16.736  1.00  0.00     0.231 C 
BRANCH   3   4
HETATM    4  N1  UNL     1       2.360  -5.652 -16.197  1.00  0.00    -0.079 N 
ATOM      5  H13 UNL     1       2.384  -5.473 -15.193  1.00  0.00     0.274 HD
ATOM      6  H12 UNL     1       1.989  -4.749 -16.493  1.00  0.00     0.274 HD
ATOM      7  H11 UNL     1       1.742  -6.426 -16.440  1.00  0.00     0.274 HD
ENDBRANCH   3   4
ENDBRANCH   2   3
ENDBRANCH   1   2
BRANCH   1   8
HETATM    8  N2  UNL     1       4.143  -2.627 -17.618  1.00  0.00    -0.393 N 
HETATM    9  C4  UNL     1       3.303  -2.450 -18.718  1.00  0.00     0.058 C 
HETATM   10  C5  UNL     1       1.945  -1.893 -18.482  1.00  0.00     0.044 C 
HETATM   11  C6  UNL     1       1.709  -1.287 -17.148  1.00  0.00     0.007 C 
HETATM   12  C7  UNL     1       2.477  -2.007 -16.058  1.00  0.00     0.020 C 
HETATM   13  C8  UNL     1       3.942  -1.827 -16.476  1.00  0.00     0.122 C 
ENDBRANCH   1   8
TORSDOF 4
ENDMDL
MODEL 3
REMARK VINA RESULT: -4.825409698      2.628      3.511
REMARK  4 active torsions:
REMARK  status: ('A' for Active; 'I' for Inactive)
REMARK    1  A    between atoms: N1_1  and  C1_5 
REMARK    2  A    between atoms: C1_5  and  C2_6 
REMARK    3  A    between atoms: C2_6  and  C3_7 
REMARK    4  A    between atoms: C3_7  and  N2_8 
ROOT
HETATM    1  C3  UNL     1       1.931  -0.830 -16.921  1.00  0.00     0.123 C 
ENDROOT
BRANCH   1   2
HETATM    2  C2  UNL     1       1.934  -1.759 -15.698  1.00  0.00     0.047 C 
BRANCH   2   3
HETATM    3  C1  UNL     1       3.371  -2.061 -15.291  1.00  0.00     0.231 C 
BRANCH   3   4
HETATM    4  N1  UNL     1       3.408  -2.299 -13.884  1.00  0.00    -0.079 N 
ATOM      5  H13 UNL     1       3.792  -1.510 -13.365  1.00  0.00     0.274 HD
ATOM      6  H12 UNL     1       2.478  -2.304 -13.464  1.00  0.00     0.274 HD
ATOM      7  H11 UNL     1       3.918  -3.165 -13.712  1.00  0.00     0.274 HD
ENDBRANCH   3   4
ENDBRANCH   2   3
ENDBRANCH   1   2
BRANCH   1   8
HETATM    8  N2  UNL     1       0.690  -1.025 -17.577  1.00  0.00    -0.393 N 
HETATM    9  C4  UNL     1      -0.450  -0.380 -17.097  1.00  0.00     0.058 C 
HETATM   10  C5  UNL     1      -1.335   0.304 -18.076  1.00  0.00     0.044 C 
HETATM   11  C6  UNL     1      -1.101  -0.016 -19.506  1.00  0.00     0.007 C 
HETATM   12  C7  UNL     1       0.366  -0.266 -19.794  1.00  0.00     0.020 C 
HETATM   13  C8  UNL     1       0.701  -1.476 -18.912  1.00  0.00     0.122 C 
ENDBRANCH   1   8
TORSDOF 4
ENDMDL
MODEL 4
REMARK VINA RESULT: -4.818110152      2.188      5.334
REMARK  4 active torsions:
REMARK  status: ('A' for Active; 'I' for Inactive)
REMARK    1  A    between atoms: N1_1  and  C1_5 
REMARK    2  A    between atoms: C1_5  and  C2_6 
REMARK    3  A    between atoms: C2_6  and  C3_7 
REMARK    4  A    between atoms: C3_7  and  N2_8 
ROOT
HETATM    1  C3  UNL     1       4.282  -5.217 -18.064  1.00  0.00     0.123 C 
ENDROOT
BRANCH   1   2
HETATM    2  C2  UNL     1       3.956  -4.050 -17.121  1.00  0.00     0.047 C 
BRANCH   2   3
HETATM    3  C1  UNL     1       3.961  -2.744 -17.906  1.00  0.00     0.231 C 
BRANCH   3   4
HETATM    4  N1  UNL     1       3.205  -2.926 -19.103  1.00  0.00    -0.079 N 
ATOM      5  H13 UNL     1       2.480  -2.218 -19.218  1.00  0.00     0.274 HD
ATOM      6  H12 UNL     1       3.744  -2.713 -19.942  1.00  0.00     0.274 HD
ATOM      7  H11 UNL     1       2.828  -3.874 -19.111  1.00  0.00     0.274 HD
ENDBRANCH   3   4
ENDBRANCH   2   3
ENDBRANCH   1   2
BRANCH   1   8
HETATM    8  N2  UNL     1       3.454  -6.299 -17.674  1.00  0.00    -0.393 N 
HETATM    9  C4  UNL     1       3.501  -7.494 -18.393  1.00  0.00     0.058 C 
HETATM   10  C5  UNL     1       3.585  -8.769 -17.632  1.00  0.00     0.044 C 
HETATM   11  C6  UNL     1       3.300  -8.684 -16.179  1.00  0.00     0.007 C 
HETATM   12  C7  UNL     1       3.772  -7.369 -15.589  1.00  0.00     0.020 C 
HETATM   13  C8  UNL     1       2.956  -6.321 -16.357  1.00  0.00     0.122 C 
ENDBRANCH   1   8
TORSDOF 4
ENDMDL
MODEL 5
REMARK VINA RESULT: -4.781591369      2.547      5.433
REMARK  4 active torsions:
REMARK  status: ('A' for Active; 'I' for Inactive)
REMARK    1  A    between atoms: N1_1  and  C1_5 
REMARK    2  A    between atoms: C1_5  and  C2_6 
REMARK    3  A    between atoms: C2_6  and  C3_7 
REMARK    4  A    between atoms: C3_7  and  N2_8 
ROOT
HETATM    1  C3  UNL     1       4.168  -5.536 -16.293  1.00  0.00     0.123 C 
ENDROOT
BRANCH   1   2
HETATM    2  C2  UNL     1       4.166  -5.099 -17.766  1.00  0.00     0.047 C 
BRANCH   2   3
HETATM    3  C1  UNL     1       4.216  -3.578 -17.847  1.00  0.00     0.231 C 
BRANCH   3   4
HETATM    4  N1  UNL     1       3.355  -3.148 -18.901  1.00  0.00    -0.079 N 
ATOM      5  H13 UNL     1       3.352  -3.794 -19.690  1.00  0.00     0.274 HD
ATOM      6  H12 UNL     1       2.368  -3.222 -18.654  1.00  0.00     0.274 HD
ATOM      7  H11 UNL     1       3.619  -2.201 -19.173  1.00  0.00     0.274 HD
ENDBRANCH   3   4
ENDBRANCH   2   3
ENDBRANCH   1   2
BRANCH   1   8
HETATM    8  N2  UNL     1       3.198  -6.562 -16.172  1.00  0.00    -0.393 N 
HETATM    9  C4  UNL     1       2.035  -6.502 -16.940  1.00  0.00     0.058 C 
HETATM   10  C5  UNL     1       1.594  -7.735 -17.644  1.00  0.00     0.044 C 
HETATM   11  C6  UNL     1       2.250  -8.998 -17.225  1.00  0.00     0.007 C 
HETATM   12  C7  UNL     1       3.697  -8.777 -16.832  1.00  0.00     0.020 C 
HETATM   13  C8  UNL     1       3.600  -7.806 -15.648  1.00  0.00     0.122 C 
ENDBRANCH   1   8
TORSDOF 4
ENDMDL
