MODEL 1
REMARK VINA RESULT: -8.476741713      0.000      0.000
REMARK  13 active torsions:
REMARK  status: ('A' for Active; 'I' for Inactive)
REMARK    1  A    between atoms: C2_2  and  C3_3 
REMARK    2  A    between atoms: C3_3  and  O1_4 
REMARK    3  A    between atoms: O1_4  and  C4_5 
REMARK    4  A    between atoms: C5_7  and  C6_8 
REMARK    5  A    between atoms: C6_8  and  O3_9 
REMARK    6  A    between atoms: C7_11  and  O4_12 
REMARK    7  A    between atoms: C8_14  and  O5_15 
REMARK    8  A    between atoms: C9_17  and  O6_18 
REMARK    9  A    between atoms: C10_21  and  C11_22 
REMARK   10  A    between atoms: C11_22  and  S1_23 
REMARK   11  A    between atoms: S1_23  and  C12_24 
REMARK   12  A    between atoms: C12_24  and  C13_25 
REMARK   13  A    between atoms: C20_33  and  O9_34 
ROOT
HETATM    1  C1  UNL     1      -0.721   2.155  17.716  1.00  0.00     0.051 C 
HETATM    2  C2  UNL     1      -0.841   1.412  16.427  1.00  0.00     0.109 C 
HETATM    3  O7  UNL     1      -2.157   1.335  15.968  1.00  0.00    -0.345 OA
HETATM    4  C10 UNL     1      -2.615   2.628  15.728  1.00  0.00     0.270 C 
HETATM    5  O8  UNL     1      -1.934   3.258  14.717  1.00  0.00    -0.358 OA
HETATM    6  C19 UNL     1      -0.575   3.303  14.898  1.00  0.00     0.205 C 
HETATM    7  C20 UNL     1      -0.014   1.978  15.301  1.00  0.00     0.178 C 
ENDROOT
BRANCH   2   8
HETATM    8  C3  UNL     1      -0.324  -0.010  16.675  1.00  0.00     0.211 C 
BRANCH   8   9
HETATM    9  O1  UNL     1      -1.305  -0.854  16.197  1.00  0.00    -0.355 OA
BRANCH   9  10
HETATM   10  C4  UNL     1      -1.492  -1.987  17.003  1.00  0.00     0.291 C 
HETATM   11  O2  UNL     1      -0.733  -1.817  18.132  1.00  0.00    -0.348 OA
HETATM   12  C5  UNL     1      -0.953  -2.708  19.151  1.00  0.00     0.179 C 
HETATM   13  C7  UNL     1      -2.391  -2.686  19.553  1.00  0.00     0.180 C 
HETATM   14  C8  UNL     1      -3.296  -3.007  18.407  1.00  0.00     0.183 C 
HETATM   15  C9  UNL     1      -2.981  -2.057  17.272  1.00  0.00     0.204 C 
BRANCH  12  16
HETATM   16  C6  UNL     1      -0.428  -4.095  18.879  1.00  0.00     0.198 C 
BRANCH  16  17
HETATM   17  O3  UNL     1       0.069  -4.589  20.102  1.00  0.00    -0.398 OA
ATOM     18  H3  UNL     1       1.016  -4.595  20.031  1.00  0.00     0.209 HD
ENDBRANCH  16  17
ENDBRANCH  12  16
BRANCH  13  19
HETATM   19  O4  UNL     1      -2.624  -3.522  20.649  1.00  0.00    -0.390 OA
ATOM     20  H4  UNL     1      -2.282  -4.396  20.496  1.00  0.00     0.210 HD
ENDBRANCH  13  19
BRANCH  14  21
HETATM   21  O5  UNL     1      -3.277  -4.332  18.030  1.00  0.00    -0.390 OA
ATOM     22  H5  UNL     1      -4.118  -4.664  17.738  1.00  0.00     0.210 HD
ENDBRANCH  14  21
BRANCH  15  23
HETATM   23  O6  UNL     1      -3.417  -0.792  17.666  1.00  0.00    -0.388 OA
ATOM     24  H6  UNL     1      -3.823  -0.868  18.521  1.00  0.00     0.210 HD
ENDBRANCH  15  23
ENDBRANCH   9  10
ENDBRANCH   8   9
ENDBRANCH   2   8
BRANCH   7  25
HETATM   25  O9  UNL     1      -0.073   1.043  14.256  1.00  0.00    -0.390 OA
ATOM     26  H9  UNL     1       0.630   1.264  13.657  1.00  0.00     0.210 HD
ENDBRANCH   7  25
BRANCH   4  27
HETATM   27  C11 UNL     1      -4.099   2.599  15.528  1.00  0.00     0.134 C 
BRANCH  27  28
HETATM   28  S1  UNL     1      -4.659   1.039  14.793  1.00  0.00    -0.164 SA
BRANCH  28  29
HETATM   29  C12 UNL     1      -5.118   1.363  13.067  1.00  0.00     0.078 C 
BRANCH  29  30
HETATM   30  C13 UNL     1      -6.617   1.087  12.871  1.00  0.00    -0.005 C 
HETATM   31  C14 UNL     1      -7.424   1.643  13.964  1.00  0.00     0.005 C 
HETATM   32  C15 UNL     1      -8.439   2.662  13.629  1.00  0.00     0.000 C 
HETATM   33  C16 UNL     1      -8.939   2.649  12.222  1.00  0.00     0.000 C 
HETATM   34  C17 UNL     1      -7.693   2.765  11.334  1.00  0.00     0.000 C 
HETATM   35  C18 UNL     1      -6.958   1.477  11.486  1.00  0.00     0.005 C 
ENDBRANCH  29  30
ENDBRANCH  28  29
ENDBRANCH  27  28
ENDBRANCH   4  27
TORSDOF 13
ENDMDL
MODEL 2
REMARK VINA RESULT: -8.452006316      1.959      3.152
REMARK  13 active torsions:
REMARK  status: ('A' for Active; 'I' for Inactive)
REMARK    1  A    between atoms: C2_2  and  C3_3 
REMARK    2  A    between atoms: C3_3  and  O1_4 
REMARK    3  A    between atoms: O1_4  and  C4_5 
REMARK    4  A    between atoms: C5_7  and  C6_8 
REMARK    5  A    between atoms: C6_8  and  O3_9 
REMARK    6  A    between atoms: C7_11  and  O4_12 
REMARK    7  A    between atoms: C8_14  and  O5_15 
REMARK    8  A    between atoms: C9_17  and  O6_18 
REMARK    9  A    between atoms: C10_21  and  C11_22 
REMARK   10  A    between atoms: C11_22  and  S1_23 
REMARK   11  A    between atoms: S1_23  and  C12_24 
REMARK   12  A    between atoms: C12_24  and  C13_25 
REMARK   13  A    between atoms: C20_33  and  O9_34 
ROOT
HETATM    1  C1  UNL     1      -0.779   1.500  19.474  1.00  0.00     0.051 C 
HETATM    2  C2  UNL     1      -1.625   0.973  18.363  1.00  0.00     0.109 C 
HETATM    3  O7  UNL     1      -2.442   1.950  17.796  1.00  0.00    -0.345 OA
HETATM    4  C10 UNL     1      -1.629   2.936  17.242  1.00  0.00     0.270 C 
HETATM    5  O8  UNL     1      -0.864   2.477  16.199  1.00  0.00    -0.358 OA
HETATM    6  C19 UNL     1      -0.085   1.391  16.509  1.00  0.00     0.205 C 
HETATM    7  C20 UNL     1      -0.852   0.335  17.238  1.00  0.00     0.178 C 
ENDROOT
BRANCH   2   8
HETATM    8  C3  UNL     1      -2.515  -0.126  18.957  1.00  0.00     0.211 C 
BRANCH   8   9
HETATM    9  O1  UNL     1      -1.740  -1.267  18.978  1.00  0.00    -0.355 OA
BRANCH   9  10
HETATM   10  C4  UNL     1      -2.426  -2.386  19.469  1.00  0.00     0.291 C 
HETATM   11  O2  UNL     1      -3.750  -2.044  19.571  1.00  0.00    -0.348 OA
HETATM   12  C5  UNL     1      -4.625  -3.071  19.816  1.00  0.00     0.179 C 
HETATM   13  C7  UNL     1      -4.499  -4.119  18.760  1.00  0.00     0.180 C 
HETATM   14  C8  UNL     1      -3.108  -4.660  18.675  1.00  0.00     0.183 C 
HETATM   15  C9  UNL     1      -2.157  -3.499  18.478  1.00  0.00     0.204 C 
BRANCH  12  16
HETATM   16  C6  UNL     1      -4.551  -3.620  21.218  1.00  0.00     0.198 C 
BRANCH  16  17
HETATM   17  O3  UNL     1      -4.872  -2.559  22.089  1.00  0.00    -0.398 OA
ATOM     18  H3  UNL     1      -4.457  -2.751  22.921  1.00  0.00     0.209 HD
ENDBRANCH  16  17
ENDBRANCH  12  16
BRANCH  13  19
HETATM   19  O4  UNL     1      -5.442  -5.135  18.938  1.00  0.00    -0.390 OA
ATOM     20  H4  UNL     1      -5.240  -5.892  18.400  1.00  0.00     0.210 HD
ENDBRANCH  13  19
BRANCH  14  21
HETATM   21  O5  UNL     1      -2.758  -5.479  19.726  1.00  0.00    -0.390 OA
ATOM     22  H5  UNL     1      -1.824  -5.639  19.798  1.00  0.00     0.210 HD
ENDBRANCH  14  21
BRANCH  15  23
HETATM   23  O6  UNL     1      -2.377  -3.005  17.192  1.00  0.00    -0.388 OA
ATOM     24  H6  UNL     1      -1.986  -3.607  16.569  1.00  0.00     0.210 HD
ENDBRANCH  15  23
ENDBRANCH   9  10
ENDBRANCH   8   9
ENDBRANCH   2   8
BRANCH   7  25
HETATM   25  O9  UNL     1      -1.797  -0.291  16.411  1.00  0.00    -0.390 OA
ATOM     26  H9  UNL     1      -2.616   0.173  16.540  1.00  0.00     0.210 HD
ENDBRANCH   7  25
BRANCH   4  27
HETATM   27  C11 UNL     1      -2.463   4.132  16.898  1.00  0.00     0.134 C 
BRANCH  27  28
HETATM   28  S1  UNL     1      -3.014   4.106  15.171  1.00  0.00    -0.164 SA
BRANCH  28  29
HETATM   29  C12 UNL     1      -4.148   2.703  14.964  1.00  0.00     0.078 C 
BRANCH  29  30
HETATM   30  C13 UNL     1      -4.114   2.225  13.503  1.00  0.00    -0.005 C 
HETATM   31  C14 UNL     1      -3.359   0.976  13.352  1.00  0.00     0.005 C 
HETATM   32  C15 UNL     1      -4.071  -0.207  12.829  1.00  0.00     0.000 C 
HETATM   33  C16 UNL     1      -5.284   0.071  12.006  1.00  0.00     0.000 C 
HETATM   34  C17 UNL     1      -6.191   0.948  12.880  1.00  0.00     0.000 C 
HETATM   35  C18 UNL     1      -5.503   2.264  12.996  1.00  0.00     0.005 C 
ENDBRANCH  29  30
ENDBRANCH  28  29
ENDBRANCH  27  28
ENDBRANCH   4  27
TORSDOF 13
ENDMDL
MODEL 3
REMARK VINA RESULT: -8.377320877      1.766      5.949
REMARK  13 active torsions:
REMARK  status: ('A' for Active; 'I' for Inactive)
REMARK    1  A    between atoms: C2_2  and  C3_3 
REMARK    2  A    between atoms: C3_3  and  O1_4 
REMARK    3  A    between atoms: O1_4  and  C4_5 
REMARK    4  A    between atoms: C5_7  and  C6_8 
REMARK    5  A    between atoms: C6_8  and  O3_9 
REMARK    6  A    between atoms: C7_11  and  O4_12 
REMARK    7  A    between atoms: C8_14  and  O5_15 
REMARK    8  A    between atoms: C9_17  and  O6_18 
REMARK    9  A    between atoms: C10_21  and  C11_22 
REMARK   10  A    between atoms: C11_22  and  S1_23 
REMARK   11  A    between atoms: S1_23  and  C12_24 
REMARK   12  A    between atoms: C12_24  and  C13_25 
REMARK   13  A    between atoms: C20_33  and  O9_34 
ROOT
HETATM    1  C1  UNL     1      -0.706  -1.859  16.567  1.00  0.00     0.051 C 
HETATM    2  C2  UNL     1      -1.401  -0.958  17.533  1.00  0.00     0.109 C 
HETATM    3  O7  UNL     1      -2.789  -1.000  17.408  1.00  0.00    -0.345 OA
HETATM    4  C10 UNL     1      -3.217  -2.295  17.693  1.00  0.00     0.270 C 
HETATM    5  O8  UNL     1      -2.976  -2.665  18.992  1.00  0.00    -0.358 OA
HETATM    6  C19 UNL     1      -1.665  -2.544  19.376  1.00  0.00     0.205 C 
HETATM    7  C20 UNL     1      -1.079  -1.227  18.980  1.00  0.00     0.178 C 
ENDROOT
BRANCH   2   8
HETATM    8  C3  UNL     1      -0.926   0.470  17.240  1.00  0.00     0.211 C 
BRANCH   8   9
HETATM    9  O1  UNL     1      -2.053   1.262  17.305  1.00  0.00    -0.355 OA
BRANCH   9  10
HETATM   10  C4  UNL     1      -1.864   2.532  16.743  1.00  0.00     0.291 C 
HETATM   11  O2  UNL     1      -1.688   2.362  15.394  1.00  0.00    -0.348 OA
HETATM   12  C5  UNL     1      -1.715   3.500  14.629  1.00  0.00     0.179 C 
HETATM   13  C7  UNL     1      -2.999   4.232  14.839  1.00  0.00     0.180 C 
HETATM   14  C8  UNL     1      -3.208   4.591  16.276  1.00  0.00     0.183 C 
HETATM   15  C9  UNL     1      -3.100   3.329  17.102  1.00  0.00     0.204 C 
BRANCH  12  16
HETATM   16  C6  UNL     1      -0.495   4.373  14.784  1.00  0.00     0.198 C 
BRANCH  16  17
HETATM   17  O3  UNL     1      -0.423   5.180  13.630  1.00  0.00    -0.398 OA
ATOM     18  H3  UNL     1      -0.854   4.700  12.933  1.00  0.00     0.209 HD
ENDBRANCH  16  17
ENDBRANCH  12  16
BRANCH  13  19
HETATM   19  O4  UNL     1      -3.088   5.351  14.005  1.00  0.00    -0.390 OA
ATOM     20  H4  UNL     1      -2.762   6.131  14.439  1.00  0.00     0.210 HD
ENDBRANCH  13  19
BRANCH  14  21
HETATM   21  O5  UNL     1      -2.394   5.608  16.725  1.00  0.00    -0.390 OA
ATOM     22  H5  UNL     1      -2.020   5.455  17.584  1.00  0.00     0.210 HD
ENDBRANCH  14  21
BRANCH  15  23
HETATM   23  O6  UNL     1      -4.223   2.553  16.811  1.00  0.00    -0.388 OA
ATOM     24  H6  UNL     1      -4.993   3.010  17.129  1.00  0.00     0.210 HD
ENDBRANCH  15  23
ENDBRANCH   9  10
ENDBRANCH   8   9
ENDBRANCH   2   8
BRANCH   7  25
HETATM   25  O9  UNL     1      -1.630  -0.166  19.714  1.00  0.00    -0.390 OA
ATOM     26  H9  UNL     1      -2.563  -0.171  19.535  1.00  0.00     0.210 HD
ENDBRANCH   7  25
BRANCH   4  27
HETATM   27  C11 UNL     1      -4.648  -2.446  17.278  1.00  0.00     0.134 C 
BRANCH  27  28
HETATM   28  S1  UNL     1      -5.416  -0.853  16.876  1.00  0.00    -0.164 SA
BRANCH  28  29
HETATM   29  C12 UNL     1      -6.040  -0.944  15.174  1.00  0.00     0.078 C 
BRANCH  29  30
HETATM   30  C13 UNL     1      -5.652   0.334  14.414  1.00  0.00    -0.005 C 
HETATM   31  C14 UNL     1      -5.225   0.047  13.040  1.00  0.00     0.005 C 
HETATM   32  C15 UNL     1      -5.998   0.644  11.932  1.00  0.00     0.000 C 
HETATM   33  C16 UNL     1      -6.767   1.880  12.264  1.00  0.00     0.000 C 
HETATM   34  C17 UNL     1      -7.661   1.509  13.455  1.00  0.00     0.000 C 
HETATM   35  C18 UNL     1      -6.743   1.312  14.613  1.00  0.00     0.005 C 
ENDBRANCH  29  30
ENDBRANCH  28  29
ENDBRANCH  27  28
ENDBRANCH   4  27
TORSDOF 13
ENDMDL
MODEL 4
REMARK VINA RESULT: -8.333450704      1.400      2.444
REMARK  13 active torsions:
REMARK  status: ('A' for Active; 'I' for Inactive)
REMARK    1  A    between atoms: C2_2  and  C3_3 
REMARK    2  A    between atoms: C3_3  and  O1_4 
REMARK    3  A    between atoms: O1_4  and  C4_5 
REMARK    4  A    between atoms: C5_7  and  C6_8 
REMARK    5  A    between atoms: C6_8  and  O3_9 
REMARK    6  A    between atoms: C7_11  and  O4_12 
REMARK    7  A    between atoms: C8_14  and  O5_15 
REMARK    8  A    between atoms: C9_17  and  O6_18 
REMARK    9  A    between atoms: C10_21  and  C11_22 
REMARK   10  A    between atoms: C11_22  and  S1_23 
REMARK   11  A    between atoms: S1_23  and  C12_24 
REMARK   12  A    between atoms: C12_24  and  C13_25 
REMARK   13  A    between atoms: C20_33  and  O9_34 
ROOT
HETATM    1  C1  UNL     1      -0.733   1.907  18.596  1.00  0.00     0.051 C 
HETATM    2  C2  UNL     1      -1.029   1.034  17.422  1.00  0.00     0.109 C 
HETATM    3  O7  UNL     1      -2.347   1.149  16.981  1.00  0.00    -0.345 OA
HETATM    4  C10 UNL     1      -2.558   2.462  16.565  1.00  0.00     0.270 C 
HETATM    5  O8  UNL     1      -1.799   2.808  15.476  1.00  0.00    -0.358 OA
HETATM    6  C19 UNL     1      -0.451   2.615  15.647  1.00  0.00     0.205 C 
HETATM    7  C20 UNL     1      -0.141   1.273  16.228  1.00  0.00     0.178 C 
ENDROOT
BRANCH   2   8
HETATM    8  C3  UNL     1      -0.784  -0.414  17.862  1.00  0.00     0.211 C 
BRANCH   8   9
HETATM    9  O1  UNL     1      -1.761  -1.165  17.242  1.00  0.00    -0.355 OA
BRANCH   9  10
HETATM   10  C4  UNL     1      -2.628  -1.791  18.148  1.00  0.00     0.291 C 
HETATM   11  O2  UNL     1      -3.872  -1.820  17.573  1.00  0.00    -0.348 OA
HETATM   12  C5  UNL     1      -4.814  -2.595  18.201  1.00  0.00     0.179 C 
HETATM   13  C7  UNL     1      -4.327  -4.002  18.321  1.00  0.00     0.180 C 
HETATM   14  C8  UNL     1      -3.035  -4.083  19.070  1.00  0.00     0.183 C 
HETATM   15  C9  UNL     1      -2.038  -3.163  18.399  1.00  0.00     0.204 C 
BRANCH  12  16
HETATM   16  C6  UNL     1      -5.314  -2.020  19.502  1.00  0.00     0.198 C 
BRANCH  16  17
HETATM   17  O3  UNL     1      -6.390  -1.166  19.182  1.00  0.00    -0.398 OA
ATOM     18  H3  UNL     1      -7.142  -1.723  19.021  1.00  0.00     0.209 HD
ENDBRANCH  16  17
ENDBRANCH  12  16
BRANCH  13  19
HETATM   19  O4  UNL     1      -5.305  -4.831  18.879  1.00  0.00    -0.390 OA
ATOM     20  H4  UNL     1      -4.925  -5.440  19.502  1.00  0.00     0.210 HD
ENDBRANCH  13  19
BRANCH  14  21
HETATM   21  O5  UNL     1      -3.156  -3.861  20.424  1.00  0.00    -0.390 OA
ATOM     22  H5  UNL     1      -4.049  -3.908  20.746  1.00  0.00     0.210 HD
ENDBRANCH  14  21
BRANCH  15  23
HETATM   23  O6  UNL     1      -1.719  -3.736  17.168  1.00  0.00    -0.388 OA
ATOM     24  H6  UNL     1      -1.989  -4.647  17.182  1.00  0.00     0.210 HD
ENDBRANCH  15  23
ENDBRANCH   9  10
ENDBRANCH   8   9
ENDBRANCH   2   8
BRANCH   7  25
HETATM   25  O9  UNL     1      -0.406   0.236  15.322  1.00  0.00    -0.390 OA
ATOM     26  H9  UNL     1      -0.947   0.609  14.636  1.00  0.00     0.210 HD
ENDBRANCH   7  25
BRANCH   4  27
HETATM   27  C11 UNL     1      -4.026   2.691  16.374  1.00  0.00     0.134 C 
BRANCH  27  28
HETATM   28  S1  UNL     1      -4.922   1.148  16.051  1.00  0.00    -0.164 SA
BRANCH  28  29
HETATM   29  C12 UNL     1      -4.659   0.698  14.313  1.00  0.00     0.078 C 
BRANCH  29  30
HETATM   30  C13 UNL     1      -6.010   0.383  13.651  1.00  0.00    -0.005 C 
HETATM   31  C14 UNL     1      -7.136   0.636  14.557  1.00  0.00     0.005 C 
HETATM   32  C15 UNL     1      -8.140   1.641  14.154  1.00  0.00     0.000 C 
HETATM   33  C16 UNL     1      -8.246   1.908  12.689  1.00  0.00     0.000 C 
HETATM   34  C17 UNL     1      -6.833   2.290  12.230  1.00  0.00     0.000 C 
HETATM   35  C18 UNL     1      -6.017   1.047  12.330  1.00  0.00     0.005 C 
ENDBRANCH  29  30
ENDBRANCH  28  29
ENDBRANCH  27  28
ENDBRANCH   4  27
TORSDOF 13
ENDMDL
MODEL 5
REMARK VINA RESULT: -8.323635480      1.393      2.444
REMARK  13 active torsions:
REMARK  status: ('A' for Active; 'I' for Inactive)
REMARK    1  A    between atoms: C2_2  and  C3_3 
REMARK    2  A    between atoms: C3_3  and  O1_4 
REMARK    3  A    between atoms: O1_4  and  C4_5 
REMARK    4  A    between atoms: C5_7  and  C6_8 
REMARK    5  A    between atoms: C6_8  and  O3_9 
REMARK    6  A    between atoms: C7_11  and  O4_12 
REMARK    7  A    between atoms: C8_14  and  O5_15 
REMARK    8  A    between atoms: C9_17  and  O6_18 
REMARK    9  A    between atoms: C10_21  and  C11_22 
REMARK   10  A    between atoms: C11_22  and  S1_23 
REMARK   11  A    between atoms: S1_23  and  C12_24 
REMARK   12  A    between atoms: C12_24  and  C13_25 
REMARK   13  A    between atoms: C20_33  and  O9_34 
ROOT
HETATM    1  C1  UNL     1      -1.466   2.627  17.149  1.00  0.00     0.051 C 
HETATM    2  C2  UNL     1      -1.223   1.728  15.982  1.00  0.00     0.109 C 
HETATM    3  O7  UNL     1      -2.312   1.663  15.113  1.00  0.00    -0.345 OA
HETATM    4  C10 UNL     1      -2.537   2.936  14.595  1.00  0.00     0.270 C 
HETATM    5  O8  UNL     1      -1.501   3.389  13.817  1.00  0.00    -0.358 OA
HETATM    6  C19 UNL     1      -0.282   3.382  14.446  1.00  0.00     0.205 C 
HETATM    7  C20 UNL     1      -0.018   2.092  15.154  1.00  0.00     0.178 C 
ENDROOT
BRANCH   2   8
HETATM    8  C3  UNL     1      -0.958   0.325  16.541  1.00  0.00     0.211 C 
BRANCH   8   9
HETATM    9  O1  UNL     1      -2.034  -0.444  16.151  1.00  0.00    -0.355 OA
BRANCH   9  10
HETATM   10  C4  UNL     1      -2.778  -0.935  17.234  1.00  0.00     0.291 C 
HETATM   11  O2  UNL     1      -4.077  -1.062  16.815  1.00  0.00    -0.348 OA
HETATM   12  C5  UNL     1      -4.922  -1.742  17.655  1.00  0.00     0.179 C 
HETATM   13  C7  UNL     1      -4.387  -3.110  17.927  1.00  0.00     0.180 C 
HETATM   14  C8  UNL     1      -3.018  -3.065  18.527  1.00  0.00     0.183 C 
HETATM   15  C9  UNL     1      -2.127  -2.248  17.617  1.00  0.00     0.204 C 
BRANCH  12  16
HETATM   16  C6  UNL     1      -5.288  -0.982  18.905  1.00  0.00     0.198 C 
BRANCH  16  17
HETATM   17  O3  UNL     1      -6.669  -1.181  19.111  1.00  0.00    -0.398 OA
ATOM     18  H3  UNL     1      -6.761  -2.002  19.579  1.00  0.00     0.209 HD
ENDBRANCH  16  17
ENDBRANCH  12  16
BRANCH  13  19
HETATM   19  O4  UNL     1      -5.274  -3.855  18.711  1.00  0.00    -0.390 OA
ATOM     20  H4  UNL     1      -6.171  -3.571  18.579  1.00  0.00     0.210 HD
ENDBRANCH  13  19
BRANCH  14  21
HETATM   21  O5  UNL     1      -2.993  -2.642  19.838  1.00  0.00    -0.390 OA
ATOM     22  H5  UNL     1      -3.452  -1.824  19.991  1.00  0.00     0.210 HD
ENDBRANCH  14  21
BRANCH  15  23
HETATM   23  O6  UNL     1      -1.932  -2.997  16.456  1.00  0.00    -0.388 OA
ATOM     24  H6  UNL     1      -1.523  -3.820  16.697  1.00  0.00     0.210 HD
ENDBRANCH  15  23
ENDBRANCH   9  10
ENDBRANCH   8   9
ENDBRANCH   2   8
BRANCH   7  25
HETATM   25  O9  UNL     1       0.183   1.033  14.257  1.00  0.00    -0.390 OA
ATOM     26  H9  UNL     1       1.015   1.198  13.828  1.00  0.00     0.210 HD
ENDBRANCH   7  25
BRANCH   4  27
HETATM   27  C11 UNL     1      -3.866   2.963  13.905  1.00  0.00     0.134 C 
BRANCH  27  28
HETATM   28  S1  UNL     1      -4.653   1.329  13.875  1.00  0.00    -0.164 SA
BRANCH  28  29
HETATM   29  C12 UNL     1      -6.274   1.472  14.681  1.00  0.00     0.078 C 
BRANCH  29  30
HETATM   30  C13 UNL     1      -7.386   1.229  13.648  1.00  0.00    -0.005 C 
HETATM   31  C14 UNL     1      -8.635   1.904  14.017  1.00  0.00     0.005 C 
HETATM   32  C15 UNL     1      -9.174   2.923  13.094  1.00  0.00     0.000 C 
HETATM   33  C16 UNL     1      -8.748   2.803  11.668  1.00  0.00     0.000 C 
HETATM   34  C17 UNL     1      -7.214   2.800  11.689  1.00  0.00     0.000 C 
HETATM   35  C18 UNL     1      -6.813   1.507  12.313  1.00  0.00     0.005 C 
ENDBRANCH  29  30
ENDBRANCH  28  29
ENDBRANCH  27  28
ENDBRANCH   4  27
TORSDOF 13
ENDMDL
