MODEL 1
REMARK VINA RESULT: -6.598979592      0.000      0.000
REMARK  17 active torsions:
REMARK  status: ('A' for Active; 'I' for Inactive)
REMARK    1  A    between atoms: C2_2  and  C3_3 
REMARK    2  A    between atoms: C3_3  and  N1_4 
REMARK    3  A    between atoms: N1_4  and  C4_6 
REMARK    4  A    between atoms: C4_6  and  S2_16 
REMARK    5  A    between atoms: N2_7  and  C5_9 
REMARK    6  A    between atoms: C5_9  and  C6_10 
REMARK    7  A    between atoms: C6_10  and  S1_11 
REMARK    8  A    between atoms: S1_11  and  C7_12 
REMARK    9  A    between atoms: C7_12  and  C8_13 
REMARK   10  A    between atoms: C8_13  and  O1_14 
REMARK   11  A    between atoms: S2_16  and  S3_17 
REMARK   12  A    between atoms: S3_17  and  C9_18 
REMARK   13  A    between atoms: C10_20  and  C11_21 
REMARK   14  A    between atoms: C11_21  and  O3_22 
REMARK   15  A    between atoms: C12_24  and  O4_25 
REMARK   16  A    between atoms: C13_27  and  O5_28 
REMARK   17  A    between atoms: N3_30  and  C14_31 
ROOT
HETATM    1  S3  UNL     1      -0.961   1.977  18.241  1.00  0.00    -0.036 SA
ENDROOT
BRANCH   1   2
HETATM    2  S2  UNL     1      -2.205   0.471  18.997  1.00  0.00    -0.018 SA
BRANCH   2   3
HETATM    3  C4  UNL     1      -2.576  -0.863  17.933  1.00  0.00     0.146 C 
HETATM    4  N2  UNL     1      -3.815  -1.235  17.819  1.00  0.00    -0.370 N 
ATOM      5  H2  UNL     1      -4.061  -2.013  17.207  1.00  0.00     0.161 HD
BRANCH   3   6
HETATM    6  N1  UNL     1      -1.636  -1.616  17.152  1.00  0.00    -0.370 N 
ATOM      7  H1  UNL     1      -1.808  -1.808  16.165  1.00  0.00     0.161 HD
BRANCH   6   8
HETATM    8  C3  UNL     1      -0.436  -2.097  17.807  1.00  0.00     0.121 C 
BRANCH   8   9
HETATM    9  C2  UNL     1      -0.797  -2.862  19.045  1.00  0.00     0.015 C 
HETATM   10  C1  UNL     1      -0.364  -4.313  18.964  1.00  0.00     0.006 C 
ENDBRANCH   8   9
ENDBRANCH   6   8
ENDBRANCH   3   6
BRANCH   4  11
HETATM   11  C5  UNL     1      -4.847  -0.546  18.562  1.00  0.00     0.132 C 
BRANCH  11  12
HETATM   12  C6  UNL     1      -5.642  -1.540  19.372  1.00  0.00     0.093 C 
BRANCH  12  13
HETATM   13  S1  UNL     1      -4.631  -2.420  20.527  1.00  0.00    -0.165 SA
BRANCH  13  14
HETATM   14  C7  UNL     1      -4.230  -4.101  20.212  1.00  0.00     0.100 C 
BRANCH  14  15
HETATM   15  C8  UNL     1      -4.579  -4.604  18.841  1.00  0.00     0.174 C 
BRANCH  15  16
HETATM   16  O1  UNL     1      -3.741  -4.125  17.858  1.00  0.00    -0.400 OA
ATOM     17  H1  UNL     1      -3.148  -4.784  17.517  1.00  0.00     0.209 HD
ENDBRANCH  15  16
ENDBRANCH  14  15
ENDBRANCH  13  14
ENDBRANCH  12  13
ENDBRANCH  11  12
ENDBRANCH   4  11
ENDBRANCH   2   3
ENDBRANCH   1   2
BRANCH   1  18
HETATM   18  C9  UNL     1      -0.961   2.027  16.472  1.00  0.00     0.302 C 
HETATM   19  O2  UNL     1      -0.295   3.170  15.972  1.00  0.00    -0.346 OA
HETATM   20  C10 UNL     1      -0.064   3.067  14.618  1.00  0.00     0.181 C 
HETATM   21  C12 UNL     1      -0.862   2.169  13.785  1.00  0.00     0.198 C 
HETATM   22  C13 UNL     1      -2.077   1.516  14.421  1.00  0.00     0.255 C 
HETATM   23  N3  UNL     1      -2.217   2.119  15.786  1.00  0.00    -0.310 N 
BRANCH  20  24
HETATM   24  C11 UNL     1      -0.094   4.505  14.082  1.00  0.00     0.199 C 
BRANCH  24  25
HETATM   25  O3  UNL     1      -1.399   4.977  13.963  1.00  0.00    -0.398 OA
ATOM     26  H3  UNL     1      -1.608   5.600  14.649  1.00  0.00     0.209 HD
ENDBRANCH  24  25
ENDBRANCH  20  24
BRANCH  21  27
HETATM   27  O4  UNL     1      -0.069   1.159  13.229  1.00  0.00    -0.389 OA
ATOM     28  H4  UNL     1      -0.561   0.646  12.599  1.00  0.00     0.210 HD
ENDBRANCH  21  27
BRANCH  22  29
HETATM   29  O5  UNL     1      -1.889   0.163  14.663  1.00  0.00    -0.374 OA
ATOM     30  H5  UNL     1      -2.447  -0.164  15.358  1.00  0.00     0.212 HD
ENDBRANCH  22  29
BRANCH  23  31
HETATM   31  C14 UNL     1      -3.415   2.730  16.107  1.00  0.00     0.076 C 
HETATM   32  C15 UNL     1      -3.641   4.034  16.744  1.00  0.00     0.081 C 
HETATM   33  S4  UNL     1      -4.802   1.869  15.726  1.00  0.00    -0.066 SA
ENDBRANCH  23  31
ENDBRANCH   1  18
TORSDOF 17
ENDMDL
MODEL 2
REMARK VINA RESULT: -6.554720291      3.062      6.777
REMARK  17 active torsions:
REMARK  status: ('A' for Active; 'I' for Inactive)
REMARK    1  A    between atoms: C2_2  and  C3_3 
REMARK    2  A    between atoms: C3_3  and  N1_4 
REMARK    3  A    between atoms: N1_4  and  C4_6 
REMARK    4  A    between atoms: C4_6  and  S2_16 
REMARK    5  A    between atoms: N2_7  and  C5_9 
REMARK    6  A    between atoms: C5_9  and  C6_10 
REMARK    7  A    between atoms: C6_10  and  S1_11 
REMARK    8  A    between atoms: S1_11  and  C7_12 
REMARK    9  A    between atoms: C7_12  and  C8_13 
REMARK   10  A    between atoms: C8_13  and  O1_14 
REMARK   11  A    between atoms: S2_16  and  S3_17 
REMARK   12  A    between atoms: S3_17  and  C9_18 
REMARK   13  A    between atoms: C10_20  and  C11_21 
REMARK   14  A    between atoms: C11_21  and  O3_22 
REMARK   15  A    between atoms: C12_24  and  O4_25 
REMARK   16  A    between atoms: C13_27  and  O5_28 
REMARK   17  A    between atoms: N3_30  and  C14_31 
ROOT
HETATM    1  S3  UNL     1      -3.008  -0.353  15.247  1.00  0.00    -0.036 SA
ENDROOT
BRANCH   1   2
HETATM    2  S2  UNL     1      -3.730   1.554  15.725  1.00  0.00    -0.018 SA
BRANCH   2   3
HETATM    3  C4  UNL     1      -3.288   2.863  14.658  1.00  0.00     0.146 C 
HETATM    4  N2  UNL     1      -3.907   2.967  13.521  1.00  0.00    -0.370 N 
ATOM      5  H2  UNL     1      -3.668   3.721  12.877  1.00  0.00     0.161 HD
BRANCH   3   6
HETATM    6  N1  UNL     1      -2.286   3.861  14.905  1.00  0.00    -0.370 N 
ATOM      7  H1  UNL     1      -2.515   4.855  14.868  1.00  0.00     0.161 HD
BRANCH   6   8
HETATM    8  C3  UNL     1      -0.941   3.417  15.207  1.00  0.00     0.121 C 
BRANCH   8   9
HETATM    9  C2  UNL     1      -0.110   3.405  13.958  1.00  0.00     0.015 C 
HETATM   10  C1  UNL     1       0.342   4.798  13.563  1.00  0.00     0.006 C 
ENDBRANCH   8   9
ENDBRANCH   6   8
ENDBRANCH   3   6
BRANCH   4  11
HETATM   11  C5  UNL     1      -4.935   2.014  13.169  1.00  0.00     0.132 C 
BRANCH  11  12
HETATM   12  C6  UNL     1      -6.240   2.736  12.934  1.00  0.00     0.093 C 
BRANCH  12  13
HETATM   13  S1  UNL     1      -7.633   1.656  13.075  1.00  0.00    -0.165 SA
BRANCH  13  14
HETATM   14  C7  UNL     1      -8.016   0.946  14.636  1.00  0.00     0.100 C 
BRANCH  14  15
HETATM   15  C8  UNL     1      -7.150  -0.207  15.054  1.00  0.00     0.174 C 
BRANCH  15  16
HETATM   16  O1  UNL     1      -6.834  -0.191  16.395  1.00  0.00    -0.400 OA
ATOM     17  H1  UNL     1      -6.708  -1.059  16.760  1.00  0.00     0.209 HD
ENDBRANCH  15  16
ENDBRANCH  14  15
ENDBRANCH  13  14
ENDBRANCH  12  13
ENDBRANCH  11  12
ENDBRANCH   4  11
ENDBRANCH   2   3
ENDBRANCH   1   2
BRANCH   1  18
HETATM   18  C9  UNL     1      -3.190  -1.499  16.584  1.00  0.00     0.302 C 
HETATM   19  O2  UNL     1      -4.335  -1.225  17.367  1.00  0.00    -0.346 OA
HETATM   20  C10 UNL     1      -4.618  -2.264  18.227  1.00  0.00     0.181 C 
HETATM   21  C12 UNL     1      -3.583  -3.219  18.617  1.00  0.00     0.198 C 
HETATM   22  C13 UNL     1      -2.153  -2.912  18.209  1.00  0.00     0.255 C 
HETATM   23  N3  UNL     1      -2.172  -1.545  17.594  1.00  0.00    -0.310 N 
BRANCH  20  24
HETATM   24  C11 UNL     1      -5.277  -1.617  19.454  1.00  0.00     0.199 C 
BRANCH  24  25
HETATM   25  O3  UNL     1      -6.516  -1.065  19.136  1.00  0.00    -0.398 OA
ATOM     26  H3  UNL     1      -6.794  -0.435  19.789  1.00  0.00     0.209 HD
ENDBRANCH  24  25
ENDBRANCH  20  24
BRANCH  21  27
HETATM   27  O4  UNL     1      -3.893  -4.508  18.169  1.00  0.00    -0.389 OA
ATOM     28  H4  UNL     1      -4.689  -4.830  18.574  1.00  0.00     0.210 HD
ENDBRANCH  21  27
BRANCH  22  29
HETATM   29  O5  UNL     1      -1.699  -3.737  17.192  1.00  0.00    -0.374 OA
ATOM     30  H5  UNL     1      -1.419  -3.252  16.425  1.00  0.00     0.212 HD
ENDBRANCH  22  29
BRANCH  23  31
HETATM   31  C14 UNL     1      -1.346  -0.577  18.133  1.00  0.00     0.076 C 
HETATM   32  C15 UNL     1      -1.644   0.406  19.183  1.00  0.00     0.081 C 
HETATM   33  S4  UNL     1       0.207  -0.506  17.506  1.00  0.00    -0.066 SA
ENDBRANCH  23  31
ENDBRANCH   1  18
TORSDOF 17
ENDMDL
MODEL 3
REMARK VINA RESULT: -6.376281707      2.036      2.983
REMARK  17 active torsions:
REMARK  status: ('A' for Active; 'I' for Inactive)
REMARK    1  A    between atoms: C2_2  and  C3_3 
REMARK    2  A    between atoms: C3_3  and  N1_4 
REMARK    3  A    between atoms: N1_4  and  C4_6 
REMARK    4  A    between atoms: C4_6  and  S2_16 
REMARK    5  A    between atoms: N2_7  and  C5_9 
REMARK    6  A    between atoms: C5_9  and  C6_10 
REMARK    7  A    between atoms: C6_10  and  S1_11 
REMARK    8  A    between atoms: S1_11  and  C7_12 
REMARK    9  A    between atoms: C7_12  and  C8_13 
REMARK   10  A    between atoms: C8_13  and  O1_14 
REMARK   11  A    between atoms: S2_16  and  S3_17 
REMARK   12  A    between atoms: S3_17  and  C9_18 
REMARK   13  A    between atoms: C10_20  and  C11_21 
REMARK   14  A    between atoms: C11_21  and  O3_22 
REMARK   15  A    between atoms: C12_24  and  O4_25 
REMARK   16  A    between atoms: C13_27  and  O5_28 
REMARK   17  A    between atoms: N3_30  and  C14_31 
ROOT
HETATM    1  S3  UNL     1      -2.977  -0.990  15.946  1.00  0.00    -0.036 SA
ENDROOT
BRANCH   1   2
HETATM    2  S2  UNL     1      -4.209  -0.933  17.639  1.00  0.00    -0.018 SA
BRANCH   2   3
HETATM    3  C4  UNL     1      -3.481  -0.405  19.135  1.00  0.00     0.146 C 
HETATM    4  N2  UNL     1      -3.924  -0.907  20.248  1.00  0.00    -0.370 N 
ATOM      5  H2  UNL     1      -3.518  -0.615  21.137  1.00  0.00     0.161 HD
BRANCH   3   6
HETATM    6  N1  UNL     1      -2.421   0.553  19.274  1.00  0.00    -0.370 N 
ATOM      7  H1  UNL     1      -2.624   1.545  19.401  1.00  0.00     0.161 HD
BRANCH   6   8
HETATM    8  C3  UNL     1      -1.055   0.071  19.229  1.00  0.00     0.121 C 
BRANCH   8   9
HETATM    9  C2  UNL     1      -0.171   1.090  18.576  1.00  0.00     0.015 C 
HETATM   10  C1  UNL     1       0.678   0.485  17.475  1.00  0.00     0.006 C 
ENDBRANCH   8   9
ENDBRANCH   6   8
ENDBRANCH   3   6
BRANCH   4  11
HETATM   11  C5  UNL     1      -4.992  -1.882  20.225  1.00  0.00     0.132 C 
BRANCH  11  12
HETATM   12  C6  UNL     1      -4.696  -2.985  21.212  1.00  0.00     0.093 C 
BRANCH  12  13
HETATM   13  S1  UNL     1      -3.181  -3.820  20.845  1.00  0.00    -0.165 SA
BRANCH  13  14
HETATM   14  C7  UNL     1      -2.836  -4.284  19.186  1.00  0.00     0.100 C 
BRANCH  14  15
HETATM   15  C8  UNL     1      -1.619  -3.650  18.575  1.00  0.00     0.174 C 
BRANCH  15  16
HETATM   16  O1  UNL     1      -1.441  -3.984  17.251  1.00  0.00    -0.400 OA
ATOM     17  H1  UNL     1      -1.771  -3.325  16.651  1.00  0.00     0.209 HD
ENDBRANCH  15  16
ENDBRANCH  14  15
ENDBRANCH  13  14
ENDBRANCH  12  13
ENDBRANCH  11  12
ENDBRANCH   4  11
ENDBRANCH   2   3
ENDBRANCH   1   2
BRANCH   1  18
HETATM   18  C9  UNL     1      -2.344   0.608  15.519  1.00  0.00     0.302 C 
HETATM   19  O2  UNL     1      -2.856   1.625  16.357  1.00  0.00    -0.346 OA
HETATM   20  C10 UNL     1      -2.163   2.805  16.199  1.00  0.00     0.181 C 
HETATM   21  C12 UNL     1      -1.400   3.070  14.981  1.00  0.00     0.198 C 
HETATM   22  C13 UNL     1      -1.563   2.101  13.824  1.00  0.00     0.255 C 
HETATM   23  N3  UNL     1      -2.645   1.143  14.222  1.00  0.00    -0.310 N 
BRANCH  20  24
HETATM   24  C11 UNL     1      -3.178   3.921  16.480  1.00  0.00     0.199 C 
BRANCH  24  25
HETATM   25  O3  UNL     1      -3.022   4.987  15.597  1.00  0.00    -0.398 OA
ATOM     26  H3  UNL     1      -2.636   5.741  16.026  1.00  0.00     0.209 HD
ENDBRANCH  24  25
ENDBRANCH  20  24
BRANCH  21  27
HETATM   27  O4  UNL     1      -0.033   3.187  15.258  1.00  0.00    -0.389 OA
ATOM     28  H4  UNL     1       0.393   3.769  14.639  1.00  0.00     0.210 HD
ENDBRANCH  21  27
BRANCH  22  29
HETATM   29  O5  UNL     1      -0.447   1.298  13.640  1.00  0.00    -0.374 OA
ATOM     30  H5  UNL     1      -0.139   0.910  14.450  1.00  0.00     0.212 HD
ENDBRANCH  22  29
BRANCH  23  31
HETATM   31  C14 UNL     1      -3.743   1.019  13.392  1.00  0.00     0.076 C 
HETATM   32  C15 UNL     1      -4.092  -0.084  12.487  1.00  0.00     0.081 C 
HETATM   33  S4  UNL     1      -4.825   2.299  13.412  1.00  0.00    -0.066 SA
ENDBRANCH  23  31
ENDBRANCH   1  18
TORSDOF 17
ENDMDL
MODEL 4
REMARK VINA RESULT: -6.342238963      2.504      7.097
REMARK  17 active torsions:
REMARK  status: ('A' for Active; 'I' for Inactive)
REMARK    1  A    between atoms: C2_2  and  C3_3 
REMARK    2  A    between atoms: C3_3  and  N1_4 
REMARK    3  A    between atoms: N1_4  and  C4_6 
REMARK    4  A    between atoms: C4_6  and  S2_16 
REMARK    5  A    between atoms: N2_7  and  C5_9 
REMARK    6  A    between atoms: C5_9  and  C6_10 
REMARK    7  A    between atoms: C6_10  and  S1_11 
REMARK    8  A    between atoms: S1_11  and  C7_12 
REMARK    9  A    between atoms: C7_12  and  C8_13 
REMARK   10  A    between atoms: C8_13  and  O1_14 
REMARK   11  A    between atoms: S2_16  and  S3_17 
REMARK   12  A    between atoms: S3_17  and  C9_18 
REMARK   13  A    between atoms: C10_20  and  C11_21 
REMARK   14  A    between atoms: C11_21  and  O3_22 
REMARK   15  A    between atoms: C12_24  and  O4_25 
REMARK   16  A    between atoms: C13_27  and  O5_28 
REMARK   17  A    between atoms: N3_30  and  C14_31 
ROOT
HETATM    1  S3  UNL     1      -1.176   0.818  19.066  1.00  0.00    -0.036 SA
ENDROOT
BRANCH   1   2
HETATM    2  S2  UNL     1      -0.632   2.260  17.648  1.00  0.00    -0.018 SA
BRANCH   2   3
HETATM    3  C4  UNL     1      -1.900   3.295  17.039  1.00  0.00     0.146 C 
HETATM    4  N2  UNL     1      -2.284   3.140  15.808  1.00  0.00    -0.370 N 
ATOM      5  H2  UNL     1      -3.021   3.732  15.425  1.00  0.00     0.161 HD
BRANCH   3   6
HETATM    6  N1  UNL     1      -2.578   4.330  17.767  1.00  0.00    -0.370 N 
ATOM      7  H1  UNL     1      -2.485   4.405  18.781  1.00  0.00     0.161 HD
BRANCH   6   8
HETATM    8  C3  UNL     1      -3.399   5.263  17.023  1.00  0.00     0.121 C 
BRANCH   8   9
HETATM    9  C2  UNL     1      -4.181   6.126  17.966  1.00  0.00     0.015 C 
HETATM   10  C1  UNL     1      -4.105   7.593  17.592  1.00  0.00     0.006 C 
ENDBRANCH   8   9
ENDBRANCH   6   8
ENDBRANCH   3   6
BRANCH   4  11
HETATM   11  C5  UNL     1      -1.668   2.127  14.981  1.00  0.00     0.132 C 
BRANCH  11  12
HETATM   12  C6  UNL     1      -2.539   1.850  13.780  1.00  0.00     0.093 C 
BRANCH  12  13
HETATM   13  S1  UNL     1      -3.917   2.954  13.687  1.00  0.00    -0.165 SA
BRANCH  13  14
HETATM   14  C7  UNL     1      -5.538   2.295  13.538  1.00  0.00     0.100 C 
BRANCH  14  15
HETATM   15  C8  UNL     1      -6.181   1.858  14.822  1.00  0.00     0.174 C 
BRANCH  15  16
HETATM   16  O1  UNL     1      -5.425   2.156  15.936  1.00  0.00    -0.400 OA
ATOM     17  H1  UNL     1      -5.907   2.067  16.750  1.00  0.00     0.209 HD
ENDBRANCH  15  16
ENDBRANCH  14  15
ENDBRANCH  13  14
ENDBRANCH  12  13
ENDBRANCH  11  12
ENDBRANCH   4  11
ENDBRANCH   2   3
ENDBRANCH   1   2
BRANCH   1  18
HETATM   18  C9  UNL     1      -2.670  -0.026  18.630  1.00  0.00     0.302 C 
HETATM   19  O2  UNL     1      -3.339  -0.544  19.764  1.00  0.00    -0.346 OA
HETATM   20  C10 UNL     1      -4.616  -0.955  19.452  1.00  0.00     0.181 C 
HETATM   21  C12 UNL     1      -4.984  -1.286  18.076  1.00  0.00     0.198 C 
HETATM   22  C13 UNL     1      -3.868  -1.359  17.049  1.00  0.00     0.255 C 
HETATM   23  N3  UNL     1      -2.584  -1.196  17.805  1.00  0.00    -0.310 N 
BRANCH  20  24
HETATM   24  C11 UNL     1      -4.923  -2.114  20.410  1.00  0.00     0.199 C 
BRANCH  24  25
HETATM   25  O3  UNL     1      -5.696  -3.095  19.793  1.00  0.00    -0.398 OA
ATOM     26  H3  UNL     1      -5.233  -3.922  19.742  1.00  0.00     0.209 HD
ENDBRANCH  24  25
ENDBRANCH  20  24
BRANCH  21  27
HETATM   27  O4  UNL     1      -5.962  -0.411  17.591  1.00  0.00    -0.389 OA
ATOM     28  H4  UNL     1      -5.836  -0.236  16.666  1.00  0.00     0.210 HD
ENDBRANCH  21  27
BRANCH  22  29
HETATM   29  O5  UNL     1      -3.884  -0.288  16.168  1.00  0.00    -0.374 OA
ATOM     30  H5  UNL     1      -4.580  -0.355  15.525  1.00  0.00     0.212 HD
ENDBRANCH  22  29
BRANCH  23  31
HETATM   31  C14 UNL     1      -1.629  -2.188  17.686  1.00  0.00     0.076 C 
HETATM   32  C15 UNL     1      -0.362  -2.161  16.943  1.00  0.00     0.081 C 
HETATM   33  S4  UNL     1      -1.954  -3.620  18.494  1.00  0.00    -0.066 SA
ENDBRANCH  23  31
ENDBRANCH   1  18
TORSDOF 17
ENDMDL
MODEL 5
REMARK VINA RESULT: -6.334268538      2.158      3.321
REMARK  17 active torsions:
REMARK  status: ('A' for Active; 'I' for Inactive)
REMARK    1  A    between atoms: C2_2  and  C3_3 
REMARK    2  A    between atoms: C3_3  and  N1_4 
REMARK    3  A    between atoms: N1_4  and  C4_6 
REMARK    4  A    between atoms: C4_6  and  S2_16 
REMARK    5  A    between atoms: N2_7  and  C5_9 
REMARK    6  A    between atoms: C5_9  and  C6_10 
REMARK    7  A    between atoms: C6_10  and  S1_11 
REMARK    8  A    between atoms: S1_11  and  C7_12 
REMARK    9  A    between atoms: C7_12  and  C8_13 
REMARK   10  A    between atoms: C8_13  and  O1_14 
REMARK   11  A    between atoms: S2_16  and  S3_17 
REMARK   12  A    between atoms: S3_17  and  C9_18 
REMARK   13  A    between atoms: C10_20  and  C11_21 
REMARK   14  A    between atoms: C11_21  and  O3_22 
REMARK   15  A    between atoms: C12_24  and  O4_25 
REMARK   16  A    between atoms: C13_27  and  O5_28 
REMARK   17  A    between atoms: N3_30  and  C14_31 
ROOT
HETATM    1  S3  UNL     1      -3.077  -0.898  16.173  1.00  0.00    -0.036 SA
ENDROOT
BRANCH   1   2
HETATM    2  S2  UNL     1      -1.634  -2.219  16.918  1.00  0.00    -0.018 SA
BRANCH   2   3
HETATM    3  C4  UNL     1      -1.336  -2.186  18.639  1.00  0.00     0.146 C 
HETATM    4  N2  UNL     1      -1.513  -3.280  19.316  1.00  0.00    -0.370 N 
ATOM      5  H2  UNL     1      -1.348  -3.289  20.322  1.00  0.00     0.161 HD
BRANCH   3   6
HETATM    6  N1  UNL     1      -0.912  -1.051  19.407  1.00  0.00    -0.370 N 
ATOM      7  H1  UNL     1      -0.072  -1.093  19.987  1.00  0.00     0.161 HD
BRANCH   6   8
HETATM    8  C3  UNL     1      -1.709   0.157  19.337  1.00  0.00     0.121 C 
BRANCH   8   9
HETATM    9  C2  UNL     1      -0.821   1.349  19.140  1.00  0.00     0.015 C 
HETATM   10  C1  UNL     1       0.294   1.071  18.151  1.00  0.00     0.006 C 
ENDBRANCH   8   9
ENDBRANCH   6   8
ENDBRANCH   3   6
BRANCH   4  11
HETATM   11  C5  UNL     1      -1.941  -4.485  18.642  1.00  0.00     0.132 C 
BRANCH  11  12
HETATM   12  C6  UNL     1      -3.232  -4.978  19.250  1.00  0.00     0.093 C 
BRANCH  12  13
HETATM   13  S1  UNL     1      -4.586  -3.892  18.909  1.00  0.00    -0.165 SA
BRANCH  13  14
HETATM   14  C7  UNL     1      -4.957  -2.599  20.039  1.00  0.00     0.100 C 
BRANCH  14  15
HETATM   15  C8  UNL     1      -5.239  -1.261  19.422  1.00  0.00     0.174 C 
BRANCH  15  16
HETATM   16  O1  UNL     1      -6.580  -1.040  19.194  1.00  0.00    -0.400 OA
ATOM     17  H1  UNL     1      -6.935  -0.325  19.709  1.00  0.00     0.209 HD
ENDBRANCH  15  16
ENDBRANCH  14  15
ENDBRANCH  13  14
ENDBRANCH  12  13
ENDBRANCH  11  12
ENDBRANCH   4  11
ENDBRANCH   2   3
ENDBRANCH   1   2
BRANCH   1  18
HETATM   18  C9  UNL     1      -2.375   0.636  15.636  1.00  0.00     0.302 C 
HETATM   19  O2  UNL     1      -2.902   1.740  16.346  1.00  0.00    -0.346 OA
HETATM   20  C10 UNL     1      -2.167   2.883  16.118  1.00  0.00     0.181 C 
HETATM   21  C12 UNL     1      -1.332   3.014  14.926  1.00  0.00     0.198 C 
HETATM   22  C13 UNL     1      -1.461   1.943  13.857  1.00  0.00     0.255 C 
HETATM   23  N3  UNL     1      -2.590   1.054  14.281  1.00  0.00    -0.310 N 
BRANCH  20  24
HETATM   24  C11 UNL     1      -3.163   4.045  16.237  1.00  0.00     0.199 C 
BRANCH  24  25
HETATM   25  O3  UNL     1      -3.008   4.958  15.196  1.00  0.00    -0.398 OA
ATOM     26  H3  UNL     1      -3.845   5.200  14.818  1.00  0.00     0.209 HD
ENDBRANCH  24  25
ENDBRANCH  20  24
BRANCH  21  27
HETATM   27  O4  UNL     1       0.021   3.123  15.267  1.00  0.00    -0.389 OA
ATOM     28  H4  UNL     1       0.375   3.962  14.998  1.00  0.00     0.210 HD
ENDBRANCH  21  27
BRANCH  22  29
HETATM   29  O5  UNL     1      -0.361   1.100  13.811  1.00  0.00    -0.374 OA
ATOM     30  H5  UNL     1      -0.379   0.517  13.061  1.00  0.00     0.212 HD
ENDBRANCH  22  29
BRANCH  23  31
HETATM   31  C14 UNL     1      -3.645   0.879  13.405  1.00  0.00     0.076 C 
HETATM   32  C15 UNL     1      -3.901  -0.237  12.484  1.00  0.00     0.081 C 
HETATM   33  S4  UNL     1      -4.790   2.103  13.381  1.00  0.00    -0.066 SA
ENDBRANCH  23  31
ENDBRANCH   1  18
TORSDOF 17
ENDMDL
