MODEL 1
REMARK VINA RESULT: -7.629349254      0.000      0.000
REMARK  14 active torsions:
REMARK  status: ('A' for Active; 'I' for Inactive)
REMARK    1  A    between atoms: O1_2  and  C2_3 
REMARK    2  A    between atoms: C2_3  and  C3_4 
REMARK    3  A    between atoms: C2_3  and  S2_7 
REMARK    4  A    between atoms: C3_4  and  C4_5 
REMARK    5  A    between atoms: C5_9  and  C6_10 
REMARK    6  A    between atoms: C6_10  and  O3_11 
REMARK    7  A    between atoms: O3_11  and  C7_12 
REMARK    8  A    between atoms: C7_12  and  C8_13 
REMARK    9  A    between atoms: C9_15  and  C10_16 
REMARK   10  A    between atoms: C10_16  and  C12_18 
REMARK   11  A    between atoms: C12_18  and  O5_19 
REMARK   12  A    between atoms: C16_25  and  O7_26 
REMARK   13  A    between atoms: C17_28  and  O8_29 
REMARK   14  A    between atoms: C18_31  and  O9_32 
ROOT
HETATM    1  S2  UNL     1      -2.088   2.512  16.954  1.00  0.00    -0.002 SA
HETATM    2  O2  UNL     1      -3.046   1.145  16.665  1.00  0.00    -0.313 OA
HETATM    3  C5  UNL     1      -2.458  -0.084  16.660  1.00  0.00     0.192 C 
HETATM    4  C16 UNL     1      -0.994  -0.133  16.515  1.00  0.00     0.182 C 
HETATM    5  C17 UNL     1      -0.378   0.962  15.706  1.00  0.00     0.190 C 
HETATM    6  C18 UNL     1      -0.310   2.277  16.496  1.00  0.00     0.233 C 
ENDROOT
BRANCH   3   7
HETATM    7  C6  UNL     1      -2.813  -0.814  17.988  1.00  0.00     0.203 C 
BRANCH   7   8
HETATM    8  O3  UNL     1      -3.000  -2.133  17.777  1.00  0.00    -0.384 OA
BRANCH   8   9
HETATM    9  C7  UNL     1      -4.269  -2.497  17.477  1.00  0.00     0.228 C 
BRANCH   9  10
HETATM   10  C8  UNL     1      -4.831  -3.732  18.109  1.00  0.00     0.285 C 
HETATM   11  O4  UNL     1      -3.996  -4.800  18.191  1.00  0.00    -0.350 OA
HETATM   12  C9  UNL     1      -3.670  -5.044  19.502  1.00  0.00     0.164 C 
HETATM   13  C13 UNL     1      -4.476  -4.082  20.281  1.00  0.00     0.083 C 
HETATM   14  C14 UNL     1      -5.355  -4.857  21.272  1.00  0.00     0.048 C 
HETATM   15  C15 UNL     1      -3.704  -3.036  21.013  1.00  0.00     0.048 C 
HETATM   16  O6  UNL     1      -5.325  -3.476  19.389  1.00  0.00    -0.346 OA
BRANCH  12  17
HETATM   17  C10 UNL     1      -2.186  -4.922  19.675  1.00  0.00     0.037 C 
HETATM   18  C11 UNL     1      -1.634  -5.817  20.737  1.00  0.00     0.015 C 
BRANCH  17  19
HETATM   19  C12 UNL     1      -1.554  -5.316  18.332  1.00  0.00     0.170 C 
BRANCH  19  20
HETATM   20  O5  UNL     1      -1.204  -4.146  17.677  1.00  0.00    -0.400 OA
ATOM     21  H5  UNL     1      -0.506  -4.357  17.068  1.00  0.00     0.209 HD
ENDBRANCH  19  20
ENDBRANCH  17  19
ENDBRANCH  12  17
ENDBRANCH   9  10
ENDBRANCH   8   9
ENDBRANCH   7   8
ENDBRANCH   3   7
BRANCH   4  22
HETATM   22  O7  UNL     1      -0.589  -1.352  15.957  1.00  0.00    -0.390 OA
ATOM     23  H7  UNL     1      -0.182  -1.218  15.109  1.00  0.00     0.210 HD
ENDBRANCH   4  22
BRANCH   1  24
HETATM   24  C2  UNL     1      -2.710   3.967  16.600  1.00  0.00     0.100 C 
BRANCH  24  25
HETATM   25  O1  UNL     1      -3.349   4.155  15.350  1.00  0.00    -0.352 OA
HETATM   26  C1  UNL     1      -2.540   4.242  14.172  1.00  0.00     0.210 C 
ENDBRANCH  24  25
BRANCH  24  27
HETATM   27  C3  UNL     1      -2.675   5.148  17.477  1.00  0.00     0.084 C 
BRANCH  27  28
HETATM   28  C4  UNL     1      -4.001   5.716  17.849  1.00  0.00     0.093 C 
HETATM   29  S1  UNL     1      -4.000   7.539  17.619  1.00  0.00    -0.097 SA
ENDBRANCH  27  28
ENDBRANCH  24  27
ENDBRANCH   1  24
BRANCH   5  30
HETATM   30  O8  UNL     1      -0.965   1.136  14.475  1.00  0.00    -0.389 OA
ATOM     31  H8  UNL     1      -0.696   0.491  13.830  1.00  0.00     0.210 HD
ENDBRANCH   5  30
BRANCH   6  32
HETATM   32  O9  UNL     1       0.411   2.058  17.651  1.00  0.00    -0.381 OA
ATOM     33  H9  UNL     1       0.252   2.780  18.246  1.00  0.00     0.211 HD
ENDBRANCH   6  32
TORSDOF 14
ENDMDL
MODEL 2
REMARK VINA RESULT: -7.608804053      2.934      6.790
REMARK  14 active torsions:
REMARK  status: ('A' for Active; 'I' for Inactive)
REMARK    1  A    between atoms: O1_2  and  C2_3 
REMARK    2  A    between atoms: C2_3  and  C3_4 
REMARK    3  A    between atoms: C2_3  and  S2_7 
REMARK    4  A    between atoms: C3_4  and  C4_5 
REMARK    5  A    between atoms: C5_9  and  C6_10 
REMARK    6  A    between atoms: C6_10  and  O3_11 
REMARK    7  A    between atoms: O3_11  and  C7_12 
REMARK    8  A    between atoms: C7_12  and  C8_13 
REMARK    9  A    between atoms: C9_15  and  C10_16 
REMARK   10  A    between atoms: C10_16  and  C12_18 
REMARK   11  A    between atoms: C12_18  and  O5_19 
REMARK   12  A    between atoms: C16_25  and  O7_26 
REMARK   13  A    between atoms: C17_28  and  O8_29 
REMARK   14  A    between atoms: C18_31  and  O9_32 
ROOT
HETATM    1  S2  UNL     1      -2.215  -1.144  18.857  1.00  0.00    -0.002 SA
HETATM    2  O2  UNL     1      -3.379  -1.096  17.628  1.00  0.00    -0.313 OA
HETATM    3  C5  UNL     1      -4.343  -2.059  17.594  1.00  0.00     0.192 C 
HETATM    4  C16 UNL     1      -4.102  -3.286  18.370  1.00  0.00     0.182 C 
HETATM    5  C17 UNL     1      -2.673  -3.704  18.508  1.00  0.00     0.190 C 
HETATM    6  C18 UNL     1      -1.931  -2.842  19.539  1.00  0.00     0.233 C 
ENDROOT
BRANCH   3   7
HETATM    7  C6  UNL     1      -5.679  -1.446  18.108  1.00  0.00     0.203 C 
BRANCH   7   8
HETATM    8  O3  UNL     1      -6.048  -0.392  17.350  1.00  0.00    -0.384 OA
BRANCH   8   9
HETATM    9  C7  UNL     1      -6.286  -0.672  16.047  1.00  0.00     0.228 C 
BRANCH   9  10
HETATM   10  C8  UNL     1      -6.894   0.389  15.183  1.00  0.00     0.285 C 
HETATM   11  O4  UNL     1      -6.389   1.642  15.325  1.00  0.00    -0.350 OA
HETATM   12  C9  UNL     1      -5.704   2.006  14.192  1.00  0.00     0.164 C 
HETATM   13  C13 UNL     1      -5.910   0.889  13.247  1.00  0.00     0.083 C 
HETATM   14  C14 UNL     1      -6.560   1.433  11.968  1.00  0.00     0.048 C 
HETATM   15  C15 UNL     1      -4.689   0.109  12.892  1.00  0.00     0.048 C 
HETATM   16  O6  UNL     1      -6.827   0.052  13.830  1.00  0.00    -0.346 OA
BRANCH  12  17
HETATM   17  C10 UNL     1      -4.275   2.287  14.546  1.00  0.00     0.037 C 
HETATM   18  C11 UNL     1      -3.675   3.407  13.759  1.00  0.00     0.015 C 
BRANCH  17  19
HETATM   19  C12 UNL     1      -4.259   2.676  16.031  1.00  0.00     0.170 C 
BRANCH  19  20
HETATM   20  O5  UNL     1      -3.800   1.580  16.745  1.00  0.00    -0.400 OA
ATOM     21  H5  UNL     1      -2.892   1.747  16.973  1.00  0.00     0.209 HD
ENDBRANCH  19  20
ENDBRANCH  17  19
ENDBRANCH  12  17
ENDBRANCH   9  10
ENDBRANCH   8   9
ENDBRANCH   7   8
ENDBRANCH   3   7
BRANCH   4  22
HETATM   22  O7  UNL     1      -4.809  -4.366  17.826  1.00  0.00    -0.390 OA
ATOM     23  H7  UNL     1      -4.255  -5.135  17.760  1.00  0.00     0.210 HD
ENDBRANCH   4  22
BRANCH   1  24
HETATM   24  C2  UNL     1      -0.884  -0.235  18.683  1.00  0.00     0.100 C 
BRANCH  24  25
HETATM   25  O1  UNL     1      -0.672   0.849  19.569  1.00  0.00    -0.352 OA
HETATM   26  C1  UNL     1      -1.194   2.134  19.218  1.00  0.00     0.210 C 
ENDBRANCH  24  25
BRANCH  24  27
HETATM   27  C3  UNL     1       0.159  -0.433  17.663  1.00  0.00     0.084 C 
BRANCH  27  28
HETATM   28  C4  UNL     1      -0.301  -0.368  16.247  1.00  0.00     0.093 C 
HETATM   29  S1  UNL     1      -0.314   1.373  15.661  1.00  0.00    -0.097 SA
ENDBRANCH  27  28
ENDBRANCH  24  27
ENDBRANCH   1  24
BRANCH   5  30
HETATM   30  O8  UNL     1      -1.998  -3.765  17.312  1.00  0.00    -0.389 OA
ATOM     31  H8  UNL     1      -1.142  -3.352  17.336  1.00  0.00     0.210 HD
ENDBRANCH   5  30
BRANCH   6  32
HETATM   32  O9  UNL     1      -2.588  -2.941  20.747  1.00  0.00    -0.381 OA
ATOM     33  H9  UNL     1      -2.207  -2.313  21.349  1.00  0.00     0.211 HD
ENDBRANCH   6  32
TORSDOF 14
ENDMDL
MODEL 3
REMARK VINA RESULT: -7.568498777      2.924      6.216
REMARK  14 active torsions:
REMARK  status: ('A' for Active; 'I' for Inactive)
REMARK    1  A    between atoms: O1_2  and  C2_3 
REMARK    2  A    between atoms: C2_3  and  C3_4 
REMARK    3  A    between atoms: C2_3  and  S2_7 
REMARK    4  A    between atoms: C3_4  and  C4_5 
REMARK    5  A    between atoms: C5_9  and  C6_10 
REMARK    6  A    between atoms: C6_10  and  O3_11 
REMARK    7  A    between atoms: O3_11  and  C7_12 
REMARK    8  A    between atoms: C7_12  and  C8_13 
REMARK    9  A    between atoms: C9_15  and  C10_16 
REMARK   10  A    between atoms: C10_16  and  C12_18 
REMARK   11  A    between atoms: C12_18  and  O5_19 
REMARK   12  A    between atoms: C16_25  and  O7_26 
REMARK   13  A    between atoms: C17_28  and  O8_29 
REMARK   14  A    between atoms: C18_31  and  O9_32 
ROOT
HETATM    1  S2  UNL     1      -1.392   0.221  17.197  1.00  0.00    -0.002 SA
HETATM    2  O2  UNL     1      -2.395  -0.678  16.170  1.00  0.00    -0.313 OA
HETATM    3  C5  UNL     1      -2.905  -1.861  16.614  1.00  0.00     0.192 C 
HETATM    4  C16 UNL     1      -2.260  -2.479  17.784  1.00  0.00     0.182 C 
HETATM    5  C17 UNL     1      -0.795  -2.225  17.936  1.00  0.00     0.190 C 
HETATM    6  C18 UNL     1      -0.520  -0.809  18.464  1.00  0.00     0.233 C 
ENDROOT
BRANCH   3   7
HETATM    7  C6  UNL     1      -4.406  -1.655  16.972  1.00  0.00     0.203 C 
BRANCH   7   8
HETATM    8  O3  UNL     1      -4.946  -0.667  16.229  1.00  0.00    -0.384 OA
BRANCH   8   9
HETATM    9  C7  UNL     1      -6.267  -0.799  15.962  1.00  0.00     0.228 C 
BRANCH   9  10
HETATM   10  C8  UNL     1      -6.941   0.248  15.132  1.00  0.00     0.285 C 
HETATM   11  O4  UNL     1      -6.518   1.525  15.315  1.00  0.00    -0.350 OA
HETATM   12  C9  UNL     1      -5.857   1.969  14.197  1.00  0.00     0.164 C 
HETATM   13  C13 UNL     1      -5.991   0.872  13.215  1.00  0.00     0.083 C 
HETATM   14  C14 UNL     1      -6.673   1.415  11.952  1.00  0.00     0.048 C 
HETATM   15  C15 UNL     1      -4.721   0.184  12.839  1.00  0.00     0.048 C 
HETATM   16  O6  UNL     1      -6.852  -0.040  13.769  1.00  0.00    -0.346 OA
BRANCH  12  17
HETATM   17  C10 UNL     1      -4.449   2.329  14.563  1.00  0.00     0.037 C 
HETATM   18  C11 UNL     1      -3.835   3.340  13.650  1.00  0.00     0.015 C 
BRANCH  17  19
HETATM   19  C12 UNL     1      -4.503   2.924  15.978  1.00  0.00     0.170 C 
BRANCH  19  20
HETATM   20  O5  UNL     1      -4.268   1.892  16.873  1.00  0.00    -0.400 OA
ATOM     21  H5  UNL     1      -3.346   1.916  17.102  1.00  0.00     0.209 HD
ENDBRANCH  19  20
ENDBRANCH  17  19
ENDBRANCH  12  17
ENDBRANCH   9  10
ENDBRANCH   8   9
ENDBRANCH   7   8
ENDBRANCH   3   7
BRANCH   4  22
HETATM   22  O7  UNL     1      -2.453  -3.866  17.785  1.00  0.00    -0.390 OA
ATOM     23  H7  UNL     1      -2.513  -4.199  18.673  1.00  0.00     0.210 HD
ENDBRANCH   4  22
BRANCH   1  24
HETATM   24  C2  UNL     1      -0.509   1.416  16.547  1.00  0.00     0.100 C 
BRANCH  24  25
HETATM   25  O1  UNL     1      -0.299   2.599  17.297  1.00  0.00    -0.352 OA
HETATM   26  C1  UNL     1      -1.264   2.964  18.289  1.00  0.00     0.210 C 
ENDBRANCH  24  25
BRANCH  24  27
HETATM   27  C3  UNL     1       0.115   1.391  15.215  1.00  0.00     0.084 C 
BRANCH  27  28
HETATM   28  C4  UNL     1      -0.631   2.101  14.138  1.00  0.00     0.093 C 
HETATM   29  S1  UNL     1      -0.004   3.818  13.955  1.00  0.00    -0.097 SA
ENDBRANCH  27  28
ENDBRANCH  24  27
ENDBRANCH   1  24
BRANCH   5  30
HETATM   30  O8  UNL     1      -0.068  -2.498  16.802  1.00  0.00    -0.389 OA
ATOM     31  H8  UNL     1       0.731  -2.986  16.969  1.00  0.00     0.210 HD
ENDBRANCH   5  30
BRANCH   6  32
HETATM   32  O9  UNL     1      -1.169  -0.658  19.670  1.00  0.00    -0.381 OA
ATOM     33  H9  UNL     1      -1.714  -1.422  19.816  1.00  0.00     0.211 HD
ENDBRANCH   6  32
TORSDOF 14
ENDMDL
MODEL 4
REMARK VINA RESULT: -7.540917492      2.764      7.687
REMARK  14 active torsions:
REMARK  status: ('A' for Active; 'I' for Inactive)
REMARK    1  A    between atoms: O1_2  and  C2_3 
REMARK    2  A    between atoms: C2_3  and  C3_4 
REMARK    3  A    between atoms: C2_3  and  S2_7 
REMARK    4  A    between atoms: C3_4  and  C4_5 
REMARK    5  A    between atoms: C5_9  and  C6_10 
REMARK    6  A    between atoms: C6_10  and  O3_11 
REMARK    7  A    between atoms: O3_11  and  C7_12 
REMARK    8  A    between atoms: C7_12  and  C8_13 
REMARK    9  A    between atoms: C9_15  and  C10_16 
REMARK   10  A    between atoms: C10_16  and  C12_18 
REMARK   11  A    between atoms: C12_18  and  O5_19 
REMARK   12  A    between atoms: C16_25  and  O7_26 
REMARK   13  A    between atoms: C17_28  and  O8_29 
REMARK   14  A    between atoms: C18_31  and  O9_32 
ROOT
HETATM    1  S2  UNL     1      -2.711  -2.533  18.187  1.00  0.00    -0.002 SA
HETATM    2  O2  UNL     1      -4.119  -2.772  17.276  1.00  0.00    -0.313 OA
HETATM    3  C5  UNL     1      -5.223  -2.024  17.558  1.00  0.00     0.192 C 
HETATM    4  C16 UNL     1      -5.264  -1.345  18.863  1.00  0.00     0.182 C 
HETATM    5  C17 UNL     1      -4.557  -2.035  19.984  1.00  0.00     0.190 C 
HETATM    6  C18 UNL     1      -3.034  -1.861  19.882  1.00  0.00     0.233 C 
ENDROOT
BRANCH   3   7
HETATM    7  C6  UNL     1      -5.377  -0.928  16.464  1.00  0.00     0.203 C 
BRANCH   7   8
HETATM    8  O3  UNL     1      -5.409   0.302  17.016  1.00  0.00    -0.384 OA
BRANCH   8   9
HETATM    9  C7  UNL     1      -4.468   1.164  16.564  1.00  0.00     0.228 C 
BRANCH   9  10
HETATM   10  C8  UNL     1      -3.046   0.704  16.495  1.00  0.00     0.285 C 
HETATM   11  O4  UNL     1      -2.350   1.063  15.385  1.00  0.00    -0.350 OA
HETATM   12  C9  UNL     1      -1.374   1.971  15.713  1.00  0.00     0.164 C 
HETATM   13  C13 UNL     1      -1.437   2.083  17.185  1.00  0.00     0.083 C 
HETATM   14  C14 UNL     1      -0.066   1.721  17.771  1.00  0.00     0.048 C 
HETATM   15  C15 UNL     1      -1.870   3.409  17.715  1.00  0.00     0.048 C 
HETATM   16  O6  UNL     1      -2.316   1.118  17.610  1.00  0.00    -0.346 OA
BRANCH  12  17
HETATM   17  C10 UNL     1      -1.613   3.248  14.965  1.00  0.00     0.037 C 
HETATM   18  C11 UNL     1      -0.374   3.826  14.361  1.00  0.00     0.015 C 
BRANCH  17  19
HETATM   19  C12 UNL     1      -2.595   2.916  13.833  1.00  0.00     0.170 C 
BRANCH  19  20
HETATM   20  O5  UNL     1      -3.782   3.577  14.103  1.00  0.00    -0.400 OA
ATOM     21  H5  UNL     1      -4.488   2.947  14.010  1.00  0.00     0.209 HD
ENDBRANCH  19  20
ENDBRANCH  17  19
ENDBRANCH  12  17
ENDBRANCH   9  10
ENDBRANCH   8   9
ENDBRANCH   7   8
ENDBRANCH   3   7
BRANCH   4  22
HETATM   22  O7  UNL     1      -6.586  -1.124  19.267  1.00  0.00    -0.390 OA
ATOM     23  H7  UNL     1      -6.880  -1.809  19.856  1.00  0.00     0.210 HD
ENDBRANCH   4  22
BRANCH   1  24
HETATM   24  C2  UNL     1      -1.544  -3.655  18.096  1.00  0.00     0.100 C 
BRANCH  24  25
HETATM   25  O1  UNL     1      -0.321  -3.323  17.463  1.00  0.00    -0.352 OA
HETATM   26  C1  UNL     1      -0.115  -1.974  17.033  1.00  0.00     0.210 C 
ENDBRANCH  24  25
BRANCH  24  27
HETATM   27  C3  UNL     1      -1.632  -5.025  18.625  1.00  0.00     0.084 C 
BRANCH  27  28
HETATM   28  C4  UNL     1      -1.166  -5.208  20.028  1.00  0.00     0.093 C 
HETATM   29  S1  UNL     1      -2.499  -5.955  21.049  1.00  0.00    -0.097 SA
ENDBRANCH  27  28
ENDBRANCH  24  27
ENDBRANCH   1  24
BRANCH   5  30
HETATM   30  O8  UNL     1      -4.912  -3.355  20.132  1.00  0.00    -0.389 OA
ATOM     31  H8  UNL     1      -4.315  -3.960  19.707  1.00  0.00     0.210 HD
ENDBRANCH   5  30
BRANCH   6  32
HETATM   32  O9  UNL     1      -2.746  -0.513  19.878  1.00  0.00    -0.381 OA
ATOM     33  H9  UNL     1      -3.331  -0.080  20.489  1.00  0.00     0.211 HD
ENDBRANCH   6  32
TORSDOF 14
ENDMDL
MODEL 5
REMARK VINA RESULT: -7.537256623      2.037      2.275
REMARK  14 active torsions:
REMARK  status: ('A' for Active; 'I' for Inactive)
REMARK    1  A    between atoms: O1_2  and  C2_3 
REMARK    2  A    between atoms: C2_3  and  C3_4 
REMARK    3  A    between atoms: C2_3  and  S2_7 
REMARK    4  A    between atoms: C3_4  and  C4_5 
REMARK    5  A    between atoms: C5_9  and  C6_10 
REMARK    6  A    between atoms: C6_10  and  O3_11 
REMARK    7  A    between atoms: O3_11  and  C7_12 
REMARK    8  A    between atoms: C7_12  and  C8_13 
REMARK    9  A    between atoms: C9_15  and  C10_16 
REMARK   10  A    between atoms: C10_16  and  C12_18 
REMARK   11  A    between atoms: C12_18  and  O5_19 
REMARK   12  A    between atoms: C16_25  and  O7_26 
REMARK   13  A    between atoms: C17_28  and  O8_29 
REMARK   14  A    between atoms: C18_31  and  O9_32 
ROOT
HETATM    1  S2  UNL     1      -1.448   1.712  16.571  1.00  0.00    -0.002 SA
HETATM    2  O2  UNL     1      -2.384   0.302  16.517  1.00  0.00    -0.313 OA
HETATM    3  C5  UNL     1      -2.346  -0.556  17.575  1.00  0.00     0.192 C 
HETATM    4  C16 UNL     1      -1.223  -0.420  18.517  1.00  0.00     0.182 C 
HETATM    5  C17 UNL     1       0.067   0.059  17.933  1.00  0.00     0.190 C 
HETATM    6  C18 UNL     1       0.037   1.572  17.667  1.00  0.00     0.233 C 
ENDROOT
BRANCH   3   7
HETATM    7  C6  UNL     1      -3.658  -0.393  18.398  1.00  0.00     0.203 C 
BRANCH   7   8
HETATM    8  O3  UNL     1      -4.612  -1.237  17.954  1.00  0.00    -0.384 OA
BRANCH   8   9
HETATM    9  C7  UNL     1      -4.167  -2.447  17.537  1.00  0.00     0.228 C 
BRANCH   9  10
HETATM   10  C8  UNL     1      -4.794  -3.679  18.110  1.00  0.00     0.285 C 
HETATM   11  O4  UNL     1      -3.996  -4.776  18.195  1.00  0.00    -0.350 OA
HETATM   12  C9  UNL     1      -3.732  -5.067  19.510  1.00  0.00     0.164 C 
HETATM   13  C13 UNL     1      -4.539  -4.100  20.284  1.00  0.00     0.083 C 
HETATM   14  C14 UNL     1      -5.482  -4.872  21.216  1.00  0.00     0.048 C 
HETATM   15  C15 UNL     1      -3.764  -3.100  21.076  1.00  0.00     0.048 C 
HETATM   16  O6  UNL     1      -5.330  -3.442  19.377  1.00  0.00    -0.346 OA
BRANCH  12  17
HETATM   17  C10 UNL     1      -2.254  -4.998  19.746  1.00  0.00     0.037 C 
HETATM   18  C11 UNL     1      -1.775  -5.937  20.806  1.00  0.00     0.015 C 
BRANCH  17  19
HETATM   19  C12 UNL     1      -1.580  -5.380  18.420  1.00  0.00     0.170 C 
BRANCH  19  20
HETATM   20  O5  UNL     1      -1.260  -4.203  17.761  1.00  0.00    -0.400 OA
ATOM     21  H5  UNL     1      -1.966  -3.586  17.919  1.00  0.00     0.209 HD
ENDBRANCH  19  20
ENDBRANCH  17  19
ENDBRANCH  12  17
ENDBRANCH   9  10
ENDBRANCH   8   9
ENDBRANCH   7   8
ENDBRANCH   3   7
BRANCH   4  22
HETATM   22  O7  UNL     1      -0.969  -1.634  19.167  1.00  0.00    -0.390 OA
ATOM     23  H7  UNL     1      -1.511  -2.329  18.811  1.00  0.00     0.210 HD
ENDBRANCH   4  22
BRANCH   1  24
HETATM   24  C2  UNL     1      -1.215   2.526  15.188  1.00  0.00     0.100 C 
BRANCH  24  25
HETATM   25  O1  UNL     1      -0.017   3.262  15.018  1.00  0.00    -0.352 OA
HETATM   26  C1  UNL     1       0.085   4.162  13.910  1.00  0.00     0.210 C 
ENDBRANCH  24  25
BRANCH  24  27
HETATM   27  C3  UNL     1      -2.153   2.575  14.056  1.00  0.00     0.084 C 
BRANCH  27  28
HETATM   28  C4  UNL     1      -3.439   3.284  14.312  1.00  0.00     0.093 C 
HETATM   29  S1  UNL     1      -4.832   2.379  13.527  1.00  0.00    -0.097 SA
ENDBRANCH  27  28
ENDBRANCH  24  27
ENDBRANCH   1  24
BRANCH   5  30
HETATM   30  O8  UNL     1       0.468  -0.647  16.825  1.00  0.00    -0.389 OA
ATOM     31  H8  UNL     1       1.363  -0.960  16.875  1.00  0.00     0.210 HD
ENDBRANCH   5  30
BRANCH   6  32
HETATM   32  O9  UNL     1      -0.235   2.220  18.853  1.00  0.00    -0.381 OA
ATOM     33  H9  UNL     1      -0.774   1.652  19.389  1.00  0.00     0.211 HD
ENDBRANCH   6  32
TORSDOF 14
ENDMDL
