MODEL 1
REMARK VINA RESULT: -9.067477768      0.000      0.000
REMARK  5 active torsions:
REMARK  status: ('A' for Active; 'I' for Inactive)
REMARK    1  A    between atoms: N3_5  and  O1_6 
REMARK    2  A    between atoms: N3_5  and  C2_8 
REMARK    3  A    between atoms: C5_11  and  N4_12 
REMARK       I    between atoms: N4_12  and  C6_14 
REMARK       I    between atoms: C6_14  and  N5_16 
REMARK    4  A    between atoms: N5_16  and  N6_18 
REMARK    5  A    between atoms: C12_24  and  N7_25 
ROOT
HETATM    1  N1  UNL     1      27.422   5.221   6.219  1.00  0.00    -0.170 NA
HETATM    2  C1  UNL     1      28.044   6.200   6.363  1.00  0.00     0.199 C 
HETATM    3  N2  UNL     1      28.746   7.308   6.559  1.00  0.00    -0.209 N 
ATOM      4  H2  UNL     1      28.880   7.458   7.559  1.00  0.00     0.202 HD
HETATM    5  N3  UNL     1      29.272   8.187   5.944  1.00  0.00    -0.155 N 
ENDROOT
BRANCH   5   6
HETATM    6  O1  UNL     1      29.917   9.162   6.772  1.00  0.00    -0.267 OA
ATOM      7  H1  UNL     1      30.678   9.561   6.368  1.00  0.00     0.247 HD
ENDBRANCH   5   6
BRANCH   5   8
HETATM    8  C2  UNL     1      29.390   8.465   4.552  1.00  0.00     0.084 A 
HETATM    9  C3  UNL     1      28.403   8.166   3.646  1.00  0.00     0.036 A 
HETATM   10  C4  UNL     1      28.608   8.475   2.313  1.00  0.00     0.034 A 
HETATM   11  C5  UNL     1      29.746   9.074   1.806  1.00  0.00     0.069 A 
HETATM   12  C12 UNL     1      30.735   9.374   2.726  1.00  0.00     0.132 A 
HETATM   13  C13 UNL     1      30.546   9.066   4.085  1.00  0.00     0.072 A 
BRANCH  11  14
HETATM   14  N4  UNL     1      29.956   9.306   0.449  1.00  0.00    -0.305 N 
HETATM   15  C6  UNL     1      29.918  10.549  -0.188  1.00  0.00     0.339 C 
HETATM   16  O2  UNL     1      29.695  11.611   0.385  1.00  0.00    -0.245 OA
HETATM   17  N5  UNL     1      30.153  10.605  -1.594  1.00  0.00    -0.254 N 
ATOM     18  H5  UNL     1      30.343   9.749  -2.115  1.00  0.00     0.191 HD
ATOM     19  H4  UNL     1      30.156   8.493  -0.134  1.00  0.00     0.171 HD
BRANCH  17  20
HETATM   20  N6  UNL     1      30.121  11.804  -2.238  1.00  0.00    -0.324 N 
HETATM   21  C7  UNL     1      29.054  12.052  -3.133  1.00  0.00     0.142 C 
HETATM   22  C8  UNL     1      28.877  13.478  -3.539  1.00  0.00     0.021 C 
HETATM   23  C9  UNL     1      30.045  14.360  -3.400  1.00  0.00     0.003 C 
HETATM   24  C10 UNL     1      31.206  13.859  -2.621  1.00  0.00     0.021 C 
HETATM   25  C11 UNL     1      31.370  12.350  -2.644  1.00  0.00     0.142 C 
ENDBRANCH  17  20
ENDBRANCH  11  14
BRANCH  12  26
HETATM   26  N7  UNL     1      31.934  10.000   2.329  1.00  0.00    -0.113 N 
HETATM   27  O3  UNL     1      32.771   9.609   1.520  1.00  0.00    -0.532 OA
HETATM   28  O4  UNL     1      32.173  11.260   2.899  1.00  0.00    -0.532 OA
ENDBRANCH  12  26
ENDBRANCH   5   8
TORSDOF 5
ENDMDL
MODEL 2
REMARK VINA RESULT: -8.968975821      2.531      8.392
REMARK  5 active torsions:
REMARK  status: ('A' for Active; 'I' for Inactive)
REMARK    1  A    between atoms: N3_5  and  O1_6 
REMARK    2  A    between atoms: N3_5  and  C2_8 
REMARK    3  A    between atoms: C5_11  and  N4_12 
REMARK       I    between atoms: N4_12  and  C6_14 
REMARK       I    between atoms: C6_14  and  N5_16 
REMARK    4  A    between atoms: N5_16  and  N6_18 
REMARK    5  A    between atoms: C12_24  and  N7_25 
ROOT
HETATM    1  N1  UNL     1      33.820  12.263  -5.473  1.00  0.00    -0.170 NA
HETATM    2  C1  UNL     1      32.756  12.379  -5.002  1.00  0.00     0.199 C 
HETATM    3  N2  UNL     1      31.540  12.528  -4.494  1.00  0.00    -0.209 N 
ATOM      4  H2  UNL     1      30.943  13.009  -5.167  1.00  0.00     0.202 HD
HETATM    5  N3  UNL     1      30.918  12.280  -3.504  1.00  0.00    -0.155 N 
ENDROOT
BRANCH   5   6
HETATM    6  O1  UNL     1      29.556  12.721  -3.556  1.00  0.00    -0.267 OA
ATOM      7  H1  UNL     1      29.035  12.438  -2.814  1.00  0.00     0.247 HD
ENDBRANCH   5   6
BRANCH   5   8
HETATM    8  C2  UNL     1      31.253  11.635  -2.279  1.00  0.00     0.084 A 
HETATM    9  C3  UNL     1      31.242  10.271  -2.128  1.00  0.00     0.036 A 
HETATM   10  C4  UNL     1      31.584   9.735  -0.900  1.00  0.00     0.034 A 
HETATM   11  C5  UNL     1      31.944  10.473   0.213  1.00  0.00     0.069 A 
HETATM   12  C12 UNL     1      31.955  11.848   0.051  1.00  0.00     0.132 A 
HETATM   13  C13 UNL     1      31.610  12.411  -1.190  1.00  0.00     0.072 A 
BRANCH  11  14
HETATM   14  N4  UNL     1      32.212   9.911   1.458  1.00  0.00    -0.305 N 
HETATM   15  C6  UNL     1      31.262   9.440   2.369  1.00  0.00     0.339 C 
HETATM   16  O2  UNL     1      30.050   9.463   2.175  1.00  0.00    -0.245 OA
HETATM   17  N5  UNL     1      31.713   8.897   3.608  1.00  0.00    -0.254 N 
ATOM     18  H5  UNL     1      32.711   8.857   3.816  1.00  0.00     0.191 HD
ATOM     19  H4  UNL     1      33.191   9.835   1.731  1.00  0.00     0.171 HD
BRANCH  17  20
HETATM   20  N6  UNL     1      30.807   8.433   4.512  1.00  0.00    -0.324 N 
HETATM   21  C7  UNL     1      30.954   8.823   5.865  1.00  0.00     0.142 C 
HETATM   22  C8  UNL     1      29.766   8.578   6.734  1.00  0.00     0.021 C 
HETATM   23  C9  UNL     1      28.807   7.560   6.281  1.00  0.00     0.003 C 
HETATM   24  C10 UNL     1      28.929   7.061   4.888  1.00  0.00     0.021 C 
HETATM   25  C11 UNL     1      30.341   7.101   4.332  1.00  0.00     0.142 C 
ENDBRANCH  17  20
ENDBRANCH  11  14
BRANCH  12  26
HETATM   26  N7  UNL     1      32.321  12.703   1.110  1.00  0.00    -0.113 N 
HETATM   27  O3  UNL     1      31.763  12.866   2.192  1.00  0.00    -0.532 OA
HETATM   28  O4  UNL     1      33.510  13.424   0.918  1.00  0.00    -0.532 OA
ENDBRANCH  12  26
ENDBRANCH   5   8
TORSDOF 5
ENDMDL
MODEL 3
REMARK VINA RESULT: -8.857851859      2.486      8.303
REMARK  5 active torsions:
REMARK  status: ('A' for Active; 'I' for Inactive)
REMARK    1  A    between atoms: N3_5  and  O1_6 
REMARK    2  A    between atoms: N3_5  and  C2_8 
REMARK    3  A    between atoms: C5_11  and  N4_12 
REMARK       I    between atoms: N4_12  and  C6_14 
REMARK       I    between atoms: C6_14  and  N5_16 
REMARK    4  A    between atoms: N5_16  and  N6_18 
REMARK    5  A    between atoms: C12_24  and  N7_25 
ROOT
HETATM    1  N1  UNL     1      33.708  12.240  -5.380  1.00  0.00    -0.170 NA
HETATM    2  C1  UNL     1      32.705  12.449  -4.817  1.00  0.00     0.199 C 
HETATM    3  N2  UNL     1      31.559  12.707  -4.201  1.00  0.00    -0.209 N 
ATOM      4  H2  UNL     1      30.990  13.326  -4.779  1.00  0.00     0.202 HD
HETATM    5  N3  UNL     1      30.978  12.450  -3.189  1.00  0.00    -0.155 N 
ENDROOT
BRANCH   5   6
HETATM    6  O1  UNL     1      29.690  13.069  -3.093  1.00  0.00    -0.267 OA
ATOM      7  H1  UNL     1      29.308  13.287  -3.935  1.00  0.00     0.247 HD
ENDBRANCH   5   6
BRANCH   5   8
HETATM    8  C2  UNL     1      31.304  11.651  -2.055  1.00  0.00     0.084 A 
HETATM    9  C3  UNL     1      31.297  10.279  -2.084  1.00  0.00     0.036 A 
HETATM   10  C4  UNL     1      31.629   9.589  -0.932  1.00  0.00     0.034 A 
HETATM   11  C5  UNL     1      31.975  10.176   0.270  1.00  0.00     0.069 A 
HETATM   12  C12 UNL     1      31.982  11.560   0.290  1.00  0.00     0.132 A 
HETATM   13  C13 UNL     1      31.646  12.279  -0.870  1.00  0.00     0.072 A 
BRANCH  11  14
HETATM   14  N4  UNL     1      32.233   9.457   1.435  1.00  0.00    -0.305 N 
HETATM   15  C6  UNL     1      31.310   9.169   2.444  1.00  0.00     0.339 C 
HETATM   16  O2  UNL     1      30.134   9.519   2.424  1.00  0.00    -0.245 OA
HETATM   17  N5  UNL     1      31.748   8.421   3.577  1.00  0.00    -0.254 N 
ATOM     18  H5  UNL     1      32.716   8.107   3.640  1.00  0.00     0.191 HD
ATOM     19  H4  UNL     1      33.182   9.108   1.563  1.00  0.00     0.171 HD
BRANCH  17  20
HETATM   20  N6  UNL     1      30.868   8.128   4.574  1.00  0.00    -0.324 N 
HETATM   21  C7  UNL     1      29.762   7.300   4.266  1.00  0.00     0.142 C 
HETATM   22  C8  UNL     1      29.037   6.737   5.443  1.00  0.00     0.021 C 
HETATM   23  C9  UNL     1      29.193   7.443   6.722  1.00  0.00     0.003 C 
HETATM   24  C10 UNL     1      30.258   8.473   6.823  1.00  0.00     0.021 C 
HETATM   25  C11 UNL     1      30.587   9.161   5.510  1.00  0.00     0.142 C 
ENDBRANCH  17  20
ENDBRANCH  11  14
BRANCH  12  26
HETATM   26  N7  UNL     1      32.334  12.271   1.455  1.00  0.00    -0.113 N 
HETATM   27  O3  UNL     1      31.646  13.039   2.122  1.00  0.00    -0.532 OA
HETATM   28  O4  UNL     1      33.627  12.025   1.943  1.00  0.00    -0.532 OA
ENDBRANCH  12  26
ENDBRANCH   5   8
TORSDOF 5
ENDMDL
MODEL 4
REMARK VINA RESULT: -8.833651680      2.365      8.053
REMARK  5 active torsions:
REMARK  status: ('A' for Active; 'I' for Inactive)
REMARK    1  A    between atoms: N3_5  and  O1_6 
REMARK    2  A    between atoms: N3_5  and  C2_8 
REMARK    3  A    between atoms: C5_11  and  N4_12 
REMARK       I    between atoms: N4_12  and  C6_14 
REMARK       I    between atoms: C6_14  and  N5_16 
REMARK    4  A    between atoms: N5_16  and  N6_18 
REMARK    5  A    between atoms: C12_24  and  N7_25 
ROOT
HETATM    1  N1  UNL     1      27.040  12.277  -3.717  1.00  0.00    -0.170 NA
HETATM    2  C1  UNL     1      28.185  12.463  -3.854  1.00  0.00     0.199 C 
HETATM    3  N2  UNL     1      29.479  12.688  -4.038  1.00  0.00    -0.209 N 
ATOM      4  H2  UNL     1      29.616  13.248  -4.880  1.00  0.00     0.202 HD
HETATM    5  N3  UNL     1      30.538  12.448  -3.536  1.00  0.00    -0.155 N 
ENDROOT
BRANCH   5   6
HETATM    6  O1  UNL     1      31.650  13.003  -4.247  1.00  0.00    -0.267 OA
ATOM      7  H1  UNL     1      32.479  12.586  -4.044  1.00  0.00     0.247 HD
ENDBRANCH   5   6
BRANCH   5   8
HETATM    8  C2  UNL     1      30.921  11.721  -2.372  1.00  0.00     0.084 A 
HETATM    9  C3  UNL     1      30.928  10.350  -2.319  1.00  0.00     0.036 A 
HETATM   10  C4  UNL     1      31.316   9.732  -1.144  1.00  0.00     0.034 A 
HETATM   11  C5  UNL     1      31.707  10.393   0.006  1.00  0.00     0.069 A 
HETATM   12  C12 UNL     1      31.699  11.776  -0.057  1.00  0.00     0.132 A 
HETATM   13  C13 UNL     1      31.306  12.421  -1.242  1.00  0.00     0.072 A 
BRANCH  11  14
HETATM   14  N4  UNL     1      32.022   9.746   1.198  1.00  0.00    -0.305 N 
HETATM   15  C6  UNL     1      31.115   9.360   2.188  1.00  0.00     0.339 C 
HETATM   16  O2  UNL     1      29.903   9.543   2.123  1.00  0.00    -0.245 OA
HETATM   17  N5  UNL     1      31.613   8.709   3.356  1.00  0.00    -0.254 N 
ATOM     18  H5  UNL     1      32.613   8.534   3.457  1.00  0.00     0.191 HD
ATOM     19  H4  UNL     1      33.006   9.536   1.365  1.00  0.00     0.171 HD
BRANCH  17  20
HETATM   20  N6  UNL     1      30.750   8.323   4.335  1.00  0.00    -0.324 N 
HETATM   21  C7  UNL     1      31.055   8.676   5.671  1.00  0.00     0.142 C 
HETATM   22  C8  UNL     1      29.930   8.536   6.642  1.00  0.00     0.021 C 
HETATM   23  C9  UNL     1      28.837   7.626   6.271  1.00  0.00     0.003 C 
HETATM   24  C10 UNL     1      28.784   7.139   4.869  1.00  0.00     0.021 C 
HETATM   25  C11 UNL     1      30.138   7.047   4.188  1.00  0.00     0.142 C 
ENDBRANCH  17  20
ENDBRANCH  11  14
BRANCH  12  26
HETATM   26  N7  UNL     1      32.093  12.558   1.048  1.00  0.00    -0.113 N 
HETATM   27  O3  UNL     1      31.511  12.722   2.117  1.00  0.00    -0.532 OA
HETATM   28  O4  UNL     1      33.340  13.190   0.924  1.00  0.00    -0.532 OA
ENDBRANCH  12  26
ENDBRANCH   5   8
TORSDOF 5
ENDMDL
MODEL 5
REMARK VINA RESULT: -8.708188007      2.004      2.804
REMARK  5 active torsions:
REMARK  status: ('A' for Active; 'I' for Inactive)
REMARK    1  A    between atoms: N3_5  and  O1_6 
REMARK    2  A    between atoms: N3_5  and  C2_8 
REMARK    3  A    between atoms: C5_11  and  N4_12 
REMARK       I    between atoms: N4_12  and  C6_14 
REMARK       I    between atoms: C6_14  and  N5_16 
REMARK    4  A    between atoms: N5_16  and  N6_18 
REMARK    5  A    between atoms: C12_24  and  N7_25 
ROOT
HETATM    1  N1  UNL     1      27.782   6.191   6.973  1.00  0.00    -0.170 NA
HETATM    2  C1  UNL     1      28.823   6.401   6.486  1.00  0.00     0.199 C 
HETATM    3  N2  UNL     1      30.018   6.617   5.954  1.00  0.00    -0.209 N 
ATOM      4  H2  UNL     1      30.698   5.974   6.360  1.00  0.00     0.202 HD
HETATM    5  N3  UNL     1      30.557   7.322   5.152  1.00  0.00    -0.155 N 
ENDROOT
BRANCH   5   6
HETATM    6  O1  UNL     1      31.957   7.059   5.005  1.00  0.00    -0.267 OA
ATOM      7  H1  UNL     1      32.390   7.634   4.386  1.00  0.00     0.247 HD
ENDBRANCH   5   6
BRANCH   5   8
HETATM    8  C2  UNL     1      30.091   8.372   4.310  1.00  0.00     0.084 A 
HETATM    9  C3  UNL     1      30.423   9.688   4.508  1.00  0.00     0.036 A 
HETATM   10  C4  UNL     1      29.922  10.639   3.637  1.00  0.00     0.034 A 
HETATM   11  C5  UNL     1      29.098  10.369   2.560  1.00  0.00     0.069 A 
HETATM   12  C12 UNL     1      28.770   9.039   2.367  1.00  0.00     0.132 A 
HETATM   13  C13 UNL     1      29.268   8.059   3.242  1.00  0.00     0.072 A 
BRANCH  11  14
HETATM   14  N4  UNL     1      28.548  11.354   1.743  1.00  0.00    -0.305 N 
HETATM   15  C6  UNL     1      29.114  11.858   0.568  1.00  0.00     0.339 C 
HETATM   16  O2  UNL     1      30.185  11.481   0.102  1.00  0.00    -0.245 OA
HETATM   17  N5  UNL     1      28.413  12.875  -0.146  1.00  0.00    -0.254 N 
ATOM     18  H5  UNL     1      27.519  13.221   0.202  1.00  0.00     0.191 HD
ATOM     19  H4  UNL     1      27.650  11.744   2.028  1.00  0.00     0.171 HD
BRANCH  17  20
HETATM   20  N6  UNL     1      28.943  13.382  -1.293  1.00  0.00    -0.324 N 
HETATM   21  C7  UNL     1      29.495  14.684  -1.254  1.00  0.00     0.142 C 
HETATM   22  C8  UNL     1      30.355  15.050  -2.418  1.00  0.00     0.021 C 
HETATM   23  C9  UNL     1      30.156  14.288  -3.659  1.00  0.00     0.003 C 
HETATM   24  C10 UNL     1      29.339  13.050  -3.591  1.00  0.00     0.021 C 
HETATM   25  C11 UNL     1      28.276  13.062  -2.508  1.00  0.00     0.142 C 
ENDBRANCH  17  20
ENDBRANCH  11  14
BRANCH  12  26
HETATM   26  N7  UNL     1      27.949   8.640   1.292  1.00  0.00    -0.113 N 
HETATM   27  O3  UNL     1      26.736   8.448   1.284  1.00  0.00    -0.532 OA
HETATM   28  O4  UNL     1      28.601   8.494   0.058  1.00  0.00    -0.532 OA
ENDBRANCH  12  26
ENDBRANCH   5   8
TORSDOF 5
ENDMDL
