MODEL 1
REMARK VINA RESULT: -8.760625969      0.000      0.000
REMARK  6 active torsions:
REMARK  status: ('A' for Active; 'I' for Inactive)
REMARK    1  A    between atoms: C2_2  and  C3_3 
REMARK    2  A    between atoms: C9_9  and  C10_10 
REMARK    3  A    between atoms: C11_14  and  C12_15 
REMARK    4  A    between atoms: C14_17  and  O2_18 
REMARK    5  A    between atoms: C15_20  and  C16_21 
REMARK    6  A    between atoms: C16_21  and  O3_22 
ROOT
HETATM    1  C10 UNL     1      28.875  11.274   0.738  1.00  0.00     0.161 A 
HETATM    2  N1  UNL     1      27.935  10.878   1.608  1.00  0.00    -0.241 N 
ATOM      3  H1  UNL     1      26.928  10.914   1.442  1.00  0.00     0.196 HD
HETATM    4  O1  UNL     1      28.490  10.450   2.678  1.00  0.00    -0.220 OA
HETATM    5  C11 UNL     1      29.806  10.534   2.584  1.00  0.00     0.177 A 
HETATM    6  N2  UNL     1      30.055  11.050   1.372  1.00  0.00    -0.319 N 
ATOM      7  H2  UNL     1      30.981  11.243   0.989  1.00  0.00     0.169 HD
ENDROOT
BRANCH   1   8
HETATM    8  C9  UNL     1      28.622  11.809  -0.560  1.00  0.00     0.115 C 
HETATM    9  C8  UNL     1      27.386  11.584  -1.045  1.00  0.00     0.048 C 
HETATM   10  C7  UNL     1      26.718  11.972  -2.360  1.00  0.00     0.053 C 
HETATM   11  C6  UNL     1      27.751  12.562  -3.134  1.00  0.00    -0.156 C 
HETATM   12  C5  UNL     1      28.506  13.235  -4.065  1.00  0.00     0.087 C 
HETATM   13  C4  UNL     1      29.939  13.322  -3.457  1.00  0.00     0.044 C 
HETATM   14  C3  UNL     1      30.079  13.479  -2.016  1.00  0.00     0.129 C 
HETATM   15  O5  UNL     1      29.735  12.484  -1.098  1.00  0.00    -0.342 OA
BRANCH  14  16
HETATM   16  C2  UNL     1      29.942  14.897  -1.498  1.00  0.00     0.028 C 
HETATM   17  C1  UNL     1      30.378  14.942  -0.043  1.00  0.00     0.007 C 
ENDBRANCH  14  16
ENDBRANCH   1   8
BRANCH   5  18
HETATM   18  C12 UNL     1      30.724  10.119   3.656  1.00  0.00     0.201 C 
HETATM   19  C13 UNL     1      31.354   8.803   3.321  1.00  0.00     0.074 C 
HETATM   20  C14 UNL     1      31.183   7.995   4.575  1.00  0.00     0.152 C 
HETATM   21  C15 UNL     1      30.796   9.016   5.594  1.00  0.00     0.174 C 
HETATM   22  O4  UNL     1      30.091   9.968   4.886  1.00  0.00    -0.368 OA
BRANCH  20  23
HETATM   23  O2  UNL     1      30.186   7.049   4.343  1.00  0.00    -0.393 OA
ATOM     24  H2  UNL     1      30.372   6.291   4.884  1.00  0.00     0.210 HD
ENDBRANCH  20  23
BRANCH  21  25
HETATM   25  C16 UNL     1      29.922   8.441   6.692  1.00  0.00     0.198 C 
BRANCH  25  26
HETATM   26  O3  UNL     1      28.595   8.395   6.320  1.00  0.00    -0.398 OA
ATOM     27  H3  UNL     1      28.124   7.707   6.775  1.00  0.00     0.209 HD
ENDBRANCH  25  26
ENDBRANCH  21  25
ENDBRANCH   5  18
TORSDOF 6
ENDMDL
MODEL 2
REMARK VINA RESULT: -8.758078562      1.745      2.285
REMARK  6 active torsions:
REMARK  status: ('A' for Active; 'I' for Inactive)
REMARK    1  A    between atoms: C2_2  and  C3_3 
REMARK    2  A    between atoms: C9_9  and  C10_10 
REMARK    3  A    between atoms: C11_14  and  C12_15 
REMARK    4  A    between atoms: C14_17  and  O2_18 
REMARK    5  A    between atoms: C15_20  and  C16_21 
REMARK    6  A    between atoms: C16_21  and  O3_22 
ROOT
HETATM    1  C10 UNL     1      28.373  10.124   1.040  1.00  0.00     0.161 A 
HETATM    2  N1  UNL     1      27.224   9.540   1.410  1.00  0.00    -0.241 N 
ATOM      3  H1  UNL     1      26.298   9.790   1.060  1.00  0.00     0.196 HD
HETATM    4  O1  UNL     1      27.463   8.622   2.268  1.00  0.00    -0.220 OA
HETATM    5  C11 UNL     1      28.760   8.543   2.514  1.00  0.00     0.177 A 
HETATM    6  N2  UNL     1      29.337   9.481   1.749  1.00  0.00    -0.319 N 
ATOM      7  H2  UNL     1      30.337   9.679   1.706  1.00  0.00     0.169 HD
ENDROOT
BRANCH   1   8
HETATM    8  C9  UNL     1      28.488  11.189   0.098  1.00  0.00     0.115 C 
HETATM    9  C8  UNL     1      28.039  10.913  -1.141  1.00  0.00     0.048 C 
HETATM   10  C7  UNL     1      27.979  11.749  -2.416  1.00  0.00     0.053 C 
HETATM   11  C6  UNL     1      28.660  12.952  -2.095  1.00  0.00    -0.156 C 
HETATM   12  C5  UNL     1      29.182  14.223  -2.057  1.00  0.00     0.087 C 
HETATM   13  C4  UNL     1      29.786  14.383  -0.629  1.00  0.00     0.044 C 
HETATM   14  C3  UNL     1      29.117  13.735   0.490  1.00  0.00     0.129 C 
HETATM   15  O5  UNL     1      29.062  12.348   0.654  1.00  0.00    -0.342 OA
BRANCH  14  16
HETATM   16  C2  UNL     1      27.939  14.490   1.073  1.00  0.00     0.028 C 
HETATM   17  C1  UNL     1      28.442  15.745   1.767  1.00  0.00     0.007 C 
ENDBRANCH  14  16
ENDBRANCH   1   8
BRANCH   5  18
HETATM   18  C12 UNL     1      29.350   7.583   3.460  1.00  0.00     0.201 C 
HETATM   19  C13 UNL     1      28.309   7.086   4.413  1.00  0.00     0.074 C 
HETATM   20  C14 UNL     1      28.960   7.225   5.759  1.00  0.00     0.152 C 
HETATM   21  C15 UNL     1      30.398   7.453   5.425  1.00  0.00     0.174 C 
HETATM   22  O4  UNL     1      30.376   8.132   4.224  1.00  0.00    -0.368 OA
BRANCH  20  23
HETATM   23  O2  UNL     1      28.372   8.308   6.410  1.00  0.00    -0.393 OA
ATOM     24  H2  UNL     1      27.737   7.967   7.028  1.00  0.00     0.210 HD
ENDBRANCH  20  23
BRANCH  21  25
HETATM   25  C16 UNL     1      31.114   8.284   6.471  1.00  0.00     0.198 C 
BRANCH  25  26
HETATM   26  O3  UNL     1      31.167   9.617   6.120  1.00  0.00    -0.398 OA
ATOM     27  H3  UNL     1      32.059   9.941   6.093  1.00  0.00     0.209 HD
ENDBRANCH  25  26
ENDBRANCH  21  25
ENDBRANCH   5  18
TORSDOF 6
ENDMDL
MODEL 3
REMARK VINA RESULT: -8.705215021      1.697      2.331
REMARK  6 active torsions:
REMARK  status: ('A' for Active; 'I' for Inactive)
REMARK    1  A    between atoms: C2_2  and  C3_3 
REMARK    2  A    between atoms: C9_9  and  C10_10 
REMARK    3  A    between atoms: C11_14  and  C12_15 
REMARK    4  A    between atoms: C14_17  and  O2_18 
REMARK    5  A    between atoms: C15_20  and  C16_21 
REMARK    6  A    between atoms: C16_21  and  O3_22 
ROOT
HETATM    1  C10 UNL     1      28.851  10.902   1.582  1.00  0.00     0.161 A 
HETATM    2  N1  UNL     1      27.710  10.498   2.158  1.00  0.00    -0.241 N 
ATOM      3  H1  UNL     1      26.772  10.757   1.849  1.00  0.00     0.196 HD
HETATM    4  O1  UNL     1      27.974   9.740   3.154  1.00  0.00    -0.220 OA
HETATM    5  C11 UNL     1      29.281   9.598   3.295  1.00  0.00     0.177 A 
HETATM    6  N2  UNL     1      29.838  10.323   2.315  1.00  0.00    -0.319 N 
ATOM      7  H2  UNL     1      30.839  10.423   2.147  1.00  0.00     0.169 HD
ENDROOT
BRANCH   1   8
HETATM    8  C9  UNL     1      28.941  11.759   0.444  1.00  0.00     0.115 C 
HETATM    9  C8  UNL     1      28.883  13.077   0.711  1.00  0.00     0.048 C 
HETATM   10  C7  UNL     1      28.940  14.305  -0.192  1.00  0.00     0.053 C 
HETATM   11  C6  UNL     1      28.936  13.787  -1.514  1.00  0.00    -0.156 C 
HETATM   12  C5  UNL     1      29.021  13.584  -2.870  1.00  0.00     0.087 C 
HETATM   13  C4  UNL     1      28.948  12.040  -3.068  1.00  0.00     0.044 C 
HETATM   14  C3  UNL     1      29.559  11.177  -2.068  1.00  0.00     0.129 C 
HETATM   15  O5  UNL     1      29.075  11.048  -0.764  1.00  0.00    -0.342 OA
BRANCH  14  16
HETATM   16  C2  UNL     1      31.054  10.968  -2.213  1.00  0.00     0.028 C 
HETATM   17  C1  UNL     1      31.486   9.810  -1.330  1.00  0.00     0.007 C 
ENDBRANCH  14  16
ENDBRANCH   1   8
BRANCH   5  18
HETATM   18  C12 UNL     1      29.898   8.784   4.354  1.00  0.00     0.201 C 
HETATM   19  C13 UNL     1      29.940   7.344   3.946  1.00  0.00     0.074 C 
HETATM   20  C14 UNL     1      29.398   6.617   5.142  1.00  0.00     0.152 C 
HETATM   21  C15 UNL     1      29.424   7.653   6.218  1.00  0.00     0.174 C 
HETATM   22  O4  UNL     1      29.207   8.847   5.561  1.00  0.00    -0.368 OA
BRANCH  20  23
HETATM   23  O2  UNL     1      28.109   6.184   4.832  1.00  0.00    -0.393 OA
ATOM     24  H2  UNL     1      27.830   5.586   5.515  1.00  0.00     0.210 HD
ENDBRANCH  20  23
BRANCH  21  25
HETATM   25  C16 UNL     1      28.345   7.437   7.261  1.00  0.00     0.198 C 
BRANCH  25  26
HETATM   26  O3  UNL     1      27.629   8.591   7.505  1.00  0.00    -0.398 OA
ATOM     27  H3  UNL     1      26.726   8.405   7.732  1.00  0.00     0.209 HD
ENDBRANCH  25  26
ENDBRANCH  21  25
ENDBRANCH   5  18
TORSDOF 6
ENDMDL
MODEL 4
REMARK VINA RESULT: -8.657205746      1.363      1.835
REMARK  6 active torsions:
REMARK  status: ('A' for Active; 'I' for Inactive)
REMARK    1  A    between atoms: C2_2  and  C3_3 
REMARK    2  A    between atoms: C9_9  and  C10_10 
REMARK    3  A    between atoms: C11_14  and  C12_15 
REMARK    4  A    between atoms: C14_17  and  O2_18 
REMARK    5  A    between atoms: C15_20  and  C16_21 
REMARK    6  A    between atoms: C16_21  and  O3_22 
ROOT
HETATM    1  C10 UNL     1      28.891  11.111   1.646  1.00  0.00     0.161 A 
HETATM    2  N1  UNL     1      27.758  10.628   2.177  1.00  0.00    -0.241 N 
ATOM      3  H1  UNL     1      26.816  10.858   1.859  1.00  0.00     0.196 HD
HETATM    4  O1  UNL     1      28.037   9.837   3.142  1.00  0.00    -0.220 OA
HETATM    5  C11 UNL     1      29.346   9.748   3.307  1.00  0.00     0.177 A 
HETATM    6  N2  UNL     1      29.888  10.544   2.374  1.00  0.00    -0.319 N 
ATOM      7  H2  UNL     1      30.887  10.698   2.234  1.00  0.00     0.169 HD
ENDROOT
BRANCH   1   8
HETATM    8  C9  UNL     1      28.964  12.024   0.552  1.00  0.00     0.115 C 
HETATM    9  C8  UNL     1      28.155  11.742  -0.487  1.00  0.00     0.048 C 
HETATM   10  C7  UNL     1      27.928  12.442  -1.823  1.00  0.00     0.053 C 
HETATM   11  C6  UNL     1      28.897  13.478  -1.862  1.00  0.00    -0.156 C 
HETATM   12  C5  UNL     1      29.655  14.589  -2.144  1.00  0.00     0.087 C 
HETATM   13  C4  UNL     1      30.636  14.741  -0.943  1.00  0.00     0.044 C 
HETATM   14  C3  UNL     1      30.173  14.378   0.389  1.00  0.00     0.129 C 
HETATM   15  O5  UNL     1      29.886  13.065   0.772  1.00  0.00    -0.342 OA
BRANCH  14  16
HETATM   16  C2  UNL     1      29.370  15.440   1.112  1.00  0.00     0.028 C 
HETATM   17  C1  UNL     1      29.971  16.806   0.826  1.00  0.00     0.007 C 
ENDBRANCH  14  16
ENDBRANCH   1   8
BRANCH   5  18
HETATM   18  C12 UNL     1      29.979   8.915   4.340  1.00  0.00     0.201 C 
HETATM   19  C13 UNL     1      30.049   7.489   3.889  1.00  0.00     0.074 C 
HETATM   20  C14 UNL     1      29.520   6.716   5.062  1.00  0.00     0.152 C 
HETATM   21  C15 UNL     1      29.528   7.718   6.169  1.00  0.00     0.174 C 
HETATM   22  O4  UNL     1      29.288   8.927   5.548  1.00  0.00    -0.368 OA
BRANCH  20  23
HETATM   23  O2  UNL     1      28.241   6.268   4.739  1.00  0.00    -0.393 OA
ATOM     24  H2  UNL     1      28.328   5.450   4.264  1.00  0.00     0.210 HD
ENDBRANCH  20  23
BRANCH  21  25
HETATM   25  C16 UNL     1      28.454   7.451   7.205  1.00  0.00     0.198 C 
BRANCH  25  26
HETATM   26  O3  UNL     1      27.691   8.573   7.455  1.00  0.00    -0.398 OA
ATOM     27  H3  UNL     1      26.786   8.352   7.637  1.00  0.00     0.209 HD
ENDBRANCH  25  26
ENDBRANCH  21  25
ENDBRANCH   5  18
TORSDOF 6
ENDMDL
MODEL 5
REMARK VINA RESULT: -8.616959495      1.714      2.452
REMARK  6 active torsions:
REMARK  status: ('A' for Active; 'I' for Inactive)
REMARK    1  A    between atoms: C2_2  and  C3_3 
REMARK    2  A    between atoms: C9_9  and  C10_10 
REMARK    3  A    between atoms: C11_14  and  C12_15 
REMARK    4  A    between atoms: C14_17  and  O2_18 
REMARK    5  A    between atoms: C15_20  and  C16_21 
REMARK    6  A    between atoms: C16_21  and  O3_22 
ROOT
HETATM    1  C10 UNL     1      28.411  10.607  -0.618  1.00  0.00     0.161 A 
HETATM    2  N1  UNL     1      27.407   9.743  -0.828  1.00  0.00    -0.241 N 
ATOM      3  H1  UNL     1      26.776   9.760  -1.630  1.00  0.00     0.196 HD
HETATM    4  O1  UNL     1      27.360   8.896   0.129  1.00  0.00    -0.220 OA
HETATM    5  C11 UNL     1      28.311   9.141   1.014  1.00  0.00     0.177 A 
HETATM    6  N2  UNL     1      28.974  10.212   0.553  1.00  0.00    -0.319 N 
ATOM      7  H2  UNL     1      29.771  10.657   1.009  1.00  0.00     0.169 HD
ENDROOT
BRANCH   1   8
HETATM    8  C9  UNL     1      28.759  11.689  -1.480  1.00  0.00     0.115 C 
HETATM    9  C8  UNL     1      28.100  11.724  -2.655  1.00  0.00     0.048 C 
HETATM   10  C7  UNL     1      28.170  12.687  -3.836  1.00  0.00     0.053 C 
HETATM   11  C6  UNL     1      29.242  13.564  -3.529  1.00  0.00    -0.156 C 
HETATM   12  C5  UNL     1      30.155  14.590  -3.471  1.00  0.00     0.087 C 
HETATM   13  C4  UNL     1      30.942  14.374  -2.143  1.00  0.00     0.044 C 
HETATM   14  C3  UNL     1      30.235  13.837  -0.990  1.00  0.00     0.129 C 
HETATM   15  O5  UNL     1      29.745  12.530  -0.928  1.00  0.00    -0.342 OA
BRANCH  14  16
HETATM   16  C2  UNL     1      29.449  14.848  -0.177  1.00  0.00     0.028 C 
HETATM   17  C1  UNL     1      30.333  16.047   0.119  1.00  0.00     0.007 C 
ENDBRANCH  14  16
ENDBRANCH   1   8
BRANCH   5  18
HETATM   18  C12 UNL     1      28.515   8.339   2.229  1.00  0.00     0.201 C 
HETATM   19  C13 UNL     1      28.103   9.115   3.441  1.00  0.00     0.074 C 
HETATM   20  C14 UNL     1      29.257   8.943   4.386  1.00  0.00     0.152 C 
HETATM   21  C15 UNL     1      30.041   7.828   3.776  1.00  0.00     0.174 C 
HETATM   22  O4  UNL     1      29.842   7.962   2.417  1.00  0.00    -0.368 OA
BRANCH  20  23
HETATM   23  O2  UNL     1      29.960  10.146   4.428  1.00  0.00    -0.393 OA
ATOM     24  H2  UNL     1      30.283  10.326   3.552  1.00  0.00     0.210 HD
ENDBRANCH  20  23
BRANCH  21  25
HETATM   25  C16 UNL     1      31.521   7.915   4.090  1.00  0.00     0.198 C 
BRANCH  25  26
HETATM   26  O3  UNL     1      32.212   8.607   3.117  1.00  0.00    -0.398 OA
ATOM     27  H3  UNL     1      31.717   9.348   2.790  1.00  0.00     0.209 HD
ENDBRANCH  25  26
ENDBRANCH  21  25
ENDBRANCH   5  18
TORSDOF 6
ENDMDL
