MODEL 1
REMARK VINA RESULT: -8.370278104      0.000      0.000
REMARK  5 active torsions:
REMARK  status: ('A' for Active; 'I' for Inactive)
REMARK    1  A    between atoms: C2_3  and  O1_4 
REMARK    2  A    between atoms: C3_6  and  C4_7 
REMARK    3  A    between atoms: C4_7  and  C7_14 
REMARK    4  A    between atoms: N2_8  and  C5_10 
REMARK    5  A    between atoms: C5_10  and  C6_11 
ROOT
HETATM    1  C1  UNL     1      28.912   9.179   0.492  1.00  0.00     0.159 C 
HETATM    2  N1  UNL     1      29.797  10.248   0.003  1.00  0.00    -0.321 N 
HETATM    3  C2  UNL     1      29.933  10.485  -1.313  1.00  0.00     0.157 A 
HETATM    4  C3  UNL     1      30.758  11.487  -1.797  1.00  0.00     0.060 A 
HETATM    5  C10 UNL     1      31.481  12.282  -0.915  1.00  0.00     0.085 A 
HETATM    6  C11 UNL     1      32.341  13.367  -1.285  1.00  0.00     0.102 C 
HETATM    7  N3  UNL     1      33.039  14.267  -1.543  1.00  0.00    -0.191 NA
HETATM    8  C12 UNL     1      31.323  12.011   0.456  1.00  0.00     0.104 A 
HETATM    9  C13 UNL     1      32.064  12.821   1.394  1.00  0.00     0.104 C 
HETATM   10  N4  UNL     1      32.651  13.472   2.161  1.00  0.00    -0.191 NA
HETATM   11  C14 UNL     1      30.488  11.006   0.860  1.00  0.00     0.127 A 
HETATM   12  S1  UNL     1      30.319  10.709   2.471  1.00  0.00    -0.059 SA
ENDROOT
BRANCH   4  13
HETATM   13  C4  UNL     1      30.834  11.817  -3.226  1.00  0.00     0.025 C 
HETATM   14  N2  UNL     1      31.830  11.438  -3.905  1.00  0.00    -0.382 N 
ATOM     15  H2  UNL     1      32.524  10.914  -3.372  1.00  0.00     0.160 HD
BRANCH  14  16
HETATM   16  C5  UNL     1      32.157  11.608  -5.271  1.00  0.00     0.232 C 
BRANCH  16  17
HETATM   17  C6  UNL     1      33.248  12.656  -5.354  1.00  0.00     0.191 C 
HETATM   18  O2  UNL     1      34.396  12.244  -5.588  1.00  0.00    -0.647 OA
HETATM   19  O3  UNL     1      33.033  13.999  -5.186  1.00  0.00    -0.647 OA
ENDBRANCH  16  17
ENDBRANCH  14  16
BRANCH  13  20
HETATM   20  C7  UNL     1      29.783  12.717  -3.831  1.00  0.00     0.036 A 
HETATM   21  C8  UNL     1      28.868  13.406  -2.882  1.00  0.00     0.011 A 
HETATM   22  C9  UNL     1      29.869  14.190  -3.661  1.00  0.00     0.011 A 
ENDBRANCH  13  20
ENDBRANCH   4  13
BRANCH   3  23
HETATM   23  O1  UNL     1      29.225   9.690  -2.189  1.00  0.00    -0.345 OA
ATOM     24  H1  UNL     1      29.199   9.948  -3.104  1.00  0.00     0.219 HD
ENDBRANCH   3  23
TORSDOF 5
ENDMDL
MODEL 2
REMARK VINA RESULT: -8.238245669      1.896      3.306
REMARK  5 active torsions:
REMARK  status: ('A' for Active; 'I' for Inactive)
REMARK    1  A    between atoms: C2_3  and  O1_4 
REMARK    2  A    between atoms: C3_6  and  C4_7 
REMARK    3  A    between atoms: C4_7  and  C7_14 
REMARK    4  A    between atoms: N2_8  and  C5_10 
REMARK    5  A    between atoms: C5_10  and  C6_11 
ROOT
HETATM    1  C1  UNL     1      33.339  11.876   2.164  1.00  0.00     0.159 C 
HETATM    2  N1  UNL     1      32.287  11.702   1.151  1.00  0.00    -0.321 N 
HETATM    3  C2  UNL     1      32.257  12.466   0.047  1.00  0.00     0.157 A 
HETATM    4  C3  UNL     1      31.277  12.319  -0.921  1.00  0.00     0.060 A 
HETATM    5  C10 UNL     1      30.282  11.361  -0.767  1.00  0.00     0.085 A 
HETATM    6  C11 UNL     1      29.235  11.087  -1.708  1.00  0.00     0.102 C 
HETATM    7  N3  UNL     1      28.376  10.824  -2.453  1.00  0.00    -0.191 NA
HETATM    8  C12 UNL     1      30.335  10.576   0.398  1.00  0.00     0.104 A 
HETATM    9  C13 UNL     1      29.313   9.573   0.584  1.00  0.00     0.104 C 
HETATM   10  N4  UNL     1      28.498   8.756   0.743  1.00  0.00    -0.191 NA
HETATM   11  C14 UNL     1      31.335  10.776   1.310  1.00  0.00     0.127 A 
HETATM   12  S1  UNL     1      31.376   9.843   2.666  1.00  0.00    -0.059 SA
ENDROOT
BRANCH   4  13
HETATM   13  C4  UNL     1      31.295  13.082  -2.177  1.00  0.00     0.025 C 
HETATM   14  N2  UNL     1      32.110  12.767  -3.090  1.00  0.00    -0.382 N 
ATOM     15  H2  UNL     1      32.711  11.975  -2.859  1.00  0.00     0.160 HD
BRANCH  14  16
HETATM   16  C5  UNL     1      32.341  13.312  -4.375  1.00  0.00     0.232 C 
BRANCH  16  17
HETATM   17  C6  UNL     1      33.033  12.251  -5.206  1.00  0.00     0.191 C 
HETATM   18  O2  UNL     1      32.333  11.295  -5.579  1.00  0.00    -0.647 OA
HETATM   19  O3  UNL     1      34.358  12.294  -5.554  1.00  0.00    -0.647 OA
ENDBRANCH  16  17
ENDBRANCH  14  16
BRANCH  13  20
HETATM   20  C7  UNL     1      30.429  14.311  -2.304  1.00  0.00     0.036 A 
HETATM   21  C8  UNL     1      29.339  14.467  -1.305  1.00  0.00     0.011 A 
HETATM   22  C9  UNL     1      30.508  15.393  -1.289  1.00  0.00     0.011 A 
ENDBRANCH  13  20
ENDBRANCH   4  13
BRANCH   3  23
HETATM   23  O1  UNL     1      33.236  13.425  -0.102  1.00  0.00    -0.345 OA
ATOM     24  H1  UNL     1      34.121  13.133  -0.291  1.00  0.00     0.219 HD
ENDBRANCH   3  23
TORSDOF 5
ENDMDL
MODEL 3
REMARK VINA RESULT: -8.162760248      1.521      1.744
REMARK  5 active torsions:
REMARK  status: ('A' for Active; 'I' for Inactive)
REMARK    1  A    between atoms: C2_3  and  O1_4 
REMARK    2  A    between atoms: C3_6  and  C4_7 
REMARK    3  A    between atoms: C4_7  and  C7_14 
REMARK    4  A    between atoms: N2_8  and  C5_10 
REMARK    5  A    between atoms: C5_10  and  C6_11 
ROOT
HETATM    1  C1  UNL     1      27.715   9.132  -0.774  1.00  0.00     0.159 C 
HETATM    2  N1  UNL     1      28.854  10.041  -0.574  1.00  0.00    -0.321 N 
HETATM    3  C2  UNL     1      29.248  10.880  -1.547  1.00  0.00     0.157 A 
HETATM    4  C3  UNL     1      30.316  11.746  -1.381  1.00  0.00     0.060 A 
HETATM    5  C10 UNL     1      31.020  11.764  -0.183  1.00  0.00     0.085 A 
HETATM    6  C11 UNL     1      32.120  12.632   0.126  1.00  0.00     0.102 C 
HETATM    7  N3  UNL     1      33.008  13.329   0.421  1.00  0.00    -0.191 NA
HETATM    8  C12 UNL     1      30.590  10.875   0.818  1.00  0.00     0.104 A 
HETATM    9  C13 UNL     1      31.304  10.873   2.073  1.00  0.00     0.104 C 
HETATM   10  N4  UNL     1      31.868  10.865   3.092  1.00  0.00    -0.191 NA
HETATM   11  C14 UNL     1      29.524  10.049   0.583  1.00  0.00     0.127 A 
HETATM   12  S1  UNL     1      29.038   9.018   1.771  1.00  0.00    -0.059 SA
ENDROOT
BRANCH   4  13
HETATM   13  C4  UNL     1      30.689  12.735  -2.402  1.00  0.00     0.025 C 
HETATM   14  N2  UNL     1      31.705  12.536  -3.126  1.00  0.00    -0.382 N 
ATOM     15  H2  UNL     1      32.198  11.666  -2.924  1.00  0.00     0.160 HD
BRANCH  14  16
HETATM   16  C5  UNL     1      32.284  13.300  -4.167  1.00  0.00     0.232 C 
BRANCH  16  17
HETATM   17  C6  UNL     1      32.971  12.338  -5.114  1.00  0.00     0.191 C 
HETATM   18  O2  UNL     1      32.340  11.313  -5.420  1.00  0.00    -0.647 OA
HETATM   19  O3  UNL     1      34.224  12.539  -5.633  1.00  0.00    -0.647 OA
ENDBRANCH  16  17
ENDBRANCH  14  16
BRANCH  13  20
HETATM   20  C7  UNL     1      29.927  14.035  -2.480  1.00  0.00     0.036 A 
HETATM   21  C8  UNL     1      29.124  14.412  -1.286  1.00  0.00     0.011 A 
HETATM   22  C9  UNL     1      30.338  15.197  -1.650  1.00  0.00     0.011 A 
ENDBRANCH  13  20
ENDBRANCH   4  13
BRANCH   3  23
HETATM   23  O1  UNL     1      28.558  10.855  -2.740  1.00  0.00    -0.345 OA
ATOM     24  H1  UNL     1      29.016  10.545  -3.514  1.00  0.00     0.219 HD
ENDBRANCH   3  23
TORSDOF 5
ENDMDL
MODEL 4
REMARK VINA RESULT: -8.117140303      1.843      3.343
REMARK  5 active torsions:
REMARK  status: ('A' for Active; 'I' for Inactive)
REMARK    1  A    between atoms: C2_3  and  O1_4 
REMARK    2  A    between atoms: C3_6  and  C4_7 
REMARK    3  A    between atoms: C4_7  and  C7_14 
REMARK    4  A    between atoms: N2_8  and  C5_10 
REMARK    5  A    between atoms: C5_10  and  C6_11 
ROOT
HETATM    1  C1  UNL     1      33.043  11.971   2.150  1.00  0.00     0.159 C 
HETATM    2  N1  UNL     1      31.917  11.573   1.291  1.00  0.00    -0.321 N 
HETATM    3  C2  UNL     1      31.751  12.115   0.074  1.00  0.00     0.157 A 
HETATM    4  C3  UNL     1      30.700  11.754  -0.753  1.00  0.00     0.060 A 
HETATM    5  C10 UNL     1      29.775  10.807  -0.332  1.00  0.00     0.085 A 
HETATM    6  C11 UNL     1      28.665  10.325  -1.102  1.00  0.00     0.102 C 
HETATM    7  N3  UNL     1      27.760   9.896  -1.701  1.00  0.00    -0.191 NA
HETATM    8  C12 UNL     1      29.970  10.256   0.947  1.00  0.00     0.104 A 
HETATM    9  C13 UNL     1      29.022   9.271   1.410  1.00  0.00     0.104 C 
HETATM   10  N4  UNL     1      28.268   8.470   1.793  1.00  0.00    -0.191 NA
HETATM   11  C14 UNL     1      31.033  10.660   1.708  1.00  0.00     0.127 A 
HETATM   12  S1  UNL     1      31.241  10.000   3.201  1.00  0.00    -0.059 SA
ENDROOT
BRANCH   4  13
HETATM   13  C4  UNL     1      30.569  12.268  -2.124  1.00  0.00     0.025 C 
HETATM   14  N2  UNL     1      31.299  11.798  -3.042  1.00  0.00    -0.382 N 
ATOM     15  H2  UNL     1      31.944  11.071  -2.732  1.00  0.00     0.160 HD
BRANCH  14  16
HETATM   16  C5  UNL     1      31.383  12.095  -4.423  1.00  0.00     0.232 C 
BRANCH  16  17
HETATM   17  C6  UNL     1      32.719  12.766  -4.667  1.00  0.00     0.191 C 
HETATM   18  O2  UNL     1      32.806  13.962  -4.345  1.00  0.00    -0.647 OA
HETATM   19  O3  UNL     1      33.805  12.133  -5.212  1.00  0.00    -0.647 OA
ENDBRANCH  16  17
ENDBRANCH  14  16
BRANCH  13  20
HETATM   20  C7  UNL     1      29.656  13.441  -2.386  1.00  0.00     0.036 A 
HETATM   21  C8  UNL     1      29.165  14.184  -1.195  1.00  0.00     0.011 A 
HETATM   22  C9  UNL     1      30.125  14.828  -2.137  1.00  0.00     0.011 A 
ENDBRANCH  13  20
ENDBRANCH   4  13
BRANCH   3  23
HETATM   23  O1  UNL     1      32.662  13.063  -0.342  1.00  0.00    -0.345 OA
ATOM     24  H1  UNL     1      32.493  13.972  -0.119  1.00  0.00     0.219 HD
ENDBRANCH   3  23
TORSDOF 5
ENDMDL
MODEL 5
REMARK VINA RESULT: -8.068593274      1.962      2.623
REMARK  5 active torsions:
REMARK  status: ('A' for Active; 'I' for Inactive)
REMARK    1  A    between atoms: C2_3  and  O1_4 
REMARK    2  A    between atoms: C3_6  and  C4_7 
REMARK    3  A    between atoms: C4_7  and  C7_14 
REMARK    4  A    between atoms: N2_8  and  C5_10 
REMARK    5  A    between atoms: C5_10  and  C6_11 
ROOT
HETATM    1  C1  UNL     1      27.574   8.526  -0.374  1.00  0.00     0.159 C 
HETATM    2  N1  UNL     1      28.502   9.565   0.098  1.00  0.00    -0.321 N 
HETATM    3  C2  UNL     1      29.030  10.459  -0.755  1.00  0.00     0.157 A 
HETATM    4  C3  UNL     1      29.904  11.448  -0.333  1.00  0.00     0.060 A 
HETATM    5  C10 UNL     1      30.263  11.537   1.007  1.00  0.00     0.085 A 
HETATM    6  C11 UNL     1      31.129  12.529   1.574  1.00  0.00     0.102 C 
HETATM    7  N3  UNL     1      31.817  13.327   2.077  1.00  0.00    -0.191 NA
HETATM    8  C12 UNL     1      29.699  10.588   1.877  1.00  0.00     0.104 A 
HETATM    9  C13 UNL     1      30.056  10.657   3.275  1.00  0.00     0.104 C 
HETATM   10  N4  UNL     1      30.332  10.705   4.406  1.00  0.00    -0.191 NA
HETATM   11  C14 UNL     1      28.841   9.640   1.389  1.00  0.00     0.127 A 
HETATM   12  S1  UNL     1      28.192   8.541   2.429  1.00  0.00    -0.059 SA
ENDROOT
BRANCH   4  13
HETATM   13  C4  UNL     1      30.406  12.490  -1.240  1.00  0.00     0.025 C 
HETATM   14  N2  UNL     1      31.577  12.404  -1.706  1.00  0.00    -0.382 N 
ATOM     15  H2  UNL     1      32.092  11.581  -1.391  1.00  0.00     0.160 HD
BRANCH  14  16
HETATM   16  C5  UNL     1      32.305  13.242  -2.584  1.00  0.00     0.232 C 
BRANCH  16  17
HETATM   17  C6  UNL     1      32.528  12.473  -3.870  1.00  0.00     0.191 C 
HETATM   18  O2  UNL     1      33.014  13.109  -4.819  1.00  0.00    -0.647 OA
HETATM   19  O3  UNL     1      32.225  11.147  -4.031  1.00  0.00    -0.647 OA
ENDBRANCH  16  17
ENDBRANCH  14  16
BRANCH  13  20
HETATM   20  C7  UNL     1      29.559  13.712  -1.498  1.00  0.00     0.036 A 
HETATM   21  C8  UNL     1      28.536  14.045  -0.471  1.00  0.00     0.011 A 
HETATM   22  C9  UNL     1      29.722  14.928  -0.661  1.00  0.00     0.011 A 
ENDBRANCH  13  20
ENDBRANCH   4  13
BRANCH   3  23
HETATM   23  O1  UNL     1      28.684  10.366  -2.086  1.00  0.00    -0.345 OA
ATOM     24  H1  UNL     1      29.373  10.461  -2.733  1.00  0.00     0.219 HD
ENDBRANCH   3  23
TORSDOF 5
ENDMDL
