MODEL 1
REMARK VINA RESULT: -7.476021933      0.000      0.000
REMARK  6 active torsions:
REMARK  status: ('A' for Active; 'I' for Inactive)
REMARK    1  A    between atoms: C1_2  and  N2_4 
REMARK    2  A    between atoms: N3_6  and  C2_8 
REMARK    3  A    between atoms: C3_9  and  O1_10 
REMARK    4  A    between atoms: N4_12  and  C4_13 
REMARK    5  A    between atoms: C4_13  and  C5_14 
REMARK    6  A    between atoms: C5_14  and  N5_15 
ROOT
HETATM    1  C2  UNL     1      30.780  11.042  -0.815  1.00  0.00     0.135 A 
HETATM    2  C3  UNL     1      31.179  11.113   0.501  1.00  0.00     0.174 A 
HETATM    3  N4  UNL     1      30.371  10.339   1.235  1.00  0.00    -0.322 N 
HETATM    4  C10 UNL     1      29.446   9.750   0.477  1.00  0.00     0.075 A 
HETATM    5  C11 UNL     1      28.347   8.900   0.405  1.00  0.00     0.057 A 
HETATM    6  C12 UNL     1      28.002   8.874  -0.920  1.00  0.00     0.145 A 
HETATM    7  O3  UNL     1      28.804   9.635  -1.619  1.00  0.00    -0.318 OA
HETATM    8  C13 UNL     1      29.685  10.177  -0.805  1.00  0.00     0.134 A 
ENDROOT
BRANCH   3   9
HETATM    9  C4  UNL     1      30.483  10.173   2.667  1.00  0.00     0.161 C 
BRANCH   9  10
HETATM   10  C5  UNL     1      31.298   8.973   3.061  1.00  0.00     0.292 C 
BRANCH  10  11
HETATM   11  N5  UNL     1      30.706   8.388   4.257  1.00  0.00     0.094 N 
HETATM   12  C6  UNL     1      30.760   9.344   5.372  1.00  0.00     0.298 C 
HETATM   13  C7  UNL     1      30.189   8.616   6.575  1.00  0.00     0.198 C 
HETATM   14  O2  UNL     1      28.873   8.212   6.346  1.00  0.00    -0.388 OA
HETATM   15  C8  UNL     1      28.782   7.376   5.233  1.00  0.00     0.198 C 
HETATM   16  C9  UNL     1      29.275   8.122   4.013  1.00  0.00     0.298 C 
ENDBRANCH  10  11
ENDBRANCH   9  10
ENDBRANCH   3   9
BRANCH   2  17
HETATM   17  O1  UNL     1      32.264  11.888   0.940  1.00  0.00    -0.344 OA
ATOM     18  H1  UNL     1      32.469  12.030   1.857  1.00  0.00     0.219 HD
ENDBRANCH   2  17
BRANCH   1  19
HETATM   19  N3  UNL     1      31.396  11.742  -1.882  1.00  0.00    -0.292 N 
HETATM   20  N2  UNL     1      31.254  11.335  -3.086  1.00  0.00    -0.278 N 
ATOM     21  H2  UNL     1      30.701  10.508  -3.313  1.00  0.00     0.189 HD
ATOM     22  H3  UNL     1      31.955  12.573  -1.689  1.00  0.00     0.187 HD
BRANCH  20  23
HETATM   23  C1  UNL     1      31.908  12.099  -4.088  1.00  0.00     0.199 C 
HETATM   24  N1  UNL     1      32.429  11.475  -5.235  1.00  0.00    -0.068 NA
HETATM   25  S1  UNL     1      32.077  13.732  -3.944  1.00  0.00    -0.043 SA
ENDBRANCH  20  23
ENDBRANCH   1  19
TORSDOF 6
ENDMDL
MODEL 2
REMARK VINA RESULT: -7.414716391      3.618      7.430
REMARK  6 active torsions:
REMARK  status: ('A' for Active; 'I' for Inactive)
REMARK    1  A    between atoms: C1_2  and  N2_4 
REMARK    2  A    between atoms: N3_6  and  C2_8 
REMARK    3  A    between atoms: C3_9  and  O1_10 
REMARK    4  A    between atoms: N4_12  and  C4_13 
REMARK    5  A    between atoms: C4_13  and  C5_14 
REMARK    6  A    between atoms: C5_14  and  N5_15 
ROOT
HETATM    1  C2  UNL     1      29.395  10.321   2.851  1.00  0.00     0.135 A 
HETATM    2  C3  UNL     1      29.796  11.484   2.234  1.00  0.00     0.174 A 
HETATM    3  N4  UNL     1      29.384  11.458   0.961  1.00  0.00    -0.322 N 
HETATM    4  C10 UNL     1      28.724  10.330   0.691  1.00  0.00     0.075 A 
HETATM    5  C11 UNL     1      28.040   9.560  -0.244  1.00  0.00     0.057 A 
HETATM    6  C12 UNL     1      27.672   8.426   0.429  1.00  0.00     0.145 A 
HETATM    7  O3  UNL     1      28.083   8.474   1.670  1.00  0.00    -0.318 OA
HETATM    8  C13 UNL     1      28.721   9.609   1.859  1.00  0.00     0.134 A 
ENDROOT
BRANCH   3   9
HETATM    9  C4  UNL     1      29.631  12.510   0.002  1.00  0.00     0.161 C 
BRANCH   9  10
HETATM   10  C5  UNL     1      28.416  13.347  -0.285  1.00  0.00     0.292 C 
BRANCH  10  11
HETATM   11  N5  UNL     1      28.149  13.294  -1.716  1.00  0.00     0.094 N 
HETATM   12  C6  UNL     1      29.275  12.668  -2.422  1.00  0.00     0.298 C 
HETATM   13  C7  UNL     1      28.927  12.727  -3.898  1.00  0.00     0.198 C 
HETATM   14  O2  UNL     1      27.742  12.041  -4.169  1.00  0.00    -0.388 OA
HETATM   15  C8  UNL     1      26.674  12.560  -3.437  1.00  0.00     0.198 C 
HETATM   16  C9  UNL     1      26.976  12.430  -1.961  1.00  0.00     0.298 C 
ENDBRANCH  10  11
ENDBRANCH   9  10
ENDBRANCH   3   9
BRANCH   2  17
HETATM   17  O1  UNL     1      30.518  12.497   2.885  1.00  0.00    -0.344 OA
ATOM     18  H1  UNL     1      31.386  12.776   2.617  1.00  0.00     0.219 HD
ENDBRANCH   2  17
BRANCH   1  19
HETATM   19  N3  UNL     1      29.665   9.993   4.203  1.00  0.00    -0.292 N 
HETATM   20  N2  UNL     1      29.238   8.893   4.696  1.00  0.00    -0.278 N 
ATOM     21  H2  UNL     1      28.699   8.228   4.142  1.00  0.00     0.189 HD
ATOM     22  H3  UNL     1      30.201  10.637   4.785  1.00  0.00     0.187 HD
BRANCH  20  23
HETATM   23  C1  UNL     1      29.556   8.650   6.058  1.00  0.00     0.199 C 
HETATM   24  N1  UNL     1      28.536   8.454   7.006  1.00  0.00    -0.068 NA
HETATM   25  S1  UNL     1      31.121   8.588   6.572  1.00  0.00    -0.043 SA
ENDBRANCH  20  23
ENDBRANCH   1  19
TORSDOF 6
ENDMDL
MODEL 3
REMARK VINA RESULT: -7.396018952      3.697      7.904
REMARK  6 active torsions:
REMARK  status: ('A' for Active; 'I' for Inactive)
REMARK    1  A    between atoms: C1_2  and  N2_4 
REMARK    2  A    between atoms: N3_6  and  C2_8 
REMARK    3  A    between atoms: C3_9  and  O1_10 
REMARK    4  A    between atoms: N4_12  and  C4_13 
REMARK    5  A    between atoms: C4_13  and  C5_14 
REMARK    6  A    between atoms: C5_14  and  N5_15 
ROOT
HETATM    1  C2  UNL     1      29.253   8.958   2.469  1.00  0.00     0.135 A 
HETATM    2  C3  UNL     1      28.291   8.980   1.485  1.00  0.00     0.174 A 
HETATM    3  N4  UNL     1      28.827   9.495   0.373  1.00  0.00    -0.322 N 
HETATM    4  C10 UNL     1      30.107   9.822   0.561  1.00  0.00     0.075 A 
HETATM    5  C11 UNL     1      31.279  10.348   0.029  1.00  0.00     0.057 A 
HETATM    6  C12 UNL     1      32.189  10.298   1.051  1.00  0.00     0.145 A 
HETATM    7  O3  UNL     1      31.644   9.791   2.127  1.00  0.00    -0.318 OA
HETATM    8  C13 UNL     1      30.389   9.494   1.863  1.00  0.00     0.134 A 
ENDROOT
BRANCH   3   9
HETATM    9  C4  UNL     1      28.109   9.681  -0.868  1.00  0.00     0.161 C 
BRANCH   9  10
HETATM   10  C5  UNL     1      27.625  11.091  -1.065  1.00  0.00     0.292 C 
BRANCH  10  11
HETATM   11  N5  UNL     1      28.097  11.562  -2.360  1.00  0.00     0.094 N 
HETATM   12  C6  UNL     1      27.027  12.286  -3.061  1.00  0.00     0.298 C 
HETATM   13  C7  UNL     1      27.597  12.669  -4.414  1.00  0.00     0.198 C 
HETATM   14  O2  UNL     1      28.725  13.481  -4.278  1.00  0.00    -0.388 OA
HETATM   15  C8  UNL     1      29.722  12.850  -3.535  1.00  0.00     0.198 C 
HETATM   16  C9  UNL     1      29.187  12.538  -2.155  1.00  0.00     0.298 C 
ENDBRANCH  10  11
ENDBRANCH   9  10
ENDBRANCH   3   9
BRANCH   2  17
HETATM   17  O1  UNL     1      26.977   8.523   1.677  1.00  0.00    -0.344 OA
ATOM     18  H1  UNL     1      26.717   7.967   2.402  1.00  0.00     0.219 HD
ENDBRANCH   2  17
BRANCH   1  19
HETATM   19  N3  UNL     1      29.043   8.489   3.790  1.00  0.00    -0.292 N 
HETATM   20  N2  UNL     1      28.771   7.257   3.999  1.00  0.00    -0.278 N 
ATOM     21  H2  UNL     1      28.699   6.584   3.236  1.00  0.00     0.189 HD
ATOM     22  H3  UNL     1      29.109   9.136   4.575  1.00  0.00     0.187 HD
BRANCH  20  23
HETATM   23  C1  UNL     1      28.577   6.879   5.354  1.00  0.00     0.199 C 
HETATM   24  N1  UNL     1      27.803   5.751   5.677  1.00  0.00    -0.068 NA
HETATM   25  S1  UNL     1      29.249   7.741   6.587  1.00  0.00    -0.043 SA
ENDBRANCH  20  23
ENDBRANCH   1  19
TORSDOF 6
ENDMDL
MODEL 4
REMARK VINA RESULT: -7.379768186      3.648      7.825
REMARK  6 active torsions:
REMARK  status: ('A' for Active; 'I' for Inactive)
REMARK    1  A    between atoms: C1_2  and  N2_4 
REMARK    2  A    between atoms: N3_6  and  C2_8 
REMARK    3  A    between atoms: C3_9  and  O1_10 
REMARK    4  A    between atoms: N4_12  and  C4_13 
REMARK    5  A    between atoms: C4_13  and  C5_14 
REMARK    6  A    between atoms: C5_14  and  N5_15 
ROOT
HETATM    1  C2  UNL     1      29.249   9.899   2.957  1.00  0.00     0.135 A 
HETATM    2  C3  UNL     1      28.346  10.174   1.955  1.00  0.00     0.174 A 
HETATM    3  N4  UNL     1      28.928  10.986   1.065  1.00  0.00    -0.322 N 
HETATM    4  C10 UNL     1      30.181  11.273   1.420  1.00  0.00     0.075 A 
HETATM    5  C11 UNL     1      31.363  11.948   1.131  1.00  0.00     0.057 A 
HETATM    6  C12 UNL     1      32.212  11.635   2.159  1.00  0.00     0.145 A 
HETATM    7  O3  UNL     1      31.625  10.840   3.015  1.00  0.00    -0.318 OA
HETATM    8  C13 UNL     1      30.399  10.604   2.598  1.00  0.00     0.134 A 
ENDROOT
BRANCH   3   9
HETATM    9  C4  UNL     1      28.277  11.494  -0.122  1.00  0.00     0.161 C 
BRANCH   9  10
HETATM   10  C5  UNL     1      28.308  10.527  -1.273  1.00  0.00     0.292 C 
BRANCH  10  11
HETATM   11  N5  UNL     1      28.609  11.270  -2.489  1.00  0.00     0.094 N 
HETATM   12  C6  UNL     1      27.452  12.082  -2.891  1.00  0.00     0.298 C 
HETATM   13  C7  UNL     1      27.845  12.754  -4.194  1.00  0.00     0.198 C 
HETATM   14  O2  UNL     1      28.971  13.561  -4.030  1.00  0.00    -0.388 OA
HETATM   15  C8  UNL     1      30.061  12.828  -3.559  1.00  0.00     0.198 C 
HETATM   16  C9  UNL     1      29.706  12.221  -2.220  1.00  0.00     0.298 C 
ENDBRANCH  10  11
ENDBRANCH   9  10
ENDBRANCH   3   9
BRANCH   2  17
HETATM   17  O1  UNL     1      27.041   9.656   1.927  1.00  0.00    -0.344 OA
ATOM     18  H1  UNL     1      26.306  10.112   1.532  1.00  0.00     0.219 HD
ENDBRANCH   2  17
BRANCH   1  19
HETATM   19  N3  UNL     1      28.980   9.080   4.081  1.00  0.00    -0.292 N 
HETATM   20  N2  UNL     1      28.855   7.815   3.941  1.00  0.00    -0.278 N 
ATOM     21  H2  UNL     1      28.944   7.363   3.031  1.00  0.00     0.189 HD
ATOM     22  H3  UNL     1      28.886   9.501   5.006  1.00  0.00     0.187 HD
BRANCH  20  23
HETATM   23  C1  UNL     1      28.586   7.076   5.123  1.00  0.00     0.199 C 
HETATM   24  N1  UNL     1      27.875   5.865   5.061  1.00  0.00    -0.068 NA
HETATM   25  S1  UNL     1      29.095   7.607   6.597  1.00  0.00    -0.043 SA
ENDBRANCH  20  23
ENDBRANCH   1  19
TORSDOF 6
ENDMDL
MODEL 5
REMARK VINA RESULT: -7.370224488      3.402      7.653
REMARK  6 active torsions:
REMARK  status: ('A' for Active; 'I' for Inactive)
REMARK    1  A    between atoms: C1_2  and  N2_4 
REMARK    2  A    between atoms: N3_6  and  C2_8 
REMARK    3  A    between atoms: C3_9  and  O1_10 
REMARK    4  A    between atoms: N4_12  and  C4_13 
REMARK    5  A    between atoms: C4_13  and  C5_14 
REMARK    6  A    between atoms: C5_14  and  N5_15 
ROOT
HETATM    1  C2  UNL     1      29.813  10.450   2.681  1.00  0.00     0.135 A 
HETATM    2  C3  UNL     1      29.221   9.876   1.579  1.00  0.00     0.174 A 
HETATM    3  N4  UNL     1      28.991  10.831   0.671  1.00  0.00    -0.322 N 
HETATM    4  C10 UNL     1      29.399  12.023   1.109  1.00  0.00     0.075 A 
HETATM    5  C11 UNL     1      29.534  13.386   0.865  1.00  0.00     0.057 A 
HETATM    6  C12 UNL     1      30.125  13.894   1.991  1.00  0.00     0.145 A 
HETATM    7  O3  UNL     1      30.342  12.944   2.864  1.00  0.00    -0.318 OA
HETATM    8  C13 UNL     1      29.915  11.804   2.362  1.00  0.00     0.134 A 
ENDROOT
BRANCH   3   9
HETATM    9  C4  UNL     1      28.370  10.601  -0.615  1.00  0.00     0.161 C 
BRANCH   9  10
HETATM   10  C5  UNL     1      29.337  10.122  -1.661  1.00  0.00     0.292 C 
BRANCH  10  11
HETATM   11  N5  UNL     1      29.411  11.126  -2.713  1.00  0.00     0.094 N 
HETATM   12  C6  UNL     1      28.193  11.948  -2.720  1.00  0.00     0.298 C 
HETATM   13  C7  UNL     1      28.341  12.906  -3.888  1.00  0.00     0.198 C 
HETATM   14  O2  UNL     1      29.471  13.713  -3.742  1.00  0.00    -0.388 OA
HETATM   15  C8  UNL     1      30.634  12.950  -3.640  1.00  0.00     0.198 C 
HETATM   16  C9  UNL     1      30.528  12.049  -2.430  1.00  0.00     0.298 C 
ENDBRANCH  10  11
ENDBRANCH   9  10
ENDBRANCH   3   9
BRANCH   2  17
HETATM   17  O1  UNL     1      28.931   8.506   1.482  1.00  0.00    -0.344 OA
ATOM     18  H1  UNL     1      28.160   8.164   1.044  1.00  0.00     0.219 HD
ENDBRANCH   2  17
BRANCH   1  19
HETATM   19  N3  UNL     1      30.191   9.745   3.851  1.00  0.00    -0.292 N 
HETATM   20  N2  UNL     1      29.324   9.067   4.501  1.00  0.00    -0.278 N 
ATOM     21  H2  UNL     1      28.351   9.011   4.204  1.00  0.00     0.189 HD
ATOM     22  H3  UNL     1      31.158   9.780   4.175  1.00  0.00     0.187 HD
BRANCH  20  23
HETATM   23  C1  UNL     1      29.795   8.394   5.660  1.00  0.00     0.199 C 
HETATM   24  N1  UNL     1      29.182   8.607   6.907  1.00  0.00    -0.068 NA
HETATM   25  S1  UNL     1      31.065   7.347   5.585  1.00  0.00    -0.043 SA
ENDBRANCH  20  23
ENDBRANCH   1  19
TORSDOF 6
ENDMDL
