MODEL 1
REMARK VINA RESULT: -9.145268594      0.000      0.000
REMARK  12 active torsions:
REMARK  status: ('A' for Active; 'I' for Inactive)
REMARK    1  A    between atoms: C2_2  and  C3_3 
REMARK    2  A    between atoms: C3_3  and  C4_4 
REMARK    3  A    between atoms: C4_4  and  C5_5 
REMARK    4  A    between atoms: C6_6  and  C7_7 
REMARK    5  A    between atoms: C10_12  and  O3_13 
REMARK    6  A    between atoms: C17_20  and  O4_21 
REMARK    7  A    between atoms: O4_21  and  C18_22 
REMARK    8  A    between atoms: C19_24  and  C20_25 
REMARK    9  A    between atoms: C20_25  and  O6_26 
REMARK   10  A    between atoms: C21_28  and  O7_29 
REMARK   11  A    between atoms: C22_31  and  O8_32 
REMARK   12  A    between atoms: C23_34  and  O9_35 
ROOT
HETATM    1  C7  UNL     1      28.992  11.938  -0.751  1.00  0.00     0.140 C 
HETATM    2  C8  UNL     1      28.022  10.786  -0.849  1.00  0.00     0.271 C 
HETATM    3  O1  UNL     1      26.894  10.918  -1.382  1.00  0.00    -0.264 OA
HETATM    4  O2  UNL     1      28.444   9.596  -0.324  1.00  0.00    -0.317 OA
HETATM    5  C9  UNL     1      29.641   9.400   0.405  1.00  0.00     0.224 C 
HETATM    6  C10 UNL     1      30.022  10.567   1.231  1.00  0.00     0.133 C 
HETATM    7  C12 UNL     1      29.658  11.880   0.568  1.00  0.00    -0.022 C 
HETATM    8  C13 UNL     1      29.975  12.966   1.256  1.00  0.00    -0.077 C 
HETATM    9  C14 UNL     1      29.683  14.332   0.756  1.00  0.00     0.044 C 
HETATM   10  C15 UNL     1      30.658  12.840   2.583  1.00  0.00     0.037 C 
HETATM   11  C16 UNL     1      31.560  11.674   2.707  1.00  0.00     0.040 C 
HETATM   12  C17 UNL     1      31.505  10.704   1.512  1.00  0.00     0.166 C 
ENDROOT
BRANCH  12  13
HETATM   13  O4  UNL     1      32.040   9.542   1.939  1.00  0.00    -0.350 OA
BRANCH  13  14
HETATM   14  C18 UNL     1      31.748   9.075   3.174  1.00  0.00     0.292 C 
HETATM   15  O5  UNL     1      31.122   7.839   3.182  1.00  0.00    -0.348 OA
HETATM   16  C19 UNL     1      30.787   7.322   4.366  1.00  0.00     0.179 C 
HETATM   17  C21 UNL     1      31.391   7.810   5.608  1.00  0.00     0.180 C 
HETATM   18  C22 UNL     1      32.212   9.058   5.518  1.00  0.00     0.183 C 
HETATM   19  C23 UNL     1      32.902   8.957   4.142  1.00  0.00     0.204 C 
BRANCH  16  20
HETATM   20  C20 UNL     1      29.258   7.416   4.512  1.00  0.00     0.198 C 
BRANCH  20  21
HETATM   21  O6  UNL     1      28.882   8.283   5.505  1.00  0.00    -0.398 OA
ATOM     22  H6  UNL     1      29.600   8.496   6.090  1.00  0.00     0.209 HD
ENDBRANCH  20  21
ENDBRANCH  16  20
BRANCH  17  23
HETATM   23  O7  UNL     1      32.248   6.841   6.190  1.00  0.00    -0.390 OA
ATOM     24  H7  UNL     1      32.992   7.244   6.622  1.00  0.00     0.210 HD
ENDBRANCH  17  23
BRANCH  18  25
HETATM   25  O8  UNL     1      31.426  10.196   5.589  1.00  0.00    -0.390 OA
ATOM     26  H8  UNL     1      31.880  10.959   5.250  1.00  0.00     0.210 HD
ENDBRANCH  18  25
BRANCH  19  27
HETATM   27  O9  UNL     1      33.425   7.648   4.163  1.00  0.00    -0.388 OA
ATOM     28  H9  UNL     1      34.283   7.624   4.571  1.00  0.00     0.210 HD
ENDBRANCH  19  27
ENDBRANCH  13  14
ENDBRANCH  12  13
BRANCH   6  29
HETATM   29  O3  UNL     1      29.426  10.436   2.481  1.00  0.00    -0.376 OA
HETATM   30  C11 UNL     1      28.136   9.981   2.478  1.00  0.00     0.203 C 
ENDBRANCH   6  29
BRANCH   1  31
HETATM   31  C6  UNL     1      29.931  11.749  -1.885  1.00  0.00    -0.012 C 
HETATM   32  C5  UNL     1      29.893  12.378  -3.038  1.00  0.00    -0.029 C 
BRANCH  32  33
HETATM   33  C4  UNL     1      28.929  13.394  -3.471  1.00  0.00     0.027 C 
BRANCH  33  34
HETATM   34  C3  UNL     1      27.666  12.786  -4.058  1.00  0.00     0.003 C 
BRANCH  34  35
HETATM   35  C2  UNL     1      27.278  13.591  -5.296  1.00  0.00    -0.004 C 
HETATM   36  C1  UNL     1      26.393  12.822  -6.223  1.00  0.00     0.005 C 
ENDBRANCH  34  35
ENDBRANCH  33  34
ENDBRANCH  32  33
ENDBRANCH   1  31
TORSDOF 12
ENDMDL
MODEL 2
REMARK VINA RESULT: -9.044818818      3.173      5.327
REMARK  12 active torsions:
REMARK  status: ('A' for Active; 'I' for Inactive)
REMARK    1  A    between atoms: C2_2  and  C3_3 
REMARK    2  A    between atoms: C3_3  and  C4_4 
REMARK    3  A    between atoms: C4_4  and  C5_5 
REMARK    4  A    between atoms: C6_6  and  C7_7 
REMARK    5  A    between atoms: C10_12  and  O3_13 
REMARK    6  A    between atoms: C17_20  and  O4_21 
REMARK    7  A    between atoms: O4_21  and  C18_22 
REMARK    8  A    between atoms: C19_24  and  C20_25 
REMARK    9  A    between atoms: C20_25  and  O6_26 
REMARK   10  A    between atoms: C21_28  and  O7_29 
REMARK   11  A    between atoms: C22_31  and  O8_32 
REMARK   12  A    between atoms: C23_34  and  O9_35 
ROOT
HETATM    1  C7  UNL     1      31.616  15.577   0.242  1.00  0.00     0.140 C 
HETATM    2  C8  UNL     1      32.827  15.708   1.134  1.00  0.00     0.271 C 
HETATM    3  O1  UNL     1      33.777  16.476   0.846  1.00  0.00    -0.264 OA
HETATM    4  O2  UNL     1      32.827  14.945   2.267  1.00  0.00    -0.317 OA
HETATM    5  C9  UNL     1      31.861  13.963   2.595  1.00  0.00     0.224 C 
HETATM    6  C10 UNL     1      31.325  13.251   1.414  1.00  0.00     0.133 C 
HETATM    7  C12 UNL     1      31.215  14.154   0.203  1.00  0.00    -0.022 C 
HETATM    8  C13 UNL     1      30.739  13.577  -0.890  1.00  0.00    -0.077 C 
HETATM    9  C14 UNL     1      30.573  14.315  -2.166  1.00  0.00     0.044 C 
HETATM   10  C15 UNL     1      30.340  12.134  -0.861  1.00  0.00     0.037 C 
HETATM   11  C16 UNL     1      29.812  11.662   0.437  1.00  0.00     0.040 C 
HETATM   12  C17 UNL     1      29.926  12.692   1.576  1.00  0.00     0.166 C 
ENDROOT
BRANCH  12  13
HETATM   13  O4  UNL     1      29.794  12.004   2.729  1.00  0.00    -0.350 OA
BRANCH  13  14
HETATM   14  C18 UNL     1      30.120  10.692   2.774  1.00  0.00     0.292 C 
HETATM   15  O5  UNL     1      30.908  10.339   3.858  1.00  0.00    -0.348 OA
HETATM   16  C19 UNL     1      31.284   9.062   3.959  1.00  0.00     0.179 C 
HETATM   17  C21 UNL     1      30.592   8.003   3.221  1.00  0.00     0.180 C 
HETATM   18  C22 UNL     1      29.611   8.435   2.177  1.00  0.00     0.183 C 
HETATM   19  C23 UNL     1      28.972   9.710   2.764  1.00  0.00     0.204 C 
BRANCH  16  20
HETATM   20  C20 UNL     1      32.782   8.977   3.619  1.00  0.00     0.198 C 
BRANCH  20  21
HETATM   21  O6  UNL     1      33.003   8.795   2.279  1.00  0.00    -0.398 OA
ATOM     22  H6  UNL     1      32.382   9.273   1.742  1.00  0.00     0.209 HD
ENDBRANCH  20  21
ENDBRANCH  16  20
BRANCH  17  23
HETATM   23  O7  UNL     1      29.862   7.150   4.088  1.00  0.00    -0.390 OA
ATOM     24  H7  UNL     1      28.994   7.493   4.270  1.00  0.00     0.210 HD
ENDBRANCH  17  23
BRANCH  18  25
HETATM   25  O8  UNL     1      30.234   8.711   0.970  1.00  0.00    -0.390 OA
ATOM     26  H8  UNL     1      29.613   9.001   0.312  1.00  0.00     0.210 HD
ENDBRANCH  18  25
BRANCH  19  27
HETATM   27  O9  UNL     1      28.631   9.302   4.069  1.00  0.00    -0.388 OA
ATOM     28  H9  UNL     1      28.051   8.549   4.058  1.00  0.00     0.210 HD
ENDBRANCH  19  27
ENDBRANCH  13  14
ENDBRANCH  12  13
BRANCH   6  29
HETATM   29  O3  UNL     1      32.131  12.145   1.164  1.00  0.00    -0.376 OA
HETATM   30  C11 UNL     1      33.311  12.103   1.853  1.00  0.00     0.203 C 
ENDBRANCH   6  29
BRANCH   1  31
HETATM   31  C6  UNL     1      30.588  16.454   0.857  1.00  0.00    -0.012 C 
HETATM   32  C5  UNL     1      30.338  17.702   0.531  1.00  0.00    -0.029 C 
BRANCH  32  33
HETATM   33  C4  UNL     1      31.005  18.511  -0.494  1.00  0.00     0.027 C 
BRANCH  33  34
HETATM   34  C3  UNL     1      32.125  19.365   0.076  1.00  0.00     0.003 C 
BRANCH  34  35
HETATM   35  C2  UNL     1      33.239  19.449  -0.964  1.00  0.00    -0.004 C 
HETATM   36  C1  UNL     1      32.809  20.159  -2.207  1.00  0.00     0.005 C 
ENDBRANCH  34  35
ENDBRANCH  33  34
ENDBRANCH  32  33
ENDBRANCH   1  31
TORSDOF 12
ENDMDL
MODEL 3
REMARK VINA RESULT: -8.986299553      1.636      2.984
REMARK  12 active torsions:
REMARK  status: ('A' for Active; 'I' for Inactive)
REMARK    1  A    between atoms: C2_2  and  C3_3 
REMARK    2  A    between atoms: C3_3  and  C4_4 
REMARK    3  A    between atoms: C4_4  and  C5_5 
REMARK    4  A    between atoms: C6_6  and  C7_7 
REMARK    5  A    between atoms: C10_12  and  O3_13 
REMARK    6  A    between atoms: C17_20  and  O4_21 
REMARK    7  A    between atoms: O4_21  and  C18_22 
REMARK    8  A    between atoms: C19_24  and  C20_25 
REMARK    9  A    between atoms: C20_25  and  O6_26 
REMARK   10  A    between atoms: C21_28  and  O7_29 
REMARK   11  A    between atoms: C22_31  and  O8_32 
REMARK   12  A    between atoms: C23_34  and  O9_35 
ROOT
HETATM    1  C7  UNL     1      28.706  12.880  -1.722  1.00  0.00     0.140 C 
HETATM    2  C8  UNL     1      28.278  11.853  -2.742  1.00  0.00     0.271 C 
HETATM    3  O1  UNL     1      27.561  12.158  -3.725  1.00  0.00    -0.264 OA
HETATM    4  O2  UNL     1      28.717  10.575  -2.531  1.00  0.00    -0.317 OA
HETATM    5  C9  UNL     1      29.415  10.126  -1.385  1.00  0.00     0.224 C 
HETATM    6  C10 UNL     1      29.001  10.811  -0.141  1.00  0.00     0.133 C 
HETATM    7  C12 UNL     1      28.641  12.263  -0.380  1.00  0.00    -0.022 C 
HETATM    8  C13 UNL     1      28.262  12.935   0.697  1.00  0.00    -0.077 C 
HETATM    9  C14 UNL     1      27.869  14.364   0.640  1.00  0.00     0.044 C 
HETATM   10  C15 UNL     1      28.229  12.255   2.031  1.00  0.00     0.037 C 
HETATM   11  C16 UNL     1      29.250  11.201   2.216  1.00  0.00     0.040 C 
HETATM   12  C17 UNL     1      30.056  10.874   0.945  1.00  0.00     0.166 C 
ENDROOT
BRANCH  12  13
HETATM   13  O4  UNL     1      30.628   9.671   1.155  1.00  0.00    -0.350 OA
BRANCH  13  14
HETATM   14  C18 UNL     1      30.820   9.223   2.417  1.00  0.00     0.292 C 
HETATM   15  O5  UNL     1      30.389   7.924   2.632  1.00  0.00    -0.348 OA
HETATM   16  C19 UNL     1      30.530   7.421   3.860  1.00  0.00     0.179 C 
HETATM   17  C21 UNL     1      31.446   8.025   4.831  1.00  0.00     0.180 C 
HETATM   18  C22 UNL     1      32.031   9.355   4.473  1.00  0.00     0.183 C 
HETATM   19  C23 UNL     1      32.234   9.280   2.946  1.00  0.00     0.204 C 
BRANCH  16  20
HETATM   20  C20 UNL     1      29.137   7.342   4.506  1.00  0.00     0.198 C 
BRANCH  20  21
HETATM   21  O6  UNL     1      28.933   8.335   5.429  1.00  0.00    -0.398 OA
ATOM     22  H6  UNL     1      28.017   8.427   5.663  1.00  0.00     0.209 HD
ENDBRANCH  20  21
ENDBRANCH  16  20
BRANCH  17  23
HETATM   23  O7  UNL     1      32.560   7.187   5.093  1.00  0.00    -0.390 OA
ATOM     24  H7  UNL     1      32.542   6.846   5.980  1.00  0.00     0.210 HD
ENDBRANCH  17  23
BRANCH  18  25
HETATM   25  O8  UNL     1      31.178  10.396   4.802  1.00  0.00    -0.390 OA
ATOM     26  H8  UNL     1      31.173  11.072   4.134  1.00  0.00     0.210 HD
ENDBRANCH  18  25
BRANCH  19  27
HETATM   27  O9  UNL     1      32.892   8.043   2.790  1.00  0.00    -0.388 OA
ATOM     28  H9  UNL     1      32.355   7.421   2.314  1.00  0.00     0.210 HD
ENDBRANCH  19  27
ENDBRANCH  13  14
ENDBRANCH  12  13
BRANCH   6  29
HETATM   29  O3  UNL     1      27.944  10.102   0.421  1.00  0.00    -0.376 OA
HETATM   30  C11 UNL     1      27.685   8.881  -0.139  1.00  0.00     0.203 C 
ENDBRANCH   6  29
BRANCH   1  31
HETATM   31  C6  UNL     1      30.083  13.266  -2.118  1.00  0.00    -0.012 C 
HETATM   32  C5  UNL     1      30.652  14.432  -1.909  1.00  0.00    -0.029 C 
BRANCH  32  33
HETATM   33  C4  UNL     1      30.071  15.607  -1.251  1.00  0.00     0.027 C 
BRANCH  33  34
HETATM   34  C3  UNL     1      30.863  16.040  -0.028  1.00  0.00     0.003 C 
BRANCH  34  35
HETATM   35  C2  UNL     1      31.573  14.815   0.540  1.00  0.00    -0.004 C 
HETATM   36  C1  UNL     1      31.338  14.647   2.007  1.00  0.00     0.005 C 
ENDBRANCH  34  35
ENDBRANCH  33  34
ENDBRANCH  32  33
ENDBRANCH   1  31
TORSDOF 12
ENDMDL
MODEL 4
REMARK VINA RESULT: -8.808472464      1.656      3.329
REMARK  12 active torsions:
REMARK  status: ('A' for Active; 'I' for Inactive)
REMARK    1  A    between atoms: C2_2  and  C3_3 
REMARK    2  A    between atoms: C3_3  and  C4_4 
REMARK    3  A    between atoms: C4_4  and  C5_5 
REMARK    4  A    between atoms: C6_6  and  C7_7 
REMARK    5  A    between atoms: C10_12  and  O3_13 
REMARK    6  A    between atoms: C17_20  and  O4_21 
REMARK    7  A    between atoms: O4_21  and  C18_22 
REMARK    8  A    between atoms: C19_24  and  C20_25 
REMARK    9  A    between atoms: C20_25  and  O6_26 
REMARK   10  A    between atoms: C21_28  and  O7_29 
REMARK   11  A    between atoms: C22_31  and  O8_32 
REMARK   12  A    between atoms: C23_34  and  O9_35 
ROOT
HETATM    1  C7  UNL     1      29.589  12.778  -0.637  1.00  0.00     0.140 C 
HETATM    2  C8  UNL     1      30.631  13.707  -0.064  1.00  0.00     0.271 C 
HETATM    3  O1  UNL     1      31.239  14.538  -0.781  1.00  0.00    -0.264 OA
HETATM    4  O2  UNL     1      30.871  13.591   1.276  1.00  0.00    -0.317 OA
HETATM    5  C9  UNL     1      30.325  12.598   2.124  1.00  0.00     0.224 C 
HETATM    6  C10 UNL     1      30.136  11.293   1.452  1.00  0.00     0.133 C 
HETATM    7  C12 UNL     1      29.745  11.451  -0.003  1.00  0.00    -0.022 C 
HETATM    8  C13 UNL     1      29.558  10.318  -0.663  1.00  0.00    -0.077 C 
HETATM    9  C14 UNL     1      29.179  10.291  -2.097  1.00  0.00     0.044 C 
HETATM   10  C15 UNL     1      29.721   9.006   0.040  1.00  0.00     0.037 C 
HETATM   11  C16 UNL     1      29.357   9.021   1.474  1.00  0.00     0.040 C 
HETATM   12  C17 UNL     1      29.038  10.422   2.028  1.00  0.00     0.166 C 
ENDROOT
BRANCH  12  13
HETATM   13  O4  UNL     1      29.127  10.330   3.371  1.00  0.00    -0.350 OA
BRANCH  13  14
HETATM   14  C18 UNL     1      29.848   9.334   3.935  1.00  0.00     0.292 C 
HETATM   15  O5  UNL     1      30.603   9.727   5.029  1.00  0.00    -0.348 OA
HETATM   16  C19 UNL     1      31.355   8.800   5.627  1.00  0.00     0.179 C 
HETATM   17  C21 UNL     1      31.108   7.371   5.422  1.00  0.00     0.180 C 
HETATM   18  C22 UNL     1      30.143   6.998   4.341  1.00  0.00     0.183 C 
HETATM   19  C23 UNL     1      29.079   8.114   4.384  1.00  0.00     0.204 C 
BRANCH  16  20
HETATM   20  C20 UNL     1      32.826   9.083   5.279  1.00  0.00     0.198 C 
BRANCH  20  21
HETATM   21  O6  UNL     1      33.245   8.384   4.177  1.00  0.00    -0.398 OA
ATOM     22  H6  UNL     1      33.777   7.632   4.408  1.00  0.00     0.209 HD
ENDBRANCH  20  21
ENDBRANCH  16  20
BRANCH  17  23
HETATM   23  O7  UNL     1      30.610   6.751   6.597  1.00  0.00    -0.390 OA
ATOM     24  H7  UNL     1      31.244   6.155   6.976  1.00  0.00     0.210 HD
ENDBRANCH  17  23
BRANCH  18  25
HETATM   25  O8  UNL     1      30.755   6.953   3.100  1.00  0.00    -0.390 OA
ATOM     26  H8  UNL     1      30.260   6.426   2.482  1.00  0.00     0.210 HD
ENDBRANCH  18  25
BRANCH  19  27
HETATM   27  O9  UNL     1      28.765   8.179   5.756  1.00  0.00    -0.388 OA
ATOM     28  H9  UNL     1      29.505   7.922   6.294  1.00  0.00     0.210 HD
ENDBRANCH  19  27
ENDBRANCH  13  14
ENDBRANCH  12  13
BRANCH   6  29
HETATM   29  O3  UNL     1      31.303  10.550   1.597  1.00  0.00    -0.376 OA
HETATM   30  C11 UNL     1      32.356  11.205   2.172  1.00  0.00     0.203 C 
ENDBRANCH   6  29
BRANCH   1  31
HETATM   31  C6  UNL     1      28.287  13.420  -0.328  1.00  0.00    -0.012 C 
HETATM   32  C5  UNL     1      27.155  13.226  -0.967  1.00  0.00    -0.029 C 
BRANCH  32  33
HETATM   33  C4  UNL     1      26.915  12.349  -2.118  1.00  0.00     0.027 C 
BRANCH  33  34
HETATM   34  C3  UNL     1      26.452  13.114  -3.346  1.00  0.00     0.003 C 
BRANCH  34  35
HETATM   35  C2  UNL     1      27.425  12.826  -4.485  1.00  0.00    -0.004 C 
HETATM   36  C1  UNL     1      26.803  13.016  -5.831  1.00  0.00     0.005 C 
ENDBRANCH  34  35
ENDBRANCH  33  34
ENDBRANCH  32  33
ENDBRANCH   1  31
TORSDOF 12
ENDMDL
MODEL 5
REMARK VINA RESULT: -8.790852137      2.159      4.364
REMARK  12 active torsions:
REMARK  status: ('A' for Active; 'I' for Inactive)
REMARK    1  A    between atoms: C2_2  and  C3_3 
REMARK    2  A    between atoms: C3_3  and  C4_4 
REMARK    3  A    between atoms: C4_4  and  C5_5 
REMARK    4  A    between atoms: C6_6  and  C7_7 
REMARK    5  A    between atoms: C10_12  and  O3_13 
REMARK    6  A    between atoms: C17_20  and  O4_21 
REMARK    7  A    between atoms: O4_21  and  C18_22 
REMARK    8  A    between atoms: C19_24  and  C20_25 
REMARK    9  A    between atoms: C20_25  and  O6_26 
REMARK   10  A    between atoms: C21_28  and  O7_29 
REMARK   11  A    between atoms: C22_31  and  O8_32 
REMARK   12  A    between atoms: C23_34  and  O9_35 
ROOT
HETATM    1  C7  UNL     1      30.634  12.917   0.304  1.00  0.00     0.140 C 
HETATM    2  C8  UNL     1      31.842  13.243   1.149  1.00  0.00     0.271 C 
HETATM    3  O1  UNL     1      32.792  13.931   0.702  1.00  0.00    -0.264 OA
HETATM    4  O2  UNL     1      31.839  12.747   2.422  1.00  0.00    -0.317 OA
HETATM    5  C9  UNL     1      30.873  11.860   2.955  1.00  0.00     0.224 C 
HETATM    6  C10 UNL     1      30.342  10.905   1.958  1.00  0.00     0.133 C 
HETATM    7  C12 UNL     1      30.236  11.519   0.578  1.00  0.00    -0.022 C 
HETATM    8  C13 UNL     1      29.764  10.715  -0.363  1.00  0.00    -0.077 C 
HETATM    9  C14 UNL     1      29.601  11.154  -1.771  1.00  0.00     0.044 C 
HETATM   10  C15 UNL     1      29.367   9.312  -0.019  1.00  0.00     0.037 C 
HETATM   11  C16 UNL     1      28.835   9.136   1.350  1.00  0.00     0.040 C 
HETATM   12  C17 UNL     1      28.943  10.392   2.234  1.00  0.00     0.166 C 
ENDROOT
BRANCH  12  13
HETATM   13  O4  UNL     1      28.809   9.974   3.510  1.00  0.00    -0.350 OA
BRANCH  13  14
HETATM   14  C18 UNL     1      29.682   9.078   4.024  1.00  0.00     0.292 C 
HETATM   15  O5  UNL     1      30.278   9.479   5.208  1.00  0.00    -0.348 OA
HETATM   16  C19 UNL     1      31.166   8.653   5.765  1.00  0.00     0.179 C 
HETATM   17  C21 UNL     1      31.224   7.236   5.396  1.00  0.00     0.180 C 
HETATM   18  C22 UNL     1      30.417   6.811   4.210  1.00  0.00     0.183 C 
HETATM   19  C23 UNL     1      29.149   7.688   4.283  1.00  0.00     0.204 C 
BRANCH  16  20
HETATM   20  C20 UNL     1      32.568   9.254   5.566  1.00  0.00     0.198 C 
BRANCH  20  21
HETATM   21  O6  UNL     1      33.394   8.425   4.852  1.00  0.00    -0.398 OA
ATOM     22  H6  UNL     1      34.311   8.645   4.965  1.00  0.00     0.209 HD
ENDBRANCH  20  21
ENDBRANCH  16  20
BRANCH  17  23
HETATM   23  O7  UNL     1      30.795   6.400   6.458  1.00  0.00    -0.390 OA
ATOM     24  H7  UNL     1      31.341   6.501   7.229  1.00  0.00     0.210 HD
ENDBRANCH  17  23
BRANCH  18  25
HETATM   25  O8  UNL     1      31.096   7.030   3.023  1.00  0.00    -0.390 OA
ATOM     26  H8  UNL     1      30.623   6.679   2.276  1.00  0.00     0.210 HD
ENDBRANCH  18  25
BRANCH  19  27
HETATM   27  O9  UNL     1      28.751   7.530   5.626  1.00  0.00    -0.388 OA
ATOM     28  H9  UNL     1      28.130   8.201   5.885  1.00  0.00     0.210 HD
ENDBRANCH  19  27
ENDBRANCH  13  14
ENDBRANCH  12  13
BRANCH   6  29
HETATM   29  O3  UNL     1      31.150   9.772   1.959  1.00  0.00    -0.376 OA
HETATM   30  C11 UNL     1      32.496  10.004   2.046  1.00  0.00     0.203 C 
ENDBRANCH   6  29
BRANCH   1  31
HETATM   31  C6  UNL     1      29.603  13.905   0.708  1.00  0.00    -0.012 C 
HETATM   32  C5  UNL     1      29.440  15.106   0.202  1.00  0.00    -0.029 C 
BRANCH  32  33
HETATM   33  C4  UNL     1      30.225  15.746  -0.860  1.00  0.00     0.027 C 
BRANCH  33  34
HETATM   34  C3  UNL     1      30.597  17.180  -0.524  1.00  0.00     0.003 C 
BRANCH  34  35
HETATM   35  C2  UNL     1      31.403  17.175   0.772  1.00  0.00    -0.004 C 
HETATM   36  C1  UNL     1      32.791  17.698   0.584  1.00  0.00     0.005 C 
ENDBRANCH  34  35
ENDBRANCH  33  34
ENDBRANCH  32  33
ENDBRANCH   1  31
TORSDOF 12
ENDMDL
