MODEL 1
REMARK VINA RESULT: -7.498491746      0.000      0.000
REMARK  13 active torsions:
REMARK  status: ('A' for Active; 'I' for Inactive)
REMARK    1  A    between atoms: C1_2  and  C2_3 
REMARK       I    between atoms: C1_2  and  N1_9 
REMARK    2  A    between atoms: C2_3  and  S1_4 
REMARK    3  A    between atoms: S1_4  and  C3_5 
REMARK    4  A    between atoms: C3_5  and  C4_6 
REMARK    5  A    between atoms: C4_6  and  S2_7 
REMARK    6  A    between atoms: N1_9  and  C5_11 
REMARK    7  A    between atoms: C10_16  and  S4_17 
REMARK    8  A    between atoms: S4_17  and  C11_18 
REMARK    9  A    between atoms: C12_20  and  C13_21 
REMARK   10  A    between atoms: C13_21  and  O3_22 
REMARK   11  A    between atoms: C14_24  and  O4_25 
REMARK   12  A    between atoms: C15_27  and  O5_28 
REMARK   13  A    between atoms: C16_30  and  O6_31 
ROOT
HETATM    1  C5  UNL     1      29.778  11.433  -0.271  1.00  0.00     0.098 C 
HETATM    2  C6  UNL     1      29.421  10.834  -1.618  1.00  0.00     0.026 C 
HETATM    3  C7  UNL     1      28.033  10.290  -1.624  1.00  0.00     0.002 C 
HETATM    4  C8  UNL     1      27.915   9.162  -0.637  1.00  0.00     0.001 C 
HETATM    5  C9  UNL     1      29.067   9.182   0.379  1.00  0.00     0.017 C 
HETATM    6  C10 UNL     1      29.213  10.599   0.866  1.00  0.00     0.072 C 
ENDROOT
BRANCH   6   7
HETATM    7  S4  UNL     1      30.099  10.876   2.318  1.00  0.00    -0.128 SA
BRANCH   7   8
HETATM    8  C11 UNL     1      30.653   9.629   3.377  1.00  0.00     0.215 C 
HETATM    9  O2  UNL     1      30.397   9.848   4.756  1.00  0.00    -0.363 OA
HETATM   10  C12 UNL     1      30.393   8.612   5.365  1.00  0.00     0.178 C 
HETATM   11  C14 UNL     1      31.716   7.909   5.315  1.00  0.00     0.180 C 
HETATM   12  C15 UNL     1      32.173   7.786   3.853  1.00  0.00     0.181 C 
HETATM   13  C16 UNL     1      32.094   9.209   3.305  1.00  0.00     0.188 C 
BRANCH  10  14
HETATM   14  C13 UNL     1      29.864   8.646   6.767  1.00  0.00     0.198 C 
BRANCH  14  15
HETATM   15  O3  UNL     1      28.453   8.633   6.752  1.00  0.00    -0.398 OA
ATOM     16  H3  UNL     1      28.139   7.817   6.382  1.00  0.00     0.209 HD
ENDBRANCH  14  15
ENDBRANCH  10  14
BRANCH  11  17
HETATM   17  O4  UNL     1      32.686   8.492   6.106  1.00  0.00    -0.390 OA
ATOM     18  H4  UNL     1      33.220   9.131   5.649  1.00  0.00     0.210 HD
ENDBRANCH  11  17
BRANCH  12  19
HETATM   19  O5  UNL     1      31.273   6.937   3.231  1.00  0.00    -0.390 OA
ATOM     20  H5  UNL     1      30.601   7.490   2.851  1.00  0.00     0.210 HD
ENDBRANCH  12  19
BRANCH  13  21
HETATM   21  O6  UNL     1      32.901   9.933   4.216  1.00  0.00    -0.389 OA
ATOM     22  H6  UNL     1      32.380  10.471   4.800  1.00  0.00     0.210 HD
ENDBRANCH  13  21
ENDBRANCH   7   8
ENDBRANCH   6   7
BRANCH   1  23
HETATM   23  N1  UNL     1      29.348  12.796  -0.235  1.00  0.00    -0.355 N 
HETATM   24  C1  UNL     1      30.173  13.857  -0.616  1.00  0.00     0.227 C 
HETATM   25  O1  UNL     1      31.339  13.605  -1.006  1.00  0.00    -0.273 OA
ATOM     26  H1  UNL     1      28.400  13.002   0.081  1.00  0.00     0.162 HD
BRANCH  24  27
HETATM   27  C2  UNL     1      29.758  15.279  -0.591  1.00  0.00     0.176 C 
BRANCH  27  28
HETATM   28  S1  UNL     1      30.229  16.068   0.956  1.00  0.00    -0.159 SA
BRANCH  28  29
HETATM   29  C3  UNL     1      31.828  16.899   0.830  1.00  0.00     0.085 C 
BRANCH  29  30
HETATM   30  C4  UNL     1      32.965  15.996   1.251  1.00  0.00     0.097 C 
BRANCH  30  31
HETATM   31  S2  UNL     1      32.365  14.652   2.297  1.00  0.00    -0.085 SA
HETATM   32  S3  UNL     1      33.470  12.880   1.917  1.00  0.00    -0.013 SA
ENDBRANCH  30  31
ENDBRANCH  29  30
ENDBRANCH  28  29
ENDBRANCH  27  28
ENDBRANCH  24  27
ENDBRANCH   1  23
TORSDOF 13
ENDMDL
MODEL 2
REMARK VINA RESULT: -7.469008910      2.589      6.503
REMARK  13 active torsions:
REMARK  status: ('A' for Active; 'I' for Inactive)
REMARK    1  A    between atoms: C1_2  and  C2_3 
REMARK       I    between atoms: C1_2  and  N1_9 
REMARK    2  A    between atoms: C2_3  and  S1_4 
REMARK    3  A    between atoms: S1_4  and  C3_5 
REMARK    4  A    between atoms: C3_5  and  C4_6 
REMARK    5  A    between atoms: C4_6  and  S2_7 
REMARK    6  A    between atoms: N1_9  and  C5_11 
REMARK    7  A    between atoms: C10_16  and  S4_17 
REMARK    8  A    between atoms: S4_17  and  C11_18 
REMARK    9  A    between atoms: C12_20  and  C13_21 
REMARK   10  A    between atoms: C13_21  and  O3_22 
REMARK   11  A    between atoms: C14_24  and  O4_25 
REMARK   12  A    between atoms: C15_27  and  O5_28 
REMARK   13  A    between atoms: C16_30  and  O6_31 
ROOT
HETATM    1  C5  UNL     1      29.728  11.012   0.848  1.00  0.00     0.098 C 
HETATM    2  C6  UNL     1      28.632  10.123   1.406  1.00  0.00     0.026 C 
HETATM    3  C7  UNL     1      28.339   8.980   0.493  1.00  0.00     0.002 C 
HETATM    4  C8  UNL     1      27.815   9.489  -0.820  1.00  0.00     0.001 C 
HETATM    5  C9  UNL     1      28.143  10.977  -1.018  1.00  0.00     0.017 C 
HETATM    6  C10 UNL     1      29.591  11.170  -0.657  1.00  0.00     0.072 C 
ENDROOT
BRANCH   6   7
HETATM    7  S4  UNL     1      30.381  12.607  -1.188  1.00  0.00    -0.128 SA
BRANCH   7   8
HETATM    8  C11 UNL     1      31.154  13.741  -0.139  1.00  0.00     0.215 C 
HETATM    9  O2  UNL     1      32.330  13.269   0.500  1.00  0.00    -0.363 OA
HETATM   10  C12 UNL     1      33.079  14.377   0.833  1.00  0.00     0.178 C 
HETATM   11  C14 UNL     1      32.416  15.275   1.835  1.00  0.00     0.180 C 
HETATM   12  C15 UNL     1      31.036  15.696   1.308  1.00  0.00     0.181 C 
HETATM   13  C16 UNL     1      30.344  14.384   0.952  1.00  0.00     0.188 C 
BRANCH  10  14
HETATM   14  C13 UNL     1      34.474  14.040   1.264  1.00  0.00     0.198 C 
BRANCH  14  15
HETATM   15  O3  UNL     1      34.442  13.110   2.323  1.00  0.00    -0.398 OA
ATOM     16  H3  UNL     1      35.325  12.839   2.546  1.00  0.00     0.209 HD
ENDBRANCH  14  15
ENDBRANCH  10  14
BRANCH  11  17
HETATM   17  O4  UNL     1      32.336  14.730   3.101  1.00  0.00    -0.390 OA
ATOM     18  H4  UNL     1      31.483  14.829   3.507  1.00  0.00     0.210 HD
ENDBRANCH  11  17
BRANCH  12  19
HETATM   19  O5  UNL     1      31.267  16.485   0.193  1.00  0.00    -0.390 OA
ATOM     20  H5  UNL     1      30.788  17.294   0.332  1.00  0.00     0.210 HD
ENDBRANCH  12  19
BRANCH  13  21
HETATM   21  O6  UNL     1      30.421  13.657   2.164  1.00  0.00    -0.389 OA
ATOM     22  H6  UNL     1      31.319  13.462   2.404  1.00  0.00     0.210 HD
ENDBRANCH  13  21
ENDBRANCH   7   8
ENDBRANCH   6   7
BRANCH   1  23
HETATM   23  N1  UNL     1      31.000  10.494   1.245  1.00  0.00    -0.355 N 
HETATM   24  C1  UNL     1      31.505  10.646   2.539  1.00  0.00     0.227 C 
HETATM   25  O1  UNL     1      30.815  11.262   3.388  1.00  0.00    -0.273 OA
ATOM     26  H1  UNL     1      31.561   9.992   0.557  1.00  0.00     0.162 HD
BRANCH  24  27
HETATM   27  C2  UNL     1      32.818  10.121   2.982  1.00  0.00     0.176 C 
BRANCH  27  28
HETATM   28  S1  UNL     1      32.622   8.657   4.009  1.00  0.00    -0.159 SA
BRANCH  28  29
HETATM   29  C3  UNL     1      32.299   9.082   5.735  1.00  0.00     0.085 C 
BRANCH  29  30
HETATM   30  C4  UNL     1      30.825   9.011   6.064  1.00  0.00     0.097 C 
BRANCH  30  31
HETATM   31  S2  UNL     1      29.955   7.946   4.894  1.00  0.00    -0.085 SA
HETATM   32  S3  UNL     1      28.740   6.553   5.939  1.00  0.00    -0.013 SA
ENDBRANCH  30  31
ENDBRANCH  29  30
ENDBRANCH  28  29
ENDBRANCH  27  28
ENDBRANCH  24  27
ENDBRANCH   1  23
TORSDOF 13
ENDMDL
MODEL 3
REMARK VINA RESULT: -7.466715300      2.939      7.083
REMARK  13 active torsions:
REMARK  status: ('A' for Active; 'I' for Inactive)
REMARK    1  A    between atoms: C1_2  and  C2_3 
REMARK       I    between atoms: C1_2  and  N1_9 
REMARK    2  A    between atoms: C2_3  and  S1_4 
REMARK    3  A    between atoms: S1_4  and  C3_5 
REMARK    4  A    between atoms: C3_5  and  C4_6 
REMARK    5  A    between atoms: C4_6  and  S2_7 
REMARK    6  A    between atoms: N1_9  and  C5_11 
REMARK    7  A    between atoms: C10_16  and  S4_17 
REMARK    8  A    between atoms: S4_17  and  C11_18 
REMARK    9  A    between atoms: C12_20  and  C13_21 
REMARK   10  A    between atoms: C13_21  and  O3_22 
REMARK   11  A    between atoms: C14_24  and  O4_25 
REMARK   12  A    between atoms: C15_27  and  O5_28 
REMARK   13  A    between atoms: C16_30  and  O6_31 
ROOT
HETATM    1  C5  UNL     1      31.494  13.235   1.387  1.00  0.00     0.098 C 
HETATM    2  C6  UNL     1      32.930  13.564   1.024  1.00  0.00     0.026 C 
HETATM    3  C7  UNL     1      33.408  14.785   1.735  1.00  0.00     0.002 C 
HETATM    4  C8  UNL     1      32.601  15.979   1.310  1.00  0.00     0.001 C 
HETATM    5  C9  UNL     1      31.281  15.559   0.645  1.00  0.00     0.017 C 
HETATM    6  C10 UNL     1      30.659  14.498   1.512  1.00  0.00     0.072 C 
ENDROOT
BRANCH   6   7
HETATM    7  S4  UNL     1      28.987  14.142   1.294  1.00  0.00    -0.128 SA
BRANCH   7   8
HETATM    8  C11 UNL     1      28.380  12.909   0.246  1.00  0.00     0.215 C 
HETATM    9  O2  UNL     1      28.975  11.631   0.408  1.00  0.00    -0.363 OA
HETATM   10  C12 UNL     1      28.070  10.704  -0.064  1.00  0.00     0.178 C 
HETATM   11  C14 UNL     1      27.790  10.827  -1.532  1.00  0.00     0.180 C 
HETATM   12  C15 UNL     1      27.310  12.253  -1.842  1.00  0.00     0.181 C 
HETATM   13  C16 UNL     1      28.380  13.158  -1.237  1.00  0.00     0.188 C 
BRANCH  10  14
HETATM   14  C13 UNL     1      28.429   9.293   0.291  1.00  0.00     0.198 C 
BRANCH  14  15
HETATM   15  O3  UNL     1      29.780   9.043  -0.029  1.00  0.00    -0.398 OA
ATOM     16  H3  UNL     1      30.102   8.304   0.473  1.00  0.00     0.209 HD
ENDBRANCH  14  15
ENDBRANCH  10  14
BRANCH  11  17
HETATM   17  O4  UNL     1      28.852  10.459  -2.333  1.00  0.00    -0.390 OA
ATOM     18  H4  UNL     1      29.229  11.180  -2.824  1.00  0.00     0.210 HD
ENDBRANCH  11  17
BRANCH  12  19
HETATM   19  O5  UNL     1      26.085  12.401  -1.212  1.00  0.00    -0.390 OA
ATOM     20  H5  UNL     1      26.073  13.278  -0.850  1.00  0.00     0.210 HD
ENDBRANCH  12  19
BRANCH  13  21
HETATM   21  O6  UNL     1      29.565  12.686  -1.851  1.00  0.00    -0.389 OA
ATOM     22  H6  UNL     1      29.626  11.738  -1.820  1.00  0.00     0.210 HD
ENDBRANCH  13  21
ENDBRANCH   7   8
ENDBRANCH   6   7
BRANCH   1  23
HETATM   23  N1  UNL     1      31.481  12.433   2.570  1.00  0.00    -0.355 N 
HETATM   24  C1  UNL     1      31.563  11.039   2.536  1.00  0.00     0.227 C 
HETATM   25  O1  UNL     1      31.653  10.466   1.423  1.00  0.00    -0.273 OA
ATOM     26  H1  UNL     1      31.409  12.897   3.475  1.00  0.00     0.162 HD
BRANCH  24  27
HETATM   27  C2  UNL     1      31.552  10.179   3.744  1.00  0.00     0.176 C 
BRANCH  27  28
HETATM   28  S1  UNL     1      30.976   8.519   3.357  1.00  0.00    -0.159 SA
BRANCH  28  29
HETATM   29  C3  UNL     1      29.245   8.282   3.816  1.00  0.00     0.085 C 
BRANCH  29  30
HETATM   30  C4  UNL     1      29.101   7.354   5.002  1.00  0.00     0.097 C 
BRANCH  30  31
HETATM   31  S2  UNL     1      29.520   8.204   6.539  1.00  0.00    -0.085 SA
HETATM   32  S3  UNL     1      27.872   8.151   7.876  1.00  0.00    -0.013 SA
ENDBRANCH  30  31
ENDBRANCH  29  30
ENDBRANCH  28  29
ENDBRANCH  27  28
ENDBRANCH  24  27
ENDBRANCH   1  23
TORSDOF 13
ENDMDL
MODEL 4
REMARK VINA RESULT: -7.400650255      1.553      1.816
REMARK  13 active torsions:
REMARK  status: ('A' for Active; 'I' for Inactive)
REMARK    1  A    between atoms: C1_2  and  C2_3 
REMARK       I    between atoms: C1_2  and  N1_9 
REMARK    2  A    between atoms: C2_3  and  S1_4 
REMARK    3  A    between atoms: S1_4  and  C3_5 
REMARK    4  A    between atoms: C3_5  and  C4_6 
REMARK    5  A    between atoms: C4_6  and  S2_7 
REMARK    6  A    between atoms: N1_9  and  C5_11 
REMARK    7  A    between atoms: C10_16  and  S4_17 
REMARK    8  A    between atoms: S4_17  and  C11_18 
REMARK    9  A    between atoms: C12_20  and  C13_21 
REMARK   10  A    between atoms: C13_21  and  O3_22 
REMARK   11  A    between atoms: C14_24  and  O4_25 
REMARK   12  A    between atoms: C15_27  and  O5_28 
REMARK   13  A    between atoms: C16_30  and  O6_31 
ROOT
HETATM    1  C5  UNL     1      29.103  11.174   0.470  1.00  0.00     0.098 C 
HETATM    2  C6  UNL     1      29.834  11.181  -0.859  1.00  0.00     0.026 C 
HETATM    3  C7  UNL     1      28.976  10.651  -1.958  1.00  0.00     0.002 C 
HETATM    4  C8  UNL     1      28.631   9.212  -1.696  1.00  0.00     0.001 C 
HETATM    5  C9  UNL     1      28.860   8.838  -0.224  1.00  0.00     0.017 C 
HETATM    6  C10 UNL     1      28.248   9.926   0.617  1.00  0.00     0.072 C 
ENDROOT
BRANCH   6   7
HETATM    7  S4  UNL     1      27.940   9.597   2.281  1.00  0.00    -0.128 SA
BRANCH   7   8
HETATM    8  C11 UNL     1      29.094   8.916   3.371  1.00  0.00     0.215 C 
HETATM    9  O2  UNL     1      28.710   8.919   4.738  1.00  0.00    -0.363 OA
HETATM   10  C12 UNL     1      29.426   7.918   5.359  1.00  0.00     0.178 C 
HETATM   11  C14 UNL     1      30.907   8.149   5.363  1.00  0.00     0.180 C 
HETATM   12  C15 UNL     1      31.397   8.345   3.920  1.00  0.00     0.181 C 
HETATM   13  C16 UNL     1      30.501   9.444   3.356  1.00  0.00     0.188 C 
BRANCH  10  14
HETATM   14  C13 UNL     1      28.934   7.609   6.740  1.00  0.00     0.198 C 
BRANCH  14  15
HETATM   15  O3  UNL     1      28.551   8.798   7.395  1.00  0.00    -0.398 OA
ATOM     16  H3  UNL     1      28.384   8.625   8.314  1.00  0.00     0.209 HD
ENDBRANCH  14  15
ENDBRANCH  10  14
BRANCH  11  17
HETATM   17  O4  UNL     1      31.306   9.186   6.183  1.00  0.00    -0.390 OA
ATOM     18  H4  UNL     1      31.881   8.915   6.890  1.00  0.00     0.210 HD
ENDBRANCH  11  17
BRANCH  12  19
HETATM   19  O5  UNL     1      31.208   7.134   3.274  1.00  0.00    -0.390 OA
ATOM     20  H5  UNL     1      31.949   7.023   2.690  1.00  0.00     0.210 HD
ENDBRANCH  12  19
BRANCH  13  21
HETATM   21  O6  UNL     1      30.680  10.495   4.288  1.00  0.00    -0.389 OA
ATOM     22  H6  UNL     1      31.254  10.241   5.001  1.00  0.00     0.210 HD
ENDBRANCH  13  21
ENDBRANCH   7   8
ENDBRANCH   6   7
BRANCH   1  23
HETATM   23  N1  UNL     1      28.355  12.385   0.601  1.00  0.00    -0.355 N 
HETATM   24  C1  UNL     1      28.884  13.537   1.189  1.00  0.00     0.227 C 
HETATM   25  O1  UNL     1      30.062  13.508   1.619  1.00  0.00    -0.273 OA
ATOM     26  H1  UNL     1      27.397  12.410   0.250  1.00  0.00     0.162 HD
BRANCH  24  27
HETATM   27  C2  UNL     1      28.135  14.807   1.339  1.00  0.00     0.176 C 
BRANCH  27  28
HETATM   28  S1  UNL     1      29.248  16.185   1.659  1.00  0.00    -0.159 SA
BRANCH  28  29
HETATM   29  C3  UNL     1      30.292  16.554   0.231  1.00  0.00     0.085 C 
BRANCH  29  30
HETATM   30  C4  UNL     1      31.037  17.859   0.403  1.00  0.00     0.097 C 
BRANCH  30  31
HETATM   31  S2  UNL     1      32.807  17.567   0.610  1.00  0.00    -0.085 SA
HETATM   32  S3  UNL     1      33.140  15.624   1.398  1.00  0.00    -0.013 SA
ENDBRANCH  30  31
ENDBRANCH  29  30
ENDBRANCH  28  29
ENDBRANCH  27  28
ENDBRANCH  24  27
ENDBRANCH   1  23
TORSDOF 13
ENDMDL
MODEL 5
REMARK VINA RESULT: -7.376616116      2.936      4.490
REMARK  13 active torsions:
REMARK  status: ('A' for Active; 'I' for Inactive)
REMARK    1  A    between atoms: C1_2  and  C2_3 
REMARK       I    between atoms: C1_2  and  N1_9 
REMARK    2  A    between atoms: C2_3  and  S1_4 
REMARK    3  A    between atoms: S1_4  and  C3_5 
REMARK    4  A    between atoms: C3_5  and  C4_6 
REMARK    5  A    between atoms: C4_6  and  S2_7 
REMARK    6  A    between atoms: N1_9  and  C5_11 
REMARK    7  A    between atoms: C10_16  and  S4_17 
REMARK    8  A    between atoms: S4_17  and  C11_18 
REMARK    9  A    between atoms: C12_20  and  C13_21 
REMARK   10  A    between atoms: C13_21  and  O3_22 
REMARK   11  A    between atoms: C14_24  and  O4_25 
REMARK   12  A    between atoms: C15_27  and  O5_28 
REMARK   13  A    between atoms: C16_30  and  O6_31 
ROOT
HETATM    1  C5  UNL     1      30.073  13.541  -0.952  1.00  0.00     0.098 C 
HETATM    2  C6  UNL     1      30.493  13.498  -2.409  1.00  0.00     0.026 C 
HETATM    3  C7  UNL     1      29.311  13.446  -3.317  1.00  0.00     0.002 C 
HETATM    4  C8  UNL     1      28.536  12.180  -3.085  1.00  0.00     0.001 C 
HETATM    5  C9  UNL     1      28.893  11.543  -1.733  1.00  0.00     0.017 C 
HETATM    6  C10 UNL     1      28.878  12.638  -0.701  1.00  0.00     0.072 C 
ENDROOT
BRANCH   6   7
HETATM    7  S4  UNL     1      28.795  12.192   0.962  1.00  0.00    -0.128 SA
BRANCH   7   8
HETATM    8  C11 UNL     1      30.067  11.404   1.825  1.00  0.00     0.215 C 
HETATM    9  O2  UNL     1      31.373  11.636   1.323  1.00  0.00    -0.363 OA
HETATM   10  C12 UNL     1      32.249  11.418   2.364  1.00  0.00     0.178 C 
HETATM   11  C14 UNL     1      32.260  10.002   2.858  1.00  0.00     0.180 C 
HETATM   12  C15 UNL     1      30.836   9.590   3.258  1.00  0.00     0.181 C 
HETATM   13  C16 UNL     1      29.983   9.917   2.035  1.00  0.00     0.188 C 
BRANCH  10  14
HETATM   14  C13 UNL     1      33.642  11.890   2.075  1.00  0.00     0.198 C 
BRANCH  14  15
HETATM   15  O3  UNL     1      33.780  13.244   2.445  1.00  0.00    -0.398 OA
ATOM     16  H3  UNL     1      34.368  13.687   1.844  1.00  0.00     0.209 HD
ENDBRANCH  14  15
ENDBRANCH  10  14
BRANCH  11  17
HETATM   17  O4  UNL     1      32.821   9.108   1.968  1.00  0.00    -0.390 OA
ATOM     18  H4  UNL     1      32.928   8.233   2.321  1.00  0.00     0.210 HD
ENDBRANCH  11  17
BRANCH  12  19
HETATM   19  O5  UNL     1      30.496  10.367   4.354  1.00  0.00    -0.390 OA
ATOM     20  H5  UNL     1      29.610  10.122   4.592  1.00  0.00     0.210 HD
ENDBRANCH  12  19
BRANCH  13  21
HETATM   21  O6  UNL     1      30.639   9.202   1.004  1.00  0.00    -0.389 OA
ATOM     22  H6  UNL     1      31.097   8.439   1.338  1.00  0.00     0.210 HD
ENDBRANCH  13  21
ENDBRANCH   7   8
ENDBRANCH   6   7
BRANCH   1  23
HETATM   23  N1  UNL     1      29.841  14.899  -0.570  1.00  0.00    -0.355 N 
HETATM   24  C1  UNL     1      30.626  15.559   0.380  1.00  0.00     0.227 C 
HETATM   25  O1  UNL     1      31.572  14.936   0.919  1.00  0.00    -0.273 OA
ATOM     26  H1  UNL     1      29.073  15.407  -1.009  1.00  0.00     0.162 HD
BRANCH  24  27
HETATM   27  C2  UNL     1      30.412  16.965   0.797  1.00  0.00     0.176 C 
BRANCH  27  28
HETATM   28  S1  UNL     1      31.841  17.985   0.405  1.00  0.00    -0.159 SA
BRANCH  28  29
HETATM   29  C3  UNL     1      31.416  19.345  -0.706  1.00  0.00     0.085 C 
BRANCH  29  30
HETATM   30  C4  UNL     1      32.129  20.623  -0.327  1.00  0.00     0.097 C 
BRANCH  30  31
HETATM   31  S2  UNL     1      31.438  22.034  -1.218  1.00  0.00    -0.085 SA
HETATM   32  S3  UNL     1      30.992  23.607   0.136  1.00  0.00    -0.013 SA
ENDBRANCH  30  31
ENDBRANCH  29  30
ENDBRANCH  28  29
ENDBRANCH  27  28
ENDBRANCH  24  27
ENDBRANCH   1  23
TORSDOF 13
ENDMDL
