MODEL 1
REMARK VINA RESULT: -7.465522501      0.000      0.000
REMARK  13 active torsions:
REMARK  status: ('A' for Active; 'I' for Inactive)
REMARK    1  A    between atoms: C2_2  and  O1_3 
REMARK    2  A    between atoms: O1_3  and  C3_4 
REMARK    3  A    between atoms: C3_4  and  C4_5 
REMARK    4  A    between atoms: C4_5  and  O2_6 
REMARK    5  A    between atoms: O2_6  and  C5_7 
REMARK    6  A    between atoms: C7_9  and  C8_10 
REMARK    7  A    between atoms: C8_10  and  O3_12 
REMARK    8  A    between atoms: C10_15  and  O5_16 
REMARK    9  A    between atoms: O5_16  and  C11_17 
REMARK   10  A    between atoms: C15_22  and  S1_23 
REMARK   11  A    between atoms: C16_25  and  O7_26 
REMARK   12  A    between atoms: C17_28  and  O8_29 
REMARK   13  A    between atoms: C18_31  and  O9_32 
ROOT
HETATM    1  C5  UNL     1      29.990  14.343   1.519  1.00  0.00     0.157 C 
HETATM    2  C6  UNL     1      30.614  14.782   0.211  1.00  0.00     0.069 C 
HETATM    3  C7  UNL     1      31.494  13.696  -0.371  1.00  0.00     0.155 C 
HETATM    4  O4  UNL     1      31.427  12.542   0.443  1.00  0.00    -0.351 OA
HETATM    5  C10 UNL     1      31.996  12.847   1.662  1.00  0.00     0.294 C 
HETATM    6  C18 UNL     1      31.021  13.709   2.428  1.00  0.00     0.202 C 
ENDROOT
BRANCH   5   7
HETATM    7  O5  UNL     1      32.305  11.757   2.438  1.00  0.00    -0.326 OA
BRANCH   7   8
HETATM    8  C11 UNL     1      31.646  10.599   2.059  1.00  0.00     0.294 C 
HETATM    9  O6  UNL     1      32.473   9.499   2.247  1.00  0.00    -0.358 OA
HETATM   10  C12 UNL     1      32.872   9.346   3.567  1.00  0.00     0.176 C 
HETATM   11  C13 UNL     1      32.049   8.207   4.139  1.00  0.00     0.023 C 
HETATM   12  C14 UNL     1      32.728   7.520   5.287  1.00  0.00     0.013 C 
HETATM   13  C15 UNL     1      30.708   8.815   4.544  1.00  0.00     0.096 C 
HETATM   14  C16 UNL     1      29.986   9.144   3.259  1.00  0.00     0.166 C 
HETATM   15  C17 UNL     1      30.315  10.483   2.707  1.00  0.00     0.203 C 
BRANCH  13  16
HETATM   16  S1  UNL     1      29.795   7.502   5.417  1.00  0.00    -0.077 SA
HETATM   17  S2  UNL     1      28.762   8.229   7.099  1.00  0.00    -0.013 SA
ENDBRANCH  13  16
BRANCH  14  18
HETATM   18  O7  UNL     1      28.611   9.109   3.553  1.00  0.00    -0.392 OA
ATOM     19  H7  UNL     1      28.196   9.743   2.979  1.00  0.00     0.210 HD
ENDBRANCH  14  18
BRANCH  15  20
HETATM   20  O8  UNL     1      29.289  10.827   1.803  1.00  0.00    -0.388 OA
ATOM     21  H8  UNL     1      28.448  10.855   2.243  1.00  0.00     0.210 HD
ENDBRANCH  15  20
ENDBRANCH   7   8
ENDBRANCH   5   7
BRANCH   6  22
HETATM   22  O9  UNL     1      31.724  14.645   3.174  1.00  0.00    -0.388 OA
ATOM     23  H9  UNL     1      32.187  14.256   3.906  1.00  0.00     0.210 HD
ENDBRANCH   6  22
BRANCH   3  24
HETATM   24  C8  UNL     1      31.031  13.272  -1.742  1.00  0.00     0.143 C 
HETATM   25  C9  UNL     1      30.136  14.343  -2.302  1.00  0.00     0.042 C 
BRANCH  24  26
HETATM   26  O3  UNL     1      30.436  12.020  -1.737  1.00  0.00    -0.393 OA
ATOM     27  H3  UNL     1      29.888  11.875  -2.499  1.00  0.00     0.210 HD
ENDBRANCH  24  26
ENDBRANCH   3  24
BRANCH   1  28
HETATM   28  O2  UNL     1      28.916  13.486   1.305  1.00  0.00    -0.381 OA
BRANCH  28  29
HETATM   29  C4  UNL     1      27.996  14.101   0.496  1.00  0.00     0.194 C 
BRANCH  29  30
HETATM   30  C3  UNL     1      27.356  13.145  -0.489  1.00  0.00     0.193 C 
BRANCH  30  31
HETATM   31  O1  UNL     1      27.984  11.903  -0.516  1.00  0.00    -0.389 OA
BRANCH  31  32
HETATM   32  C2  UNL     1      27.332  11.003  -1.322  1.00  0.00     0.163 C 
HETATM   33  C1  UNL     1      27.997   9.633  -1.164  1.00  0.00     0.033 C 
ENDBRANCH  31  32
ENDBRANCH  30  31
ENDBRANCH  29  30
ENDBRANCH  28  29
ENDBRANCH   1  28
TORSDOF 13
ENDMDL
MODEL 2
REMARK VINA RESULT: -7.338800379      1.284      1.433
REMARK  13 active torsions:
REMARK  status: ('A' for Active; 'I' for Inactive)
REMARK    1  A    between atoms: C2_2  and  O1_3 
REMARK    2  A    between atoms: O1_3  and  C3_4 
REMARK    3  A    between atoms: C3_4  and  C4_5 
REMARK    4  A    between atoms: C4_5  and  O2_6 
REMARK    5  A    between atoms: O2_6  and  C5_7 
REMARK    6  A    between atoms: C7_9  and  C8_10 
REMARK    7  A    between atoms: C8_10  and  O3_12 
REMARK    8  A    between atoms: C10_15  and  O5_16 
REMARK    9  A    between atoms: O5_16  and  C11_17 
REMARK   10  A    between atoms: C15_22  and  S1_23 
REMARK   11  A    between atoms: C16_25  and  O7_26 
REMARK   12  A    between atoms: C17_28  and  O8_29 
REMARK   13  A    between atoms: C18_31  and  O9_32 
ROOT
HETATM    1  C5  UNL     1      29.225  14.106   0.586  1.00  0.00     0.157 C 
HETATM    2  C6  UNL     1      29.964  14.521  -0.669  1.00  0.00     0.069 C 
HETATM    3  C7  UNL     1      31.057  13.533  -1.016  1.00  0.00     0.155 C 
HETATM    4  O4  UNL     1      31.031  12.453  -0.103  1.00  0.00    -0.351 OA
HETATM    5  C10 UNL     1      31.373  12.940   1.141  1.00  0.00     0.294 C 
HETATM    6  C18 UNL     1      30.191  13.709   1.682  1.00  0.00     0.202 C 
ENDROOT
BRANCH   5   7
HETATM    7  O5  UNL     1      31.713  11.977   2.059  1.00  0.00    -0.326 OA
BRANCH   7   8
HETATM    8  C11 UNL     1      31.223  10.718   1.752  1.00  0.00     0.294 C 
HETATM    9  O6  UNL     1      32.218   9.765   1.930  1.00  0.00    -0.358 OA
HETATM   10  C12 UNL     1      32.698   9.726   3.231  1.00  0.00     0.176 C 
HETATM   11  C13 UNL     1      32.090   8.498   3.881  1.00  0.00     0.023 C 
HETATM   12  C14 UNL     1      32.920   7.968   5.012  1.00  0.00     0.013 C 
HETATM   13  C15 UNL     1      30.691   8.910   4.338  1.00  0.00     0.096 C 
HETATM   14  C16 UNL     1      29.867   9.074   3.084  1.00  0.00     0.166 C 
HETATM   15  C17 UNL     1      29.958  10.426   2.473  1.00  0.00     0.203 C 
BRANCH  13  16
HETATM   16  S1  UNL     1      30.035   7.507   5.298  1.00  0.00    -0.077 SA
HETATM   17  S2  UNL     1      29.000   8.132   7.019  1.00  0.00    -0.013 SA
ENDBRANCH  13  16
BRANCH  14  18
HETATM   18  O7  UNL     1      28.529   8.842   3.451  1.00  0.00    -0.392 OA
ATOM     19  H7  UNL     1      28.529   8.060   3.991  1.00  0.00     0.210 HD
ENDBRANCH  14  18
BRANCH  15  20
HETATM   20  O8  UNL     1      28.849  10.573   1.614  1.00  0.00    -0.388 OA
ATOM     21  H8  UNL     1      28.973  11.310   1.029  1.00  0.00     0.210 HD
ENDBRANCH  15  20
ENDBRANCH   7   8
ENDBRANCH   5   7
BRANCH   6  22
HETATM   22  O9  UNL     1      30.647  14.799   2.412  1.00  0.00    -0.388 OA
ATOM     23  H9  UNL     1      31.277  14.553   3.079  1.00  0.00     0.210 HD
ENDBRANCH   6  22
BRANCH   3  24
HETATM   24  C8  UNL     1      30.856  12.931  -2.384  1.00  0.00     0.143 C 
HETATM   25  C9  UNL     1      30.239  13.968  -3.282  1.00  0.00     0.042 C 
BRANCH  24  26
HETATM   26  O3  UNL     1      30.130  11.751  -2.344  1.00  0.00    -0.393 OA
ATOM     27  H3  UNL     1      29.260  11.847  -2.712  1.00  0.00     0.210 HD
ENDBRANCH  24  26
ENDBRANCH   3  24
BRANCH   1  28
HETATM   28  O2  UNL     1      28.318  13.084   0.324  1.00  0.00    -0.381 OA
BRANCH  28  29
HETATM   29  C4  UNL     1      27.493  13.459  -0.704  1.00  0.00     0.194 C 
BRANCH  29  30
HETATM   30  C3  UNL     1      26.936  12.274  -1.465  1.00  0.00     0.193 C 
BRANCH  30  31
HETATM   31  O1  UNL     1      27.380  12.229  -2.784  1.00  0.00    -0.389 OA
BRANCH  31  32
HETATM   32  C2  UNL     1      26.603  12.989  -3.625  1.00  0.00     0.163 C 
HETATM   33  C1  UNL     1      27.171  12.885  -5.042  1.00  0.00     0.033 C 
ENDBRANCH  31  32
ENDBRANCH  30  31
ENDBRANCH  29  30
ENDBRANCH  28  29
ENDBRANCH   1  28
TORSDOF 13
ENDMDL
MODEL 3
REMARK VINA RESULT: -7.029860913      1.889      3.823
REMARK  13 active torsions:
REMARK  status: ('A' for Active; 'I' for Inactive)
REMARK    1  A    between atoms: C2_2  and  O1_3 
REMARK    2  A    between atoms: O1_3  and  C3_4 
REMARK    3  A    between atoms: C3_4  and  C4_5 
REMARK    4  A    between atoms: C4_5  and  O2_6 
REMARK    5  A    between atoms: O2_6  and  C5_7 
REMARK    6  A    between atoms: C7_9  and  C8_10 
REMARK    7  A    between atoms: C8_10  and  O3_12 
REMARK    8  A    between atoms: C10_15  and  O5_16 
REMARK    9  A    between atoms: O5_16  and  C11_17 
REMARK   10  A    between atoms: C15_22  and  S1_23 
REMARK   11  A    between atoms: C16_25  and  O7_26 
REMARK   12  A    between atoms: C17_28  and  O8_29 
REMARK   13  A    between atoms: C18_31  and  O9_32 
ROOT
HETATM    1  C5  UNL     1      29.398  13.739   0.069  1.00  0.00     0.157 C 
HETATM    2  C6  UNL     1      28.872  13.615  -1.346  1.00  0.00     0.069 C 
HETATM    3  C7  UNL     1      28.394  12.208  -1.634  1.00  0.00     0.155 C 
HETATM    4  O4  UNL     1      28.508  11.417  -0.467  1.00  0.00    -0.351 OA
HETATM    5  C10 UNL     1      29.849  11.285  -0.173  1.00  0.00     0.294 C 
HETATM    6  C18 UNL     1      30.330  12.595   0.406  1.00  0.00     0.202 C 
ENDROOT
BRANCH   5   7
HETATM    7  O5  UNL     1      30.142  10.288   0.725  1.00  0.00    -0.326 OA
BRANCH   7   8
HETATM    8  C11 UNL     1      30.323  10.742   2.022  1.00  0.00     0.294 C 
HETATM    9  O6  UNL     1      29.245  10.366   2.812  1.00  0.00    -0.358 OA
HETATM   10  C12 UNL     1      29.072   8.990   2.865  1.00  0.00     0.176 C 
HETATM   11  C13 UNL     1      29.589   8.542   4.219  1.00  0.00     0.023 C 
HETATM   12  C14 UNL     1      28.958   7.264   4.687  1.00  0.00     0.013 C 
HETATM   13  C15 UNL     1      31.105   8.414   4.072  1.00  0.00     0.096 C 
HETATM   14  C16 UNL     1      31.639   9.821   3.954  1.00  0.00     0.166 C 
HETATM   15  C17 UNL     1      31.648  10.349   2.565  1.00  0.00     0.203 C 
BRANCH  13  16
HETATM   16  S1  UNL     1      31.708   7.680   5.628  1.00  0.00    -0.077 SA
HETATM   17  S2  UNL     1      33.430   6.507   5.343  1.00  0.00    -0.013 SA
ENDBRANCH  13  16
BRANCH  14  18
HETATM   18  O7  UNL     1      32.965   9.786   4.425  1.00  0.00    -0.392 OA
ATOM     19  H7  UNL     1      33.061  10.525   5.015  1.00  0.00     0.210 HD
ENDBRANCH  14  18
BRANCH  15  20
HETATM   20  O8  UNL     1      32.542  11.439   2.538  1.00  0.00    -0.388 OA
ATOM     21  H8  UNL     1      32.368  12.035   3.256  1.00  0.00     0.210 HD
ENDBRANCH  15  20
ENDBRANCH   7   8
ENDBRANCH   5   7
BRANCH   6  22
HETATM   22  O9  UNL     1      31.634  12.828  -0.011  1.00  0.00    -0.388 OA
ATOM     23  H9  UNL     1      31.683  13.112  -0.916  1.00  0.00     0.210 HD
ENDBRANCH   6  22
BRANCH   3  24
HETATM   24  C8  UNL     1      26.936  12.177  -2.021  1.00  0.00     0.143 C 
HETATM   25  C9  UNL     1      26.771  12.894  -3.333  1.00  0.00     0.042 C 
BRANCH  24  26
HETATM   26  O3  UNL     1      26.112  12.678  -1.026  1.00  0.00    -0.393 OA
ATOM     27  H3  UNL     1      26.119  12.139  -0.244  1.00  0.00     0.210 HD
ENDBRANCH  24  26
ENDBRANCH   3  24
BRANCH   1  28
HETATM   28  O2  UNL     1      28.359  13.825   0.989  1.00  0.00    -0.381 OA
BRANCH  28  29
HETATM   29  C4  UNL     1      28.208  15.128   1.387  1.00  0.00     0.194 C 
BRANCH  29  30
HETATM   30  C3  UNL     1      29.525  15.782   1.748  1.00  0.00     0.193 C 
BRANCH  30  31
HETATM   31  O1  UNL     1      29.634  17.078   1.252  1.00  0.00    -0.389 OA
BRANCH  31  32
HETATM   32  C2  UNL     1      30.540  17.172   0.225  1.00  0.00     0.163 C 
HETATM   33  C1  UNL     1      31.948  17.258   0.821  1.00  0.00     0.033 C 
ENDBRANCH  31  32
ENDBRANCH  30  31
ENDBRANCH  29  30
ENDBRANCH  28  29
ENDBRANCH   1  28
TORSDOF 13
ENDMDL
MODEL 4
REMARK VINA RESULT: -6.971018564      3.480      6.653
REMARK  13 active torsions:
REMARK  status: ('A' for Active; 'I' for Inactive)
REMARK    1  A    between atoms: C2_2  and  O1_3 
REMARK    2  A    between atoms: O1_3  and  C3_4 
REMARK    3  A    between atoms: C3_4  and  C4_5 
REMARK    4  A    between atoms: C4_5  and  O2_6 
REMARK    5  A    between atoms: O2_6  and  C5_7 
REMARK    6  A    between atoms: C7_9  and  C8_10 
REMARK    7  A    between atoms: C8_10  and  O3_12 
REMARK    8  A    between atoms: C10_15  and  O5_16 
REMARK    9  A    between atoms: O5_16  and  C11_17 
REMARK   10  A    between atoms: C15_22  and  S1_23 
REMARK   11  A    between atoms: C16_25  and  O7_26 
REMARK   12  A    between atoms: C17_28  and  O8_29 
REMARK   13  A    between atoms: C18_31  and  O9_32 
ROOT
HETATM    1  C5  UNL     1      29.665   8.702   2.640  1.00  0.00     0.157 C 
HETATM    2  C6  UNL     1      30.544   7.879   3.559  1.00  0.00     0.069 C 
HETATM    3  C7  UNL     1      31.352   8.762   4.484  1.00  0.00     0.155 C 
HETATM    4  O4  UNL     1      31.002  10.116   4.278  1.00  0.00    -0.351 OA
HETATM    5  C10 UNL     1      31.404  10.470   3.007  1.00  0.00     0.294 C 
HETATM    6  C18 UNL     1      30.443   9.846   2.023  1.00  0.00     0.202 C 
ENDROOT
BRANCH   5   7
HETATM    7  O5  UNL     1      31.436  11.823   2.773  1.00  0.00    -0.326 OA
BRANCH   7   8
HETATM    8  C11 UNL     1      32.331  12.195   1.782  1.00  0.00     0.294 C 
HETATM    9  O6  UNL     1      31.653  12.439   0.596  1.00  0.00    -0.358 OA
HETATM   10  C12 UNL     1      30.708  13.448   0.714  1.00  0.00     0.176 C 
HETATM   11  C13 UNL     1      31.303  14.677   0.052  1.00  0.00     0.023 C 
HETATM   12  C14 UNL     1      30.258  15.632  -0.445  1.00  0.00     0.013 C 
HETATM   13  C15 UNL     1      32.219  15.318   1.095  1.00  0.00     0.096 C 
HETATM   14  C16 UNL     1      33.408  14.399   1.236  1.00  0.00     0.166 C 
HETATM   15  C17 UNL     1      33.213  13.306   2.224  1.00  0.00     0.203 C 
BRANCH  13  16
HETATM   16  S1  UNL     1      32.774  16.900   0.381  1.00  0.00    -0.077 SA
HETATM   17  S2  UNL     1      31.347  18.427   0.618  1.00  0.00    -0.013 SA
ENDBRANCH  13  16
BRANCH  14  18
HETATM   18  O7  UNL     1      34.483  15.199   1.665  1.00  0.00    -0.392 OA
ATOM     19  H7  UNL     1      34.831  14.787   2.448  1.00  0.00     0.210 HD
ENDBRANCH  14  18
BRANCH  15  20
HETATM   20  O8  UNL     1      34.491  12.821   2.569  1.00  0.00    -0.388 OA
ATOM     21  H8  UNL     1      34.929  12.455   1.810  1.00  0.00     0.210 HD
ENDBRANCH  15  20
ENDBRANCH   7   8
ENDBRANCH   5   7
BRANCH   6  22
HETATM   22  O9  UNL     1      31.137   9.465   0.882  1.00  0.00    -0.388 OA
ATOM     23  H9  UNL     1      30.560   9.218   0.169  1.00  0.00     0.210 HD
ENDBRANCH   6  22
BRANCH   3  24
HETATM   24  C8  UNL     1      31.061   8.470   5.936  1.00  0.00     0.143 C 
HETATM   25  C9  UNL     1      31.067   6.979   6.138  1.00  0.00     0.042 C 
BRANCH  24  26
HETATM   26  O3  UNL     1      29.891   9.069   6.373  1.00  0.00    -0.393 OA
ATOM     27  H3  UNL     1      29.551   8.668   7.164  1.00  0.00     0.210 HD
ENDBRANCH  24  26
ENDBRANCH   3  24
BRANCH   1  28
HETATM   28  O2  UNL     1      28.535   9.166   3.303  1.00  0.00    -0.381 OA
BRANCH  28  29
HETATM   29  C4  UNL     1      27.689   9.761   2.404  1.00  0.00     0.194 C 
BRANCH  29  30
HETATM   30  C3  UNL     1      27.566   8.977   1.114  1.00  0.00     0.193 C 
BRANCH  30  31
HETATM   31  O1  UNL     1      27.514   9.798  -0.009  1.00  0.00    -0.389 OA
BRANCH  31  32
HETATM   32  C2  UNL     1      28.149   9.243  -1.094  1.00  0.00     0.163 C 
HETATM   33  C1  UNL     1      29.010  10.320  -1.758  1.00  0.00     0.033 C 
ENDBRANCH  31  32
ENDBRANCH  30  31
ENDBRANCH  29  30
ENDBRANCH  28  29
ENDBRANCH   1  28
TORSDOF 13
ENDMDL
MODEL 5
REMARK VINA RESULT: -6.916569828      2.168      4.508
REMARK  13 active torsions:
REMARK  status: ('A' for Active; 'I' for Inactive)
REMARK    1  A    between atoms: C2_2  and  O1_3 
REMARK    2  A    between atoms: O1_3  and  C3_4 
REMARK    3  A    between atoms: C3_4  and  C4_5 
REMARK    4  A    between atoms: C4_5  and  O2_6 
REMARK    5  A    between atoms: O2_6  and  C5_7 
REMARK    6  A    between atoms: C7_9  and  C8_10 
REMARK    7  A    between atoms: C8_10  and  O3_12 
REMARK    8  A    between atoms: C10_15  and  O5_16 
REMARK    9  A    between atoms: O5_16  and  C11_17 
REMARK   10  A    between atoms: C15_22  and  S1_23 
REMARK   11  A    between atoms: C16_25  and  O7_26 
REMARK   12  A    between atoms: C17_28  and  O8_29 
REMARK   13  A    between atoms: C18_31  and  O9_32 
ROOT
HETATM    1  C5  UNL     1      29.335  11.384  -2.305  1.00  0.00     0.157 C 
HETATM    2  C6  UNL     1      28.150  12.307  -2.108  1.00  0.00     0.069 C 
HETATM    3  C7  UNL     1      27.840  12.498  -0.639  1.00  0.00     0.155 C 
HETATM    4  O4  UNL     1      28.799  11.813   0.144  1.00  0.00    -0.351 OA
HETATM    5  C10 UNL     1      28.642  10.461  -0.080  1.00  0.00     0.294 C 
HETATM    6  C18 UNL     1      29.210  10.146  -1.444  1.00  0.00     0.202 C 
ENDROOT
BRANCH   5   7
HETATM    7  O5  UNL     1      29.263   9.653   0.839  1.00  0.00    -0.326 OA
BRANCH   7   8
HETATM    8  C11 UNL     1      29.614  10.307   2.009  1.00  0.00     0.294 C 
HETATM    9  O6  UNL     1      28.737   9.960   3.028  1.00  0.00    -0.358 OA
HETATM   10  C12 UNL     1      28.732   8.597   3.291  1.00  0.00     0.176 C 
HETATM   11  C13 UNL     1      29.522   8.400   4.571  1.00  0.00     0.023 C 
HETATM   12  C14 UNL     1      29.127   7.156   5.311  1.00  0.00     0.013 C 
HETATM   13  C15 UNL     1      30.994   8.384   4.162  1.00  0.00     0.096 C 
HETATM   14  C16 UNL     1      31.339   9.799   3.764  1.00  0.00     0.166 C 
HETATM   15  C17 UNL     1      31.048  10.115   2.342  1.00  0.00     0.203 C 
BRANCH  13  16
HETATM   16  S1  UNL     1      31.934   7.943   5.659  1.00  0.00    -0.077 SA
HETATM   17  S2  UNL     1      33.487   6.582   5.255  1.00  0.00    -0.013 SA
ENDBRANCH  13  16
BRANCH  14  18
HETATM   18  O7  UNL     1      32.721   9.949   3.980  1.00  0.00    -0.392 OA
ATOM     19  H7  UNL     1      33.071   9.075   4.107  1.00  0.00     0.210 HD
ENDBRANCH  14  18
BRANCH  15  20
HETATM   20  O8  UNL     1      31.796  11.263   2.007  1.00  0.00    -0.388 OA
ATOM     21  H8  UNL     1      32.399  11.076   1.297  1.00  0.00     0.210 HD
ENDBRANCH  15  20
ENDBRANCH   7   8
ENDBRANCH   5   7
BRANCH   6  22
HETATM   22  O9  UNL     1      28.444   9.154  -2.042  1.00  0.00    -0.388 OA
ATOM     23  H9  UNL     1      28.115   8.520  -1.417  1.00  0.00     0.210 HD
ENDBRANCH   6  22
BRANCH   3  24
HETATM   24  C8  UNL     1      27.925  13.948  -0.231  1.00  0.00     0.143 C 
HETATM   25  C9  UNL     1      29.239  14.506  -0.702  1.00  0.00     0.042 C 
BRANCH  24  26
HETATM   26  O3  UNL     1      27.717  14.131   1.127  1.00  0.00    -0.393 OA
ATOM     27  H3  UNL     1      27.802  15.039   1.389  1.00  0.00     0.210 HD
ENDBRANCH  24  26
ENDBRANCH   3  24
BRANCH   1  28
HETATM   28  O2  UNL     1      30.535  12.044  -2.064  1.00  0.00    -0.381 OA
BRANCH  28  29
HETATM   29  C4  UNL     1      31.027  12.543  -3.241  1.00  0.00     0.194 C 
BRANCH  29  30
HETATM   30  C3  UNL     1      31.459  11.453  -4.200  1.00  0.00     0.193 C 
BRANCH  30  31
HETATM   31  O1  UNL     1      32.717  11.689  -4.748  1.00  0.00    -0.389 OA
BRANCH  31  32
HETATM   32  C2  UNL     1      32.999  13.029  -4.856  1.00  0.00     0.163 C 
HETATM   33  C1  UNL     1      34.134  13.210  -5.867  1.00  0.00     0.033 C 
ENDBRANCH  31  32
ENDBRANCH  30  31
ENDBRANCH  29  30
ENDBRANCH  28  29
ENDBRANCH   1  28
TORSDOF 13
ENDMDL
