MODEL 1
REMARK VINA RESULT: -10.066566155      0.000      0.000
REMARK  14 active torsions:
REMARK  status: ('A' for Active; 'I' for Inactive)
REMARK    1  A    between atoms: C2_2  and  N1_3 
REMARK    2  A    between atoms: C2_2  and  C3_7 
REMARK    3  A    between atoms: C3_7  and  O1_11 
REMARK    4  A    between atoms: O1_11  and  C4_12 
REMARK    5  A    between atoms: C4_12  and  N3_13 
REMARK    6  A    between atoms: C10_23  and  N5_24 
REMARK    7  A    between atoms: N5_24  and  C11_25 
REMARK    8  A    between atoms: N5_24  and  C22_45 
REMARK    9  A    between atoms: C11_25  and  C12_26 
REMARK   10  A    between atoms: C12_26  and  O4_27 
REMARK   11  A    between atoms: C12_26  and  C13_29 
REMARK   12  A    between atoms: C13_29  and  S1_30 
REMARK   13  A    between atoms: S1_30  and  C14_33 
REMARK   14  A    between atoms: C22_45  and  C23_46 
ROOT
HETATM    1  N5  UNL     1      94.558  18.482   5.571  1.00  0.00    -0.335 N 
ENDROOT
BRANCH   1   2
HETATM    2  C10 UNL     1      93.579  17.400   5.264  1.00  0.00     0.040 A 
HETATM    3  C9  UNL     1      92.235  17.612   5.337  1.00  0.00     0.031 A 
HETATM    4  C8  UNL     1      91.340  16.564   5.075  1.00  0.00     0.022 A 
HETATM    5  C7  UNL     1      91.868  15.320   4.742  1.00  0.00     0.059 A 
HETATM    6  C6  UNL     1      90.999  14.267   4.492  1.00  0.00     0.261 A 
HETATM    7  C27 UNL     1      93.206  15.100   4.667  1.00  0.00     0.063 A 
HETATM    8  N4  UNL     1      91.552  13.087   4.188  1.00  0.00    -0.274 N 
HETATM    9  O3  UNL     1      89.762  14.458   4.558  1.00  0.00    -0.267 OA
HETATM   10  C5  UNL     1      92.908  12.915   4.126  1.00  0.00     0.335 A 
ATOM     11  H4  UNL     1      90.944  12.291   3.997  1.00  0.00     0.173 HD
HETATM   12  N3  UNL     1      93.778  13.895   4.356  1.00  0.00    -0.253 N 
HETATM   13  O2  UNL     1      93.263  11.752   3.834  1.00  0.00    -0.246 OA
HETATM   14  C26 UNL     1      94.048  16.152   4.930  1.00  0.00     0.061 A 
BRANCH  12  15
HETATM   15  C4  UNL     1      95.174  13.771   4.305  1.00  0.00     0.247 C 
BRANCH  15  16
HETATM   16  O1  UNL     1      95.719  13.123   5.408  1.00  0.00    -0.291 OA
BRANCH  16  17
HETATM   17  C3  UNL     1      96.586  13.606   6.350  1.00  0.00     0.149 C 
HETATM   18  N2  UNL     1      97.351  14.574   5.857  1.00  0.00    -0.381 N 
ATOM     19  H22 UNL     1      97.998  14.934   6.558  1.00  0.00     0.158 HD
ATOM     20  H21 UNL     1      97.246  14.866   4.885  1.00  0.00     0.158 HD
BRANCH  17  21
HETATM   21  C2  UNL     1      96.738  13.184   7.753  1.00  0.00     0.253 C 
HETATM   22  C1  UNL     1      98.065  13.563   8.359  1.00  0.00     0.049 C 
BRANCH  21  23
HETATM   23  N1  UNL     1      95.709  13.887   8.532  1.00  0.00    -0.068 N 
ATOM     24  H13 UNL     1      94.964  13.274   8.863  1.00  0.00     0.275 HD
ATOM     25  H12 UNL     1      96.035  14.195   9.447  1.00  0.00     0.275 HD
ATOM     26  H11 UNL     1      95.373  14.650   7.944  1.00  0.00     0.275 HD
ENDBRANCH  21  23
ENDBRANCH  17  21
ENDBRANCH  16  17
ENDBRANCH  15  16
ENDBRANCH  12  15
ENDBRANCH   1   2
BRANCH   1  27
HETATM   27  C11 UNL     1      94.027  19.671   6.113  1.00  0.00     0.102 C 
BRANCH  27  28
HETATM   28  C12 UNL     1      93.411  19.739   7.444  1.00  0.00     0.171 C 
BRANCH  28  29
HETATM   29  O4  UNL     1      94.084  18.850   8.293  1.00  0.00    -0.389 OA
ATOM     30  H4  UNL     1      95.016  18.919   8.126  1.00  0.00     0.210 HD
ENDBRANCH  28  29
BRANCH  28  31
HETATM   31  C13 UNL     1      93.766  21.157   8.000  1.00  0.00     0.179 C 
BRANCH  31  32
HETATM   32  S1  UNL     1      92.415  21.820   8.896  1.00  0.00     0.170 S 
HETATM   33  O5  UNL     1      91.615  20.608   9.415  1.00  0.00    -0.226 OA
HETATM   34  O6  UNL     1      92.839  22.510  10.188  1.00  0.00    -0.226 OA
BRANCH  32  35
HETATM   35  C14 UNL     1      91.339  22.855   7.972  1.00  0.00     0.234 C 
HETATM   36  C15 UNL     1      92.068  23.852   7.147  1.00  0.00     0.050 C 
HETATM   37  C16 UNL     1      91.167  24.816   6.464  1.00  0.00     0.083 C 
HETATM   38  C17 UNL     1      89.944  24.204   5.914  1.00  0.00     0.146 C 
HETATM   39  O7  UNL     1      89.868  23.991   4.716  1.00  0.00    -0.296 OA
HETATM   40  C18 UNL     1      88.743  23.800   6.678  1.00  0.00     0.226 C 
HETATM   41  N6  UNL     1      89.078  23.798   8.105  1.00  0.00    -0.290 N 
HETATM   42  C19 UNL     1      88.219  24.227   9.043  1.00  0.00     0.116 A 
HETATM   43  N7  UNL     1      90.203  23.388   8.724  1.00  0.00    -0.236 N 
HETATM   44  C20 UNL     1      88.814  24.081  10.261  1.00  0.00     0.095 A 
HETATM   45  C21 UNL     1      90.093  23.539  10.039  1.00  0.00     0.264 A 
HETATM   46  O8  UNL     1      90.888  23.286  10.978  1.00  0.00    -0.267 OA
ENDBRANCH  32  35
ENDBRANCH  31  32
ENDBRANCH  28  31
ENDBRANCH  27  28
ENDBRANCH   1  27
BRANCH   1  47
HETATM   47  C22 UNL     1      95.876  18.140   5.269  1.00  0.00     0.102 C 
BRANCH  47  48
HETATM   48  C23 UNL     1      97.051  18.625   6.011  1.00  0.00     0.188 A 
HETATM   49  N8  UNL     1      97.257  20.018   6.143  1.00  0.00    -0.349 N 
HETATM   50  C24 UNL     1      97.203  20.384   7.365  1.00  0.00     0.190 A 
ATOM     51  H8  UNL     1      97.428  20.650   5.361  1.00  0.00     0.163 HD
HETATM   52  N9  UNL     1      97.354  21.694   7.943  1.00  0.00    -0.063 NA
HETATM   53  N10 UNL     1      96.953  19.235   8.158  1.00  0.00    -0.321 N 
HETATM   54  C25 UNL     1      96.854  18.183   7.445  1.00  0.00     0.123 A 
ATOM     55  H10 UNL     1      96.862  19.249   9.173  1.00  0.00     0.169 HD
HETATM   56  N11 UNL     1      96.613  16.828   7.802  1.00  0.00    -0.085 NA
ENDBRANCH  47  48
ENDBRANCH   1  47
TORSDOF 14
ENDMDL
MODEL 2
REMARK VINA RESULT: -9.920451065      3.002      9.839
REMARK  14 active torsions:
REMARK  status: ('A' for Active; 'I' for Inactive)
REMARK    1  A    between atoms: C2_2  and  N1_3 
REMARK    2  A    between atoms: C2_2  and  C3_7 
REMARK    3  A    between atoms: C3_7  and  O1_11 
REMARK    4  A    between atoms: O1_11  and  C4_12 
REMARK    5  A    between atoms: C4_12  and  N3_13 
REMARK    6  A    between atoms: C10_23  and  N5_24 
REMARK    7  A    between atoms: N5_24  and  C11_25 
REMARK    8  A    between atoms: N5_24  and  C22_45 
REMARK    9  A    between atoms: C11_25  and  C12_26 
REMARK   10  A    between atoms: C12_26  and  O4_27 
REMARK   11  A    between atoms: C12_26  and  C13_29 
REMARK   12  A    between atoms: C13_29  and  S1_30 
REMARK   13  A    between atoms: S1_30  and  C14_33 
REMARK   14  A    between atoms: C22_45  and  C23_46 
ROOT
HETATM    1  N5  UNL     1      94.575  20.418   6.033  1.00  0.00    -0.335 N 
ENDROOT
BRANCH   1   2
HETATM    2  C10 UNL     1      93.693  20.753   7.188  1.00  0.00     0.040 A 
HETATM    3  C9  UNL     1      93.508  19.882   8.220  1.00  0.00     0.031 A 
HETATM    4  C8  UNL     1      92.646  20.212   9.276  1.00  0.00     0.022 A 
HETATM    5  C7  UNL     1      91.998  21.443   9.231  1.00  0.00     0.059 A 
HETATM    6  C6  UNL     1      91.130  21.783  10.260  1.00  0.00     0.261 A 
HETATM    7  C27 UNL     1      92.177  22.317   8.207  1.00  0.00     0.063 A 
HETATM    8  N4  UNL     1      90.520  22.970  10.168  1.00  0.00    -0.274 N 
HETATM    9  O3  UNL     1      90.957  20.985  11.211  1.00  0.00    -0.267 OA
HETATM   10  C5  UNL     1      90.733  23.817   9.114  1.00  0.00     0.335 A 
ATOM     11  H4  UNL     1      89.877  23.254  10.907  1.00  0.00     0.173 HD
HETATM   12  N3  UNL     1      91.556  23.534   8.108  1.00  0.00    -0.253 N 
HETATM   13  O2  UNL     1      90.085  24.884   9.177  1.00  0.00    -0.246 OA
HETATM   14  C26 UNL     1      93.029  21.956   7.194  1.00  0.00     0.061 A 
BRANCH  12  15
HETATM   15  C4  UNL     1      91.810  24.366   7.007  1.00  0.00     0.247 C 
BRANCH  15  16
HETATM   16  O1  UNL     1      90.664  24.939   6.464  1.00  0.00    -0.291 OA
BRANCH  16  17
HETATM   17  C3  UNL     1      89.712  24.370   5.664  1.00  0.00     0.149 C 
HETATM   18  N2  UNL     1      90.197  24.080   4.461  1.00  0.00    -0.381 N 
ATOM     19  H22 UNL     1      89.487  23.656   3.864  1.00  0.00     0.158 HD
ATOM     20  H21 UNL     1      91.170  24.286   4.237  1.00  0.00     0.158 HD
BRANCH  17  21
HETATM   21  C2  UNL     1      88.306  24.072   5.988  1.00  0.00     0.253 C 
HETATM   22  C1  UNL     1      88.119  22.779   6.739  1.00  0.00     0.049 C 
BRANCH  21  23
HETATM   23  N1  UNL     1      87.829  25.142   6.875  1.00  0.00    -0.068 N 
ATOM     24  H13 UNL     1      87.247  25.832   6.400  1.00  0.00     0.275 HD
ATOM     25  H12 UNL     1      87.129  24.828   7.547  1.00  0.00     0.275 HD
ATOM     26  H11 UNL     1      88.657  25.544   7.314  1.00  0.00     0.275 HD
ENDBRANCH  21  23
ENDBRANCH  17  21
ENDBRANCH  16  17
ENDBRANCH  15  16
ENDBRANCH  12  15
ENDBRANCH   1   2
BRANCH   1  27
HETATM   27  C11 UNL     1      95.790  21.129   5.947  1.00  0.00     0.102 C 
BRANCH  27  28
HETATM   28  C12 UNL     1      97.082  20.554   6.343  1.00  0.00     0.171 C 
BRANCH  28  29
HETATM   29  O4  UNL     1      97.588  21.292   7.422  1.00  0.00    -0.389 OA
ATOM     30  H4  UNL     1      98.145  20.724   7.942  1.00  0.00     0.210 HD
ENDBRANCH  28  29
BRANCH  28  31
HETATM   31  C13 UNL     1      96.751  19.151   6.948  1.00  0.00     0.179 C 
BRANCH  31  32
HETATM   32  S1  UNL     1      97.517  17.883   6.013  1.00  0.00     0.170 S 
HETATM   33  O5  UNL     1      96.895  17.960   4.604  1.00  0.00    -0.226 OA
HETATM   34  O6  UNL     1      98.992  18.156   5.736  1.00  0.00    -0.226 OA
BRANCH  32  35
HETATM   35  C14 UNL     1      97.302  16.257   6.639  1.00  0.00     0.234 C 
HETATM   36  C15 UNL     1      97.936  16.063   7.968  1.00  0.00     0.050 C 
HETATM   37  C16 UNL     1      97.873  14.658   8.447  1.00  0.00     0.083 C 
HETATM   38  C17 UNL     1      96.585  13.992   8.175  1.00  0.00     0.146 C 
HETATM   39  O7  UNL     1      95.781  13.851   9.080  1.00  0.00    -0.296 OA
HETATM   40  C18 UNL     1      96.134  13.448   6.875  1.00  0.00     0.226 C 
HETATM   41  N6  UNL     1      97.019  13.960   5.824  1.00  0.00    -0.290 N 
HETATM   42  C19 UNL     1      97.419  13.201   4.791  1.00  0.00     0.116 A 
HETATM   43  N7  UNL     1      97.554  15.188   5.673  1.00  0.00    -0.236 N 
HETATM   44  C20 UNL     1      98.211  13.965   3.986  1.00  0.00     0.095 A 
HETATM   45  C21 UNL     1      98.289  15.243   4.568  1.00  0.00     0.264 A 
HETATM   46  O8  UNL     1      98.951  16.177   4.051  1.00  0.00    -0.267 OA
ENDBRANCH  32  35
ENDBRANCH  31  32
ENDBRANCH  28  31
ENDBRANCH  27  28
ENDBRANCH   1  27
BRANCH   1  47
HETATM   47  C22 UNL     1      94.047  19.433   5.199  1.00  0.00     0.102 C 
BRANCH  47  48
HETATM   48  C23 UNL     1      93.896  19.572   3.741  1.00  0.00     0.188 A 
HETATM   49  N8  UNL     1      95.054  19.650   2.932  1.00  0.00    -0.349 N 
HETATM   50  C24 UNL     1      95.131  18.660   2.130  1.00  0.00     0.190 A 
ATOM     51  H8  UNL     1      95.740  20.403   2.983  1.00  0.00     0.163 HD
HETATM   52  N9  UNL     1      96.133  18.346   1.145  1.00  0.00    -0.063 NA
HETATM   53  N10 UNL     1      94.004  17.827   2.349  1.00  0.00    -0.321 N 
HETATM   54  C25 UNL     1      93.246  18.291   3.263  1.00  0.00     0.123 A 
ATOM     55  H10 UNL     1      93.822  16.964   1.837  1.00  0.00     0.169 HD
HETATM   56  N11 UNL     1      92.026  17.803   3.807  1.00  0.00    -0.085 NA
ENDBRANCH  47  48
ENDBRANCH   1  47
TORSDOF 14
ENDMDL
MODEL 3
REMARK VINA RESULT: -9.773538593      2.784      9.958
REMARK  14 active torsions:
REMARK  status: ('A' for Active; 'I' for Inactive)
REMARK    1  A    between atoms: C2_2  and  N1_3 
REMARK    2  A    between atoms: C2_2  and  C3_7 
REMARK    3  A    between atoms: C3_7  and  O1_11 
REMARK    4  A    between atoms: O1_11  and  C4_12 
REMARK    5  A    between atoms: C4_12  and  N3_13 
REMARK    6  A    between atoms: C10_23  and  N5_24 
REMARK    7  A    between atoms: N5_24  and  C11_25 
REMARK    8  A    between atoms: N5_24  and  C22_45 
REMARK    9  A    between atoms: C11_25  and  C12_26 
REMARK   10  A    between atoms: C12_26  and  O4_27 
REMARK   11  A    between atoms: C12_26  and  C13_29 
REMARK   12  A    between atoms: C13_29  and  S1_30 
REMARK   13  A    between atoms: S1_30  and  C14_33 
REMARK   14  A    between atoms: C22_45  and  C23_46 
ROOT
HETATM    1  N5  UNL     1      94.244  20.803   5.745  1.00  0.00    -0.335 N 
ENDROOT
BRANCH   1   2
HETATM    2  C10 UNL     1      93.523  21.123   7.011  1.00  0.00     0.040 A 
HETATM    3  C9  UNL     1      93.703  20.384   8.141  1.00  0.00     0.031 A 
HETATM    4  C8  UNL     1      92.984  20.689   9.306  1.00  0.00     0.022 A 
HETATM    5  C7  UNL     1      92.094  21.759   9.264  1.00  0.00     0.059 A 
HETATM    6  C6  UNL     1      91.363  22.069  10.403  1.00  0.00     0.261 A 
HETATM    7  C27 UNL     1      91.908  22.500   8.142  1.00  0.00     0.063 A 
HETATM    8  N4  UNL     1      90.510  23.096  10.312  1.00  0.00    -0.274 N 
HETATM    9  O3  UNL     1      91.526  21.392  11.445  1.00  0.00    -0.267 OA
HETATM   10  C5  UNL     1      90.358  23.813   9.156  1.00  0.00     0.335 A 
ATOM     11  H4  UNL     1      89.957  23.353  11.129  1.00  0.00     0.173 HD
HETATM   12  N3  UNL     1      91.037  23.553   8.043  1.00  0.00    -0.253 N 
HETATM   13  O2  UNL     1      89.519  24.738   9.235  1.00  0.00    -0.246 OA
HETATM   14  C26 UNL     1      92.631  22.169   7.023  1.00  0.00     0.061 A 
BRANCH  12  15
HETATM   15  C4  UNL     1      90.918  24.256   6.835  1.00  0.00     0.247 C 
BRANCH  15  16
HETATM   16  O1  UNL     1      89.871  23.817   6.033  1.00  0.00    -0.291 OA
BRANCH  16  17
HETATM   17  C3  UNL     1      88.525  23.995   6.199  1.00  0.00     0.149 C 
HETATM   18  N2  UNL     1      88.234  25.255   6.506  1.00  0.00    -0.381 N 
ATOM     19  H22 UNL     1      87.231  25.388   6.630  1.00  0.00     0.158 HD
ATOM     20  H21 UNL     1      88.978  25.947   6.588  1.00  0.00     0.158 HD
BRANCH  17  21
HETATM   21  C2  UNL     1      87.449  22.995   6.080  1.00  0.00     0.253 C 
HETATM   22  C1  UNL     1      87.361  22.057   7.256  1.00  0.00     0.049 C 
BRANCH  21  23
HETATM   23  N1  UNL     1      86.176  23.730   6.037  1.00  0.00    -0.068 N 
ATOM     24  H13 UNL     1      86.290  24.725   5.846  1.00  0.00     0.275 HD
ATOM     25  H12 UNL     1      85.609  23.509   5.219  1.00  0.00     0.275 HD
ATOM     26  H11 UNL     1      85.703  23.539   6.921  1.00  0.00     0.275 HD
ENDBRANCH  21  23
ENDBRANCH  17  21
ENDBRANCH  16  17
ENDBRANCH  15  16
ENDBRANCH  12  15
ENDBRANCH   1   2
BRANCH   1  27
HETATM   27  C11 UNL     1      95.544  21.334   5.616  1.00  0.00     0.102 C 
BRANCH  27  28
HETATM   28  C12 UNL     1      96.740  20.658   6.136  1.00  0.00     0.171 C 
BRANCH  28  29
HETATM   29  O4  UNL     1      97.104  21.264   7.346  1.00  0.00    -0.389 OA
ATOM     30  H4  UNL     1      98.049  21.219   7.435  1.00  0.00     0.210 HD
ENDBRANCH  28  29
BRANCH  28  31
HETATM   31  C13 UNL     1      96.269  19.223   6.542  1.00  0.00     0.179 C 
BRANCH  31  32
HETATM   32  S1  UNL     1      97.263  18.008   5.765  1.00  0.00     0.170 S 
HETATM   33  O5  UNL     1      96.782  17.940   4.301  1.00  0.00    -0.226 OA
HETATM   34  O6  UNL     1      98.718  18.438   5.613  1.00  0.00    -0.226 OA
BRANCH  32  35
HETATM   35  C14 UNL     1      97.168  16.402   6.467  1.00  0.00     0.234 C 
HETATM   36  C15 UNL     1      97.775  16.329   7.822  1.00  0.00     0.050 C 
HETATM   37  C16 UNL     1      97.817  14.949   8.370  1.00  0.00     0.083 C 
HETATM   38  C17 UNL     1      96.601  14.161   8.098  1.00  0.00     0.146 C 
HETATM   39  O7  UNL     1      95.783  13.995   8.987  1.00  0.00    -0.296 OA
HETATM   40  C18 UNL     1      96.240  13.516   6.816  1.00  0.00     0.226 C 
HETATM   41  N6  UNL     1      97.110  14.052   5.765  1.00  0.00    -0.290 N 
HETATM   42  C19 UNL     1      97.606  13.281   4.783  1.00  0.00     0.116 A 
HETATM   43  N7  UNL     1      97.542  15.313   5.565  1.00  0.00    -0.236 N 
HETATM   44  C20 UNL     1      98.354  14.071   3.962  1.00  0.00     0.095 A 
HETATM   45  C21 UNL     1      98.304  15.378   4.479  1.00  0.00     0.264 A 
HETATM   46  O8  UNL     1      98.900  16.340   3.934  1.00  0.00    -0.267 OA
ENDBRANCH  32  35
ENDBRANCH  31  32
ENDBRANCH  28  31
ENDBRANCH  27  28
ENDBRANCH   1  27
BRANCH   1  47
HETATM   47  C22 UNL     1      93.503  20.011   4.869  1.00  0.00     0.102 C 
BRANCH  47  48
HETATM   48  C23 UNL     1      93.466  18.540   4.908  1.00  0.00     0.188 A 
HETATM   49  N8  UNL     1      92.455  17.895   5.659  1.00  0.00    -0.349 N 
HETATM   50  C24 UNL     1      91.688  17.202   4.910  1.00  0.00     0.190 A 
ATOM     51  H8  UNL     1      92.353  17.974   6.670  1.00  0.00     0.163 HD
HETATM   52  N9  UNL     1      90.546  16.396   5.254  1.00  0.00    -0.063 NA
HETATM   53  N10 UNL     1      92.142  17.334   3.572  1.00  0.00    -0.321 N 
HETATM   54  C25 UNL     1      93.164  18.090   3.494  1.00  0.00     0.123 A 
ATOM     55  H10 UNL     1      91.703  16.879   2.772  1.00  0.00     0.169 HD
HETATM   56  N11 UNL     1      93.944  18.500   2.377  1.00  0.00    -0.085 NA
ENDBRANCH  47  48
ENDBRANCH   1  47
TORSDOF 14
ENDMDL
MODEL 4
REMARK VINA RESULT: -9.733577297      1.138      1.486
REMARK  14 active torsions:
REMARK  status: ('A' for Active; 'I' for Inactive)
REMARK    1  A    between atoms: C2_2  and  N1_3 
REMARK    2  A    between atoms: C2_2  and  C3_7 
REMARK    3  A    between atoms: C3_7  and  O1_11 
REMARK    4  A    between atoms: O1_11  and  C4_12 
REMARK    5  A    between atoms: C4_12  and  N3_13 
REMARK    6  A    between atoms: C10_23  and  N5_24 
REMARK    7  A    between atoms: N5_24  and  C11_25 
REMARK    8  A    between atoms: N5_24  and  C22_45 
REMARK    9  A    between atoms: C11_25  and  C12_26 
REMARK   10  A    between atoms: C12_26  and  O4_27 
REMARK   11  A    between atoms: C12_26  and  C13_29 
REMARK   12  A    between atoms: C13_29  and  S1_30 
REMARK   13  A    between atoms: S1_30  and  C14_33 
REMARK   14  A    between atoms: C22_45  and  C23_46 
ROOT
HETATM    1  N5  UNL     1      94.205  19.138   5.645  1.00  0.00    -0.335 N 
ENDROOT
BRANCH   1   2
HETATM    2  C10 UNL     1      93.361  17.941   5.365  1.00  0.00     0.040 A 
HETATM    3  C9  UNL     1      92.028  17.927   5.644  1.00  0.00     0.031 A 
HETATM    4  C8  UNL     1      91.267  16.774   5.400  1.00  0.00     0.022 A 
HETATM    5  C7  UNL     1      91.916  15.663   4.869  1.00  0.00     0.059 A 
HETATM    6  C6  UNL     1      91.183  14.507   4.633  1.00  0.00     0.261 A 
HETATM    7  C27 UNL     1      93.244  15.668   4.588  1.00  0.00     0.063 A 
HETATM    8  N4  UNL     1      91.851  13.461   4.134  1.00  0.00    -0.274 N 
HETATM    9  O3  UNL     1      89.957  14.490   4.889  1.00  0.00    -0.267 OA
HETATM   10  C5  UNL     1      93.192  13.515   3.867  1.00  0.00     0.335 A 
ATOM     11  H4  UNL     1      91.345  12.595   3.947  1.00  0.00     0.173 HD
HETATM   12  N3  UNL     1      93.933  14.600   4.077  1.00  0.00    -0.253 N 
HETATM   13  O2  UNL     1      93.666  12.452   3.409  1.00  0.00    -0.246 OA
HETATM   14  C26 UNL     1      93.952  16.816   4.841  1.00  0.00     0.061 A 
BRANCH  12  15
HETATM   15  C4  UNL     1      95.308  14.707   3.820  1.00  0.00     0.247 C 
BRANCH  15  16
HETATM   16  O1  UNL     1      96.108  14.211   4.843  1.00  0.00    -0.291 OA
BRANCH  16  17
HETATM   17  C3  UNL     1      97.470  14.241   4.964  1.00  0.00     0.149 C 
HETATM   18  N2  UNL     1      97.845  14.320   6.236  1.00  0.00    -0.381 N 
ATOM     19  H22 UNL     1      98.860  14.343   6.327  1.00  0.00     0.158 HD
ATOM     20  H21 UNL     1      97.143  14.350   6.976  1.00  0.00     0.158 HD
BRANCH  17  21
HETATM   21  C2  UNL     1      98.483  14.199   3.895  1.00  0.00     0.253 C 
HETATM   22  C1  UNL     1      99.195  15.510   3.683  1.00  0.00     0.049 C 
BRANCH  21  23
HETATM   23  N1  UNL     1      99.510  13.230   4.309  1.00  0.00    -0.068 N 
ATOM     24  H13 UNL     1     100.462  13.569   4.175  1.00  0.00     0.275 HD
ATOM     25  H12 UNL     1      99.562  13.104   5.319  1.00  0.00     0.275 HD
ATOM     26  H11 UNL     1      99.312  12.367   3.804  1.00  0.00     0.275 HD
ENDBRANCH  21  23
ENDBRANCH  17  21
ENDBRANCH  16  17
ENDBRANCH  15  16
ENDBRANCH  12  15
ENDBRANCH   1   2
BRANCH   1  27
HETATM   27  C11 UNL     1      93.616  20.148   6.433  1.00  0.00     0.102 C 
BRANCH  27  28
HETATM   28  C12 UNL     1      93.178  19.931   7.817  1.00  0.00     0.171 C 
BRANCH  28  29
HETATM   29  O4  UNL     1      94.068  19.040   8.432  1.00  0.00    -0.389 OA
ATOM     30  H4  UNL     1      94.947  19.391   8.357  1.00  0.00     0.210 HD
ENDBRANCH  28  29
BRANCH  28  31
HETATM   31  C13 UNL     1      93.414  21.291   8.552  1.00  0.00     0.179 C 
BRANCH  31  32
HETATM   32  S1  UNL     1      91.897  21.946   9.133  1.00  0.00     0.170 S 
HETATM   33  O5  UNL     1      91.033  20.730   9.524  1.00  0.00    -0.226 OA
HETATM   34  O6  UNL     1      92.037  22.688  10.457  1.00  0.00    -0.226 OA
BRANCH  32  35
HETATM   35  C14 UNL     1      91.009  22.921   7.973  1.00  0.00     0.234 C 
HETATM   36  C15 UNL     1      91.851  23.967   7.338  1.00  0.00     0.050 C 
HETATM   37  C16 UNL     1      91.081  24.881   6.455  1.00  0.00     0.083 C 
HETATM   38  C17 UNL     1      90.062  24.199   5.634  1.00  0.00     0.146 C 
HETATM   39  O7  UNL     1      90.285  23.992   4.454  1.00  0.00    -0.296 OA
HETATM   40  C18 UNL     1      88.741  23.717   6.094  1.00  0.00     0.226 C 
HETATM   41  N6  UNL     1      88.729  23.724   7.560  1.00  0.00    -0.290 N 
HETATM   42  C19 UNL     1      87.647  24.093   8.266  1.00  0.00     0.116 A 
HETATM   43  N7  UNL     1      89.697  23.378   8.430  1.00  0.00    -0.236 N 
HETATM   44  C20 UNL     1      87.944  23.973   9.590  1.00  0.00     0.095 A 
HETATM   45  C21 UNL     1      89.270  23.512   9.681  1.00  0.00     0.264 A 
HETATM   46  O8  UNL     1      89.834  23.300  10.784  1.00  0.00    -0.267 OA
ENDBRANCH  32  35
ENDBRANCH  31  32
ENDBRANCH  28  31
ENDBRANCH  27  28
ENDBRANCH   1  27
BRANCH   1  47
HETATM   47  C22 UNL     1      95.474  19.068   5.072  1.00  0.00     0.102 C 
BRANCH  47  48
HETATM   48  C23 UNL     1      96.705  19.558   5.715  1.00  0.00     0.188 A 
HETATM   49  N8  UNL     1      96.725  20.863   6.262  1.00  0.00    -0.349 N 
HETATM   50  C24 UNL     1      96.904  20.837   7.525  1.00  0.00     0.190 A 
ATOM     51  H8  UNL     1      96.611  21.716   5.715  1.00  0.00     0.163 HD
HETATM   52  N9  UNL     1      96.988  21.922   8.468  1.00  0.00    -0.063 NA
HETATM   53  N10 UNL     1      97.021  19.481   7.926  1.00  0.00    -0.321 N 
HETATM   54  C25 UNL     1      96.917  18.687   6.935  1.00  0.00     0.123 A 
ATOM     55  H10 UNL     1      97.169  19.179   8.889  1.00  0.00     0.169 HD
HETATM   56  N11 UNL     1      96.971  17.267   6.861  1.00  0.00    -0.085 NA
ENDBRANCH  47  48
ENDBRANCH   1  47
TORSDOF 14
ENDMDL
MODEL 5
REMARK VINA RESULT: -9.712302503      1.413      1.771
REMARK  14 active torsions:
REMARK  status: ('A' for Active; 'I' for Inactive)
REMARK    1  A    between atoms: C2_2  and  N1_3 
REMARK    2  A    between atoms: C2_2  and  C3_7 
REMARK    3  A    between atoms: C3_7  and  O1_11 
REMARK    4  A    between atoms: O1_11  and  C4_12 
REMARK    5  A    between atoms: C4_12  and  N3_13 
REMARK    6  A    between atoms: C10_23  and  N5_24 
REMARK    7  A    between atoms: N5_24  and  C11_25 
REMARK    8  A    between atoms: N5_24  and  C22_45 
REMARK    9  A    between atoms: C11_25  and  C12_26 
REMARK   10  A    between atoms: C12_26  and  O4_27 
REMARK   11  A    between atoms: C12_26  and  C13_29 
REMARK   12  A    between atoms: C13_29  and  S1_30 
REMARK   13  A    between atoms: S1_30  and  C14_33 
REMARK   14  A    between atoms: C22_45  and  C23_46 
ROOT
HETATM    1  N5  UNL     1      95.491  18.009   5.059  1.00  0.00    -0.335 N 
ENDROOT
BRANCH   1   2
HETATM    2  C10 UNL     1      94.789  16.727   4.763  1.00  0.00     0.040 A 
HETATM    3  C9  UNL     1      93.598  16.702   4.101  1.00  0.00     0.031 A 
HETATM    4  C8  UNL     1      92.947  15.482   3.867  1.00  0.00     0.022 A 
HETATM    5  C7  UNL     1      93.554  14.317   4.328  1.00  0.00     0.059 A 
HETATM    6  C6  UNL     1      92.918  13.101   4.118  1.00  0.00     0.261 A 
HETATM    7  C27 UNL     1      94.740  14.334   4.988  1.00  0.00     0.063 A 
HETATM    8  N4  UNL     1      93.532  12.010   4.590  1.00  0.00    -0.274 N 
HETATM    9  O3  UNL     1      91.822  13.073   3.511  1.00  0.00    -0.267 OA
HETATM   10  C5  UNL     1      94.728  12.078   5.251  1.00  0.00     0.335 A 
ATOM     11  H4  UNL     1      93.094  11.098   4.453  1.00  0.00     0.173 HD
HETATM   12  N3  UNL     1      95.373  13.220   5.473  1.00  0.00    -0.253 N 
HETATM   13  O2  UNL     1      95.166  10.970   5.631  1.00  0.00    -0.246 OA
HETATM   14  C26 UNL     1      95.345  15.548   5.196  1.00  0.00     0.061 A 
BRANCH  12  15
HETATM   15  C4  UNL     1      96.600  13.343   6.142  1.00  0.00     0.247 C 
BRANCH  15  16
HETATM   16  O1  UNL     1      96.489  13.285   7.528  1.00  0.00    -0.291 OA
BRANCH  16  17
HETATM   17  C3  UNL     1      97.478  13.287   8.472  1.00  0.00     0.149 C 
HETATM   18  N2  UNL     1      98.542  13.968   8.062  1.00  0.00    -0.381 N 
ATOM     19  H22 UNL     1      99.280  13.970   8.765  1.00  0.00     0.158 HD
ATOM     20  H21 UNL     1      98.546  14.409   7.142  1.00  0.00     0.158 HD
BRANCH  17  21
HETATM   21  C2  UNL     1      97.474  12.652   9.801  1.00  0.00     0.253 C 
HETATM   22  C1  UNL     1      97.002  11.220   9.787  1.00  0.00     0.049 C 
BRANCH  21  23
HETATM   23  N1  UNL     1      98.865  12.626  10.275  1.00  0.00    -0.068 N 
ATOM     24  H13 UNL     1      99.383  11.805   9.964  1.00  0.00     0.275 HD
ATOM     25  H12 UNL     1      99.457  13.325   9.827  1.00  0.00     0.275 HD
ATOM     26  H11 UNL     1      98.827  12.720  11.290  1.00  0.00     0.275 HD
ENDBRANCH  21  23
ENDBRANCH  17  21
ENDBRANCH  16  17
ENDBRANCH  15  16
ENDBRANCH  12  15
ENDBRANCH   1   2
BRANCH   1  27
HETATM   27  C11 UNL     1      94.681  19.161   5.140  1.00  0.00     0.102 C 
BRANCH  27  28
HETATM   28  C12 UNL     1      93.596  19.310   6.118  1.00  0.00     0.171 C 
BRANCH  28  29
HETATM   29  O4  UNL     1      94.101  19.017   7.393  1.00  0.00    -0.389 OA
ATOM     30  H4  UNL     1      93.816  18.144   7.638  1.00  0.00     0.210 HD
ENDBRANCH  28  29
BRANCH  28  31
HETATM   31  C13 UNL     1      93.279  20.841   6.165  1.00  0.00     0.179 C 
BRANCH  31  32
HETATM   32  S1  UNL     1      92.568  21.273   7.706  1.00  0.00     0.170 S 
HETATM   33  O5  UNL     1      91.734  20.053   8.146  1.00  0.00    -0.226 OA
HETATM   34  O6  UNL     1      93.597  21.389   8.825  1.00  0.00    -0.226 OA
BRANCH  32  35
HETATM   35  C14 UNL     1      91.529  22.688   7.680  1.00  0.00     0.234 C 
HETATM   36  C15 UNL     1      92.139  23.838   6.963  1.00  0.00     0.050 C 
HETATM   37  C16 UNL     1      91.326  25.078   7.048  1.00  0.00     0.083 C 
HETATM   38  C17 UNL     1      89.875  24.852   6.912  1.00  0.00     0.146 C 
HETATM   39  O7  UNL     1      89.325  25.113   5.856  1.00  0.00    -0.296 OA
HETATM   40  C18 UNL     1      88.967  24.323   7.953  1.00  0.00     0.226 C 
HETATM   41  N6  UNL     1      89.778  23.751   9.032  1.00  0.00    -0.290 N 
HETATM   42  C19 UNL     1      89.449  23.886  10.326  1.00  0.00     0.116 A 
HETATM   43  N7  UNL     1      90.909  23.020   8.963  1.00  0.00    -0.236 N 
HETATM   44  C20 UNL     1      90.383  23.232  11.072  1.00  0.00     0.095 A 
HETATM   45  C21 UNL     1      91.318  22.678  10.179  1.00  0.00     0.264 A 
HETATM   46  O8  UNL     1      92.306  22.008  10.570  1.00  0.00    -0.267 OA
ENDBRANCH  32  35
ENDBRANCH  31  32
ENDBRANCH  28  31
ENDBRANCH  27  28
ENDBRANCH   1  27
BRANCH   1  47
HETATM   47  C22 UNL     1      96.869  17.865   5.215  1.00  0.00     0.102 C 
BRANCH  47  48
HETATM   48  C23 UNL     1      97.663  18.540   6.255  1.00  0.00     0.188 A 
HETATM   49  N8  UNL     1      97.639  19.952   6.334  1.00  0.00    -0.349 N 
HETATM   50  C24 UNL     1      97.139  20.349   7.439  1.00  0.00     0.190 A 
ATOM     51  H8  UNL     1      97.979  20.574   5.600  1.00  0.00     0.163 HD
HETATM   52  N9  UNL     1      96.926  21.687   7.927  1.00  0.00    -0.063 NA
HETATM   53  N10 UNL     1      96.785  19.205   8.198  1.00  0.00    -0.321 N 
HETATM   54  C25 UNL     1      97.059  18.125   7.579  1.00  0.00     0.123 A 
ATOM     55  H10 UNL     1      96.363  19.242   9.126  1.00  0.00     0.169 HD
HETATM   56  N11 UNL     1      96.883  16.763   7.948  1.00  0.00    -0.085 NA
ENDBRANCH  47  48
ENDBRANCH   1  47
TORSDOF 14
ENDMDL
