MODEL 1
REMARK VINA RESULT: -10.940298157      0.000      0.000
REMARK  14 active torsions:
REMARK  status: ('A' for Active; 'I' for Inactive)
REMARK    1  A    between atoms: C2_2  and  C3_4 
REMARK    2  A    between atoms: C3_4  and  N1_5 
REMARK    3  A    between atoms: C7_13  and  N3_14 
REMARK    4  A    between atoms: N5_20  and  C9_21 
REMARK    5  A    between atoms: C9_21  and  C10_22 
REMARK    6  A    between atoms: C10_22  and  N6_23 
REMARK    7  A    between atoms: C11_27  and  C12_28 
REMARK    8  A    between atoms: C12_28  and  N9_29 
REMARK       I    between atoms: N9_29  and  C13_31 
REMARK    9  A    between atoms: C13_31  and  C14_33 
REMARK   10  A    between atoms: C18_39  and  N11_40 
REMARK   11  A    between atoms: C19_45  and  N13_46 
REMARK   12  A    between atoms: C21_48  and  C22_49 
REMARK   13  A    between atoms: C22_49  and  O5_50 
REMARK   14  A    between atoms: C22_49  and  O6_52 
ROOT
HETATM    1  N6  UNL     1      94.483  19.494   7.032  1.00  0.00    -0.257 N 
HETATM    2  N7  UNL     1      95.486  19.508   7.926  1.00  0.00    -0.018 NA
HETATM    3  N8  UNL     1      96.205  18.401   7.826  1.00  0.00    -0.283 N 
ATOM      4  H8  UNL     1      97.020  18.169   8.394  1.00  0.00     0.184 HD
HETATM    5  C11 UNL     1      95.685  17.636   6.859  1.00  0.00     0.086 A 
HETATM    6  C19 UNL     1      94.592  18.356   6.372  1.00  0.00     0.145 A 
ENDROOT
BRANCH   1   7
HETATM    7  C10 UNL     1      93.518  20.522   6.872  1.00  0.00     0.170 C 
BRANCH   7   8
HETATM    8  C9  UNL     1      93.823  21.804   7.628  1.00  0.00     0.172 C 
BRANCH   8   9
HETATM    9  N5  UNL     1      92.639  22.293   8.299  1.00  0.00    -0.268 N 
HETATM   10  N1  UNL     1      92.289  22.140   9.546  1.00  0.00    -0.246 N 
HETATM   11  C4  UNL     1      91.113  22.766   9.793  1.00  0.00     0.282 A 
HETATM   12  O2  UNL     1      90.477  22.833  10.873  1.00  0.00    -0.265 OA
HETATM   13  C5  UNL     1      90.700  23.351   8.619  1.00  0.00     0.148 A 
HETATM   14  C6  UNL     1      89.591  24.109   8.261  1.00  0.00     0.279 A 
HETATM   15  C8  UNL     1      91.678  23.034   7.702  1.00  0.00     0.159 A 
HETATM   16  O3  UNL     1      88.718  24.373   9.146  1.00  0.00    -0.266 OA
HETATM   17  N2  UNL     1      89.486  24.532   7.005  1.00  0.00    -0.155 N 
HETATM   18  C7  UNL     1      90.442  24.221   6.116  1.00  0.00     0.680 A 
ATOM     19  H2  UNL     1      88.682  25.090   6.718  1.00  0.00     0.187 HD
HETATM   20  N4  UNL     1      91.530  23.479   6.457  1.00  0.00    -0.174 N 
ATOM     21  H4  UNL     1      92.237  23.262   5.754  1.00  0.00     0.186 HD
BRANCH  10  22
HETATM   22  C3  UNL     1      92.999  21.433  10.579  1.00  0.00     0.230 C 
BRANCH  22  23
HETATM   23  C2  UNL     1      92.516  20.048  10.743  1.00  0.00     0.142 C 
HETATM   24  C1  UNL     1      91.583  19.394   9.779  1.00  0.00     0.093 C 
HETATM   25  O1  UNL     1      92.885  19.399  11.700  1.00  0.00    -0.297 OA
ENDBRANCH  22  23
ENDBRANCH  10  22
BRANCH  18  26
HETATM   26  N3  UNL     1      90.310  24.646   4.905  1.00  0.00    -0.234 N 
ATOM     27  H32 UNL     1      89.738  25.469   4.716  1.00  0.00     0.174 HD
ATOM     28  H31 UNL     1      90.790  24.139   4.161  1.00  0.00     0.174 HD
ENDBRANCH  18  26
ENDBRANCH   8   9
ENDBRANCH   7   8
ENDBRANCH   1   7
BRANCH   6  29
HETATM   29  N13 UNL     1      93.793  17.843   5.320  1.00  0.00    -0.345 N 
HETATM   30  C20 UNL     1      92.589  17.136   5.647  1.00  0.00     0.162 C 
HETATM   31  C21 UNL     1      91.627  16.947   4.537  1.00  0.00     0.197 C 
HETATM   32  O7  UNL     1      91.922  17.457   3.320  1.00  0.00    -0.347 OA
HETATM   33  C23 UNL     1      92.778  18.515   3.323  1.00  0.00     0.291 C 
HETATM   34  O8  UNL     1      93.228  18.915   2.080  1.00  0.00    -0.351 OA
HETATM   35  C26 UNL     1      94.092  17.969   3.922  1.00  0.00     0.213 C 
HETATM   36  C24 UNL     1      94.406  19.661   2.327  1.00  0.00     0.251 C 
HETATM   37  C25 UNL     1      95.011  19.027   3.534  1.00  0.00     0.177 C 
HETATM   38  O9  UNL     1      96.039  19.356   4.042  1.00  0.00    -0.293 OA
BRANCH  31  39
HETATM   39  C22 UNL     1      91.287  15.461   4.333  1.00  0.00     0.284 C 
BRANCH  39  40
HETATM   40  O5  UNL     1      90.037  15.170   4.883  1.00  0.00    -0.369 OA
ATOM     41  H5  UNL     1      90.089  14.393   5.428  1.00  0.00     0.212 HD
ENDBRANCH  39  40
BRANCH  39  42
HETATM   42  O6  UNL     1      92.260  14.643   4.902  1.00  0.00    -0.369 OA
ATOM     43  H6  UNL     1      91.865  13.956   5.426  1.00  0.00     0.212 HD
ENDBRANCH  39  42
ENDBRANCH  31  39
ENDBRANCH   6  29
BRANCH   5  44
HETATM   44  C12 UNL     1      96.171  16.323   6.411  1.00  0.00     0.185 C 
BRANCH  44  45
HETATM   45  N9  UNL     1      96.735  15.560   7.533  1.00  0.00    -0.350 N 
HETATM   46  C13 UNL     1      97.579  14.460   7.340  1.00  0.00     0.269 C 
HETATM   47  O4  UNL     1      97.892  14.081   6.192  1.00  0.00    -0.266 OA
ATOM     48  H9  UNL     1      96.502  15.841   8.485  1.00  0.00     0.163 HD
BRANCH  46  49
HETATM   49  C14 UNL     1      98.106  13.743   8.489  1.00  0.00     0.118 A 
HETATM   50  C15 UNL     1      97.373  12.721   9.094  1.00  0.00     0.061 A 
HETATM   51  C16 UNL     1      97.916  12.081  10.175  1.00  0.00     0.025 A 
HETATM   52  C17 UNL     1      97.151  10.979  10.844  1.00  0.00     0.068 C 
HETATM   53  N10 UNL     1      99.125  12.441  10.629  1.00  0.00    -0.196 N 
HETATM   54  C18 UNL     1      99.827  13.434  10.035  1.00  0.00     0.676 A 
ATOM     55  H10 UNL     1      99.523  11.958  11.435  1.00  0.00     0.184 HD
HETATM   56  N12 UNL     1      99.304  14.066   8.976  1.00  0.00    -0.186 N 
ATOM     57  H12 UNL     1      99.836  14.813   8.531  1.00  0.00     0.184 HD
BRANCH  54  58
HETATM   58  N11 UNL     1     100.989  13.782  10.472  1.00  0.00    -0.234 N 
ATOM     59 2H11 UNL     1     101.580  13.091  10.934  1.00  0.00     0.174 HD
ATOM     60 1H11 UNL     1     101.329  14.737  10.363  1.00  0.00     0.174 HD
ENDBRANCH  54  58
ENDBRANCH  46  49
ENDBRANCH  44  45
ENDBRANCH   5  44
TORSDOF 14
ENDMDL
MODEL 2
REMARK VINA RESULT: -10.817920484      1.078      1.181
REMARK  14 active torsions:
REMARK  status: ('A' for Active; 'I' for Inactive)
REMARK    1  A    between atoms: C2_2  and  C3_4 
REMARK    2  A    between atoms: C3_4  and  N1_5 
REMARK    3  A    between atoms: C7_13  and  N3_14 
REMARK    4  A    between atoms: N5_20  and  C9_21 
REMARK    5  A    between atoms: C9_21  and  C10_22 
REMARK    6  A    between atoms: C10_22  and  N6_23 
REMARK    7  A    between atoms: C11_27  and  C12_28 
REMARK    8  A    between atoms: C12_28  and  N9_29 
REMARK       I    between atoms: N9_29  and  C13_31 
REMARK    9  A    between atoms: C13_31  and  C14_33 
REMARK   10  A    between atoms: C18_39  and  N11_40 
REMARK   11  A    between atoms: C19_45  and  N13_46 
REMARK   12  A    between atoms: C21_48  and  C22_49 
REMARK   13  A    between atoms: C22_49  and  O5_50 
REMARK   14  A    between atoms: C22_49  and  O6_52 
ROOT
HETATM    1  N6  UNL     1      95.083  19.571   7.343  1.00  0.00    -0.257 N 
HETATM    2  N7  UNL     1      96.049  19.771   8.256  1.00  0.00    -0.018 NA
HETATM    3  N8  UNL     1      97.083  18.982   8.011  1.00  0.00    -0.283 N 
ATOM      4  H8  UNL     1      97.941  18.941   8.559  1.00  0.00     0.184 HD
HETATM    5  C11 UNL     1      96.815  18.247   6.925  1.00  0.00     0.086 A 
HETATM    6  C19 UNL     1      95.538  18.643   6.522  1.00  0.00     0.145 A 
ENDROOT
BRANCH   1   7
HETATM    7  C10 UNL     1      93.836  20.247   7.313  1.00  0.00     0.170 C 
BRANCH   7   8
HETATM    8  C9  UNL     1      93.918  21.744   7.551  1.00  0.00     0.172 C 
BRANCH   8   9
HETATM    9  N5  UNL     1      92.728  22.219   8.221  1.00  0.00    -0.268 N 
HETATM   10  N1  UNL     1      92.373  22.053   9.465  1.00  0.00    -0.246 N 
HETATM   11  C4  UNL     1      91.192  22.669   9.713  1.00  0.00     0.282 A 
HETATM   12  O2  UNL     1      90.550  22.720  10.790  1.00  0.00    -0.265 OA
HETATM   13  C5  UNL     1      90.780  23.261   8.542  1.00  0.00     0.148 A 
HETATM   14  C6  UNL     1      89.668  24.016   8.186  1.00  0.00     0.279 A 
HETATM   15  C8  UNL     1      91.765  22.960   7.626  1.00  0.00     0.159 A 
HETATM   16  O3  UNL     1      88.790  24.265   9.070  1.00  0.00    -0.266 OA
HETATM   17  N2  UNL     1      89.566  24.450   6.933  1.00  0.00    -0.155 N 
HETATM   18  C7  UNL     1      90.528  24.154   6.046  1.00  0.00     0.680 A 
ATOM     19  H2  UNL     1      88.760  25.006   6.649  1.00  0.00     0.187 HD
HETATM   20  N4  UNL     1      91.620  23.416   6.385  1.00  0.00    -0.174 N 
ATOM     21  H4  UNL     1      92.331  23.210   5.683  1.00  0.00     0.186 HD
BRANCH  10  22
HETATM   22  C3  UNL     1      93.083  21.340  10.494  1.00  0.00     0.230 C 
BRANCH  22  23
HETATM   23  C2  UNL     1      92.500  20.010  10.759  1.00  0.00     0.142 C 
HETATM   24  C1  UNL     1      91.446  19.399   9.896  1.00  0.00     0.093 C 
HETATM   25  O1  UNL     1      92.885  19.372  11.717  1.00  0.00    -0.297 OA
ENDBRANCH  22  23
ENDBRANCH  10  22
BRANCH  18  26
HETATM   26  N3  UNL     1      90.399  24.590   4.839  1.00  0.00    -0.234 N 
ATOM     27  H32 UNL     1      89.549  25.084   4.566  1.00  0.00     0.174 HD
ATOM     28  H31 UNL     1      91.163  24.426   4.183  1.00  0.00     0.174 HD
ENDBRANCH  18  26
ENDBRANCH   8   9
ENDBRANCH   7   8
ENDBRANCH   1   7
BRANCH   6  29
HETATM   29  N13 UNL     1      94.923  18.066   5.382  1.00  0.00    -0.345 N 
HETATM   30  C20 UNL     1      94.221  16.825   5.529  1.00  0.00     0.162 C 
HETATM   31  C21 UNL     1      93.309  16.462   4.420  1.00  0.00     0.197 C 
HETATM   32  O7  UNL     1      93.179  17.309   3.374  1.00  0.00    -0.347 OA
HETATM   33  C23 UNL     1      93.460  18.613   3.643  1.00  0.00     0.291 C 
HETATM   34  O8  UNL     1      93.512  19.445   2.541  1.00  0.00    -0.351 OA
HETATM   35  C26 UNL     1      94.945  18.628   4.062  1.00  0.00     0.213 C 
HETATM   36  C24 UNL     1      94.250  20.579   2.960  1.00  0.00     0.251 C 
HETATM   37  C25 UNL     1      95.229  20.050   3.952  1.00  0.00     0.177 C 
HETATM   38  O9  UNL     1      96.057  20.699   4.516  1.00  0.00    -0.293 OA
BRANCH  31  39
HETATM   39  C22 UNL     1      93.651  15.078   3.840  1.00  0.00     0.284 C 
BRANCH  39  40
HETATM   40  O5  UNL     1      94.546  14.410   4.677  1.00  0.00    -0.369 OA
ATOM     41  H5  UNL     1      94.096  14.082   5.447  1.00  0.00     0.212 HD
ENDBRANCH  39  40
BRANCH  39  42
HETATM   42  O6  UNL     1      94.188  15.191   2.560  1.00  0.00    -0.369 OA
ATOM     43  H6  UNL     1      93.759  14.596   1.956  1.00  0.00     0.212 HD
ENDBRANCH  39  42
ENDBRANCH  31  39
ENDBRANCH   6  29
BRANCH   5  44
HETATM   44  C12 UNL     1      97.688  17.244   6.298  1.00  0.00     0.185 C 
BRANCH  44  45
HETATM   45  N9  UNL     1      98.178  16.278   7.291  1.00  0.00    -0.350 N 
HETATM   46  C13 UNL     1      97.583  15.024   7.472  1.00  0.00     0.269 C 
HETATM   47  O4  UNL     1      96.601  14.671   6.786  1.00  0.00    -0.266 OA
ATOM     48  H9  UNL     1      98.979  16.531   7.869  1.00  0.00     0.163 HD
BRANCH  46  49
HETATM   49  C14 UNL     1      98.111  14.111   8.471  1.00  0.00     0.118 A 
HETATM   50  C15 UNL     1      97.378  12.997   8.884  1.00  0.00     0.061 A 
HETATM   51  C16 UNL     1      97.923  12.172   9.830  1.00  0.00     0.025 A 
HETATM   52  C17 UNL     1      97.158  10.969  10.291  1.00  0.00     0.068 C 
HETATM   53  N10 UNL     1      99.134  12.442  10.338  1.00  0.00    -0.196 N 
HETATM   54  C18 UNL     1      99.836  13.525   9.931  1.00  0.00     0.676 A 
ATOM     55  H10 UNL     1      99.533  11.822  11.043  1.00  0.00     0.184 HD
HETATM   56  N12 UNL     1      99.311  14.339   9.005  1.00  0.00    -0.186 N 
ATOM     57  H12 UNL     1      99.843  15.154   8.701  1.00  0.00     0.184 HD
BRANCH  54  58
HETATM   58  N11 UNL     1     101.000  13.787  10.421  1.00  0.00    -0.234 N 
ATOM     59 2H11 UNL     1     101.835  13.512   9.905  1.00  0.00     0.174 HD
ATOM     60 1H11 UNL     1     101.099  14.267  11.315  1.00  0.00     0.174 HD
ENDBRANCH  54  58
ENDBRANCH  46  49
ENDBRANCH  44  45
ENDBRANCH   5  44
TORSDOF 14
ENDMDL
MODEL 3
REMARK VINA RESULT: -10.801855557      1.444      1.854
REMARK  14 active torsions:
REMARK  status: ('A' for Active; 'I' for Inactive)
REMARK    1  A    between atoms: C2_2  and  C3_4 
REMARK    2  A    between atoms: C3_4  and  N1_5 
REMARK    3  A    between atoms: C7_13  and  N3_14 
REMARK    4  A    between atoms: N5_20  and  C9_21 
REMARK    5  A    between atoms: C9_21  and  C10_22 
REMARK    6  A    between atoms: C10_22  and  N6_23 
REMARK    7  A    between atoms: C11_27  and  C12_28 
REMARK    8  A    between atoms: C12_28  and  N9_29 
REMARK       I    between atoms: N9_29  and  C13_31 
REMARK    9  A    between atoms: C13_31  and  C14_33 
REMARK   10  A    between atoms: C18_39  and  N11_40 
REMARK   11  A    between atoms: C19_45  and  N13_46 
REMARK   12  A    between atoms: C21_48  and  C22_49 
REMARK   13  A    between atoms: C22_49  and  O5_50 
REMARK   14  A    between atoms: C22_49  and  O6_52 
ROOT
HETATM    1  N6  UNL     1      95.385  20.260   7.065  1.00  0.00    -0.257 N 
HETATM    2  N7  UNL     1      96.423  20.676   7.811  1.00  0.00    -0.018 NA
HETATM    3  N8  UNL     1      97.469  19.888   7.622  1.00  0.00    -0.283 N 
ATOM      4  H8  UNL     1      98.378  19.990   8.073  1.00  0.00     0.184 HD
HETATM    5  C11 UNL     1      97.138  18.935   6.742  1.00  0.00     0.086 A 
HETATM    6  C19 UNL     1      95.808  19.197   6.405  1.00  0.00     0.145 A 
ENDROOT
BRANCH   1   7
HETATM    7  C10 UNL     1      94.107  20.873   7.031  1.00  0.00     0.170 C 
BRANCH   7   8
HETATM    8  C9  UNL     1      94.042  22.246   7.676  1.00  0.00     0.172 C 
BRANCH   8   9
HETATM    9  N5  UNL     1      92.745  22.468   8.274  1.00  0.00    -0.268 N 
HETATM   10  N1  UNL     1      92.344  22.173   9.479  1.00  0.00    -0.246 N 
HETATM   11  C4  UNL     1      91.058  22.559   9.663  1.00  0.00     0.282 A 
HETATM   12  O2  UNL     1      90.346  22.438  10.690  1.00  0.00    -0.265 OA
HETATM   13  C5  UNL     1      90.626  23.134   8.491  1.00  0.00     0.148 A 
HETATM   14  C6  UNL     1      89.423  23.702   8.085  1.00  0.00     0.279 A 
HETATM   15  C8  UNL     1      91.707  23.061   7.640  1.00  0.00     0.159 A 
HETATM   16  O3  UNL     1      88.457  23.744   8.910  1.00  0.00    -0.266 OA
HETATM   17  N2  UNL     1      89.329  24.180   6.848  1.00  0.00    -0.155 N 
HETATM   18  C7  UNL     1      90.385  24.106   6.024  1.00  0.00     0.680 A 
ATOM     19  H2  UNL     1      88.457  24.602   6.528  1.00  0.00     0.187 HD
HETATM   20  N4  UNL     1      91.565  23.553   6.413  1.00  0.00    -0.174 N 
ATOM     21  H4  UNL     1      92.347  23.514   5.758  1.00  0.00     0.186 HD
BRANCH  10  22
HETATM   22  C3  UNL     1      93.099  21.539  10.527  1.00  0.00     0.230 C 
BRANCH  22  23
HETATM   23  C2  UNL     1      92.691  20.137  10.742  1.00  0.00     0.142 C 
HETATM   24  C1  UNL     1      91.915  19.354   9.737  1.00  0.00     0.093 C 
HETATM   25  O1  UNL     1      92.993  19.582  11.778  1.00  0.00    -0.297 OA
ENDBRANCH  22  23
ENDBRANCH  10  22
BRANCH  18  26
HETATM   26  N3  UNL     1      90.261  24.580   4.831  1.00  0.00    -0.234 N 
ATOM     27  H32 UNL     1      89.779  24.034   4.116  1.00  0.00     0.174 HD
ATOM     28  H31 UNL     1      90.655  25.500   4.634  1.00  0.00     0.174 HD
ENDBRANCH  18  26
ENDBRANCH   8   9
ENDBRANCH   7   8
ENDBRANCH   1   7
BRANCH   6  29
HETATM   29  N13 UNL     1      95.118  18.377   5.478  1.00  0.00    -0.345 N 
HETATM   30  C20 UNL     1      94.539  17.148   5.937  1.00  0.00     0.162 C 
HETATM   31  C21 UNL     1      93.541  16.527   5.038  1.00  0.00     0.197 C 
HETATM   32  O7  UNL     1      93.226  17.147   3.879  1.00  0.00    -0.347 OA
HETATM   33  C23 UNL     1      93.428  18.494   3.865  1.00  0.00     0.291 C 
HETATM   34  O8  UNL     1      93.289  19.099   2.631  1.00  0.00    -0.351 OA
HETATM   35  C26 UNL     1      94.946  18.675   4.084  1.00  0.00     0.213 C 
HETATM   36  C24 UNL     1      93.975  20.333   2.738  1.00  0.00     0.251 C 
HETATM   37  C25 UNL     1      95.099  20.063   3.680  1.00  0.00     0.177 C 
HETATM   38  O9  UNL     1      95.930  20.855   4.006  1.00  0.00    -0.293 OA
BRANCH  31  39
HETATM   39  C22 UNL     1      93.926  15.079   4.684  1.00  0.00     0.284 C 
BRANCH  39  40
HETATM   40  O5  UNL     1      94.398  14.413   5.816  1.00  0.00    -0.369 OA
ATOM     41  H5  UNL     1      94.889  15.010   6.369  1.00  0.00     0.212 HD
ENDBRANCH  39  40
BRANCH  39  42
HETATM   42  O6  UNL     1      94.888  15.050   3.677  1.00  0.00    -0.369 OA
ATOM     43  H6  UNL     1      94.715  14.347   3.061  1.00  0.00     0.212 HD
ENDBRANCH  39  42
ENDBRANCH  31  39
ENDBRANCH   6  29
BRANCH   5  44
HETATM   44  C12 UNL     1      97.998  17.854   6.241  1.00  0.00     0.185 C 
BRANCH  44  45
HETATM   45  N9  UNL     1      97.988  16.706   7.159  1.00  0.00    -0.350 N 
HETATM   46  C13 UNL     1      97.630  15.419   6.741  1.00  0.00     0.269 C 
HETATM   47  O4  UNL     1      97.303  15.192   5.557  1.00  0.00    -0.266 OA
ATOM     48  H9  UNL     1      98.250  16.852   8.133  1.00  0.00     0.163 HD
BRANCH  46  49
HETATM   49  C14 UNL     1      97.637  14.322   7.694  1.00  0.00     0.118 A 
HETATM   50  C15 UNL     1      98.706  14.143   8.573  1.00  0.00     0.061 A 
HETATM   51  C16 UNL     1      98.661  13.090   9.448  1.00  0.00     0.025 A 
HETATM   52  C17 UNL     1      99.796  12.875  10.403  1.00  0.00     0.068 C 
HETATM   53  N10 UNL     1      97.607  12.262   9.447  1.00  0.00    -0.196 N 
HETATM   54  C18 UNL     1      96.577  12.445   8.589  1.00  0.00     0.676 A 
ATOM     55  H10 UNL     1      97.582  11.481  10.102  1.00  0.00     0.184 HD
HETATM   56  N12 UNL     1      96.611  13.472   7.730  1.00  0.00    -0.186 N 
ATOM     57  H12 UNL     1      95.832  13.606   7.086  1.00  0.00     0.184 HD
BRANCH  54  58
HETATM   58  N11 UNL     1      95.563  11.647   8.586  1.00  0.00    -0.234 N 
ATOM     59 2H11 UNL     1      94.639  12.008   8.820  1.00  0.00     0.174 HD
ATOM     60 1H11 UNL     1      95.671  10.660   8.352  1.00  0.00     0.174 HD
ENDBRANCH  54  58
ENDBRANCH  46  49
ENDBRANCH  44  45
ENDBRANCH   5  44
TORSDOF 14
ENDMDL
MODEL 4
REMARK VINA RESULT: -10.175367959      1.223      1.506
REMARK  14 active torsions:
REMARK  status: ('A' for Active; 'I' for Inactive)
REMARK    1  A    between atoms: C2_2  and  C3_4 
REMARK    2  A    between atoms: C3_4  and  N1_5 
REMARK    3  A    between atoms: C7_13  and  N3_14 
REMARK    4  A    between atoms: N5_20  and  C9_21 
REMARK    5  A    between atoms: C9_21  and  C10_22 
REMARK    6  A    between atoms: C10_22  and  N6_23 
REMARK    7  A    between atoms: C11_27  and  C12_28 
REMARK    8  A    between atoms: C12_28  and  N9_29 
REMARK       I    between atoms: N9_29  and  C13_31 
REMARK    9  A    between atoms: C13_31  and  C14_33 
REMARK   10  A    between atoms: C18_39  and  N11_40 
REMARK   11  A    between atoms: C19_45  and  N13_46 
REMARK   12  A    between atoms: C21_48  and  C22_49 
REMARK   13  A    between atoms: C22_49  and  O5_50 
REMARK   14  A    between atoms: C22_49  and  O6_52 
ROOT
HETATM    1  N6  UNL     1      94.649  19.088   7.309  1.00  0.00    -0.257 N 
HETATM    2  N7  UNL     1      95.562  19.077   8.296  1.00  0.00    -0.018 NA
HETATM    3  N8  UNL     1      96.506  18.187   8.038  1.00  0.00    -0.283 N 
ATOM      4  H8  UNL     1      97.310  17.986   8.632  1.00  0.00     0.184 HD
HETATM    5  C11 UNL     1      96.231  17.593   6.870  1.00  0.00     0.086 A 
HETATM    6  C19 UNL     1      95.046  18.185   6.431  1.00  0.00     0.145 A 
ENDROOT
BRANCH   1   7
HETATM    7  C10 UNL     1      93.501  19.919   7.268  1.00  0.00     0.170 C 
BRANCH   7   8
HETATM    8  C9  UNL     1      93.775  21.394   7.503  1.00  0.00     0.172 C 
BRANCH   8   9
HETATM    9  N5  UNL     1      92.682  22.007   8.224  1.00  0.00    -0.268 N 
HETATM   10  N1  UNL     1      92.373  21.891   9.485  1.00  0.00    -0.246 N 
HETATM   11  C4  UNL     1      91.284  22.640   9.783  1.00  0.00     0.282 A 
HETATM   12  O2  UNL     1      90.706  22.773  10.889  1.00  0.00    -0.265 OA
HETATM   13  C5  UNL     1      90.884  23.267   8.626  1.00  0.00     0.148 A 
HETATM   14  C6  UNL     1      89.848  24.142   8.315  1.00  0.00     0.279 A 
HETATM   15  C8  UNL     1      91.780  22.849   7.667  1.00  0.00     0.159 A 
HETATM   16  O3  UNL     1      89.049  24.496   9.237  1.00  0.00    -0.266 OA
HETATM   17  N2  UNL     1      89.734  24.575   7.064  1.00  0.00    -0.155 N 
HETATM   18  C7  UNL     1      90.610  24.164   6.134  1.00  0.00     0.680 A 
ATOM     19  H2  UNL     1      88.983  25.217   6.811  1.00  0.00     0.187 HD
HETATM   20  N4  UNL     1      91.626  23.309   6.429  1.00  0.00    -0.174 N 
ATOM     21  H4  UNL     1      92.273  23.018   5.696  1.00  0.00     0.186 HD
BRANCH  10  22
HETATM   22  C3  UNL     1      93.048  21.109  10.488  1.00  0.00     0.230 C 
BRANCH  22  23
HETATM   23  C2  UNL     1      92.394  19.806  10.717  1.00  0.00     0.142 C 
HETATM   24  C1  UNL     1      91.259  19.310   9.884  1.00  0.00     0.093 C 
HETATM   25  O1  UNL     1      92.785  19.095  11.618  1.00  0.00    -0.297 OA
ENDBRANCH  22  23
ENDBRANCH  10  22
BRANCH  18  26
HETATM   26  N3  UNL     1      90.471  24.603   4.929  1.00  0.00    -0.234 N 
ATOM     27  H32 UNL     1      89.811  25.357   4.737  1.00  0.00     0.174 HD
ATOM     28  H31 UNL     1      91.034  24.177   4.193  1.00  0.00     0.174 HD
ENDBRANCH  18  26
ENDBRANCH   8   9
ENDBRANCH   7   8
ENDBRANCH   1   7
BRANCH   6  29
HETATM   29  N13 UNL     1      94.451  17.798   5.204  1.00  0.00    -0.345 N 
HETATM   30  C20 UNL     1      93.567  16.668   5.189  1.00  0.00     0.162 C 
HETATM   31  C21 UNL     1      92.708  16.534   3.992  1.00  0.00     0.197 C 
HETATM   32  O7  UNL     1      92.787  17.469   3.019  1.00  0.00    -0.347 OA
HETATM   33  C23 UNL     1      93.229  18.692   3.422  1.00  0.00     0.291 C 
HETATM   34  O8  UNL     1      93.491  19.590   2.405  1.00  0.00    -0.351 OA
HETATM   35  C26 UNL     1      94.662  18.451   3.943  1.00  0.00     0.213 C 
HETATM   36  C24 UNL     1      94.347  20.564   2.973  1.00  0.00     0.251 C 
HETATM   37  C25 UNL     1      95.155  19.818   3.980  1.00  0.00     0.177 C 
HETATM   38  O9  UNL     1      96.018  20.290   4.656  1.00  0.00    -0.293 OA
BRANCH  31  39
HETATM   39  C22 UNL     1      92.893  15.164   3.316  1.00  0.00     0.284 C 
BRANCH  39  40
HETATM   40  O5  UNL     1      93.825  14.399   4.020  1.00  0.00    -0.369 OA
ATOM     41  H5  UNL     1      93.454  14.101   4.842  1.00  0.00     0.212 HD
ENDBRANCH  39  40
BRANCH  39  42
HETATM   42  O6  UNL     1      93.298  15.310   1.992  1.00  0.00    -0.369 OA
ATOM     43  H6  UNL     1      93.716  16.153   1.854  1.00  0.00     0.212 HD
ENDBRANCH  39  42
ENDBRANCH  31  39
ENDBRANCH   6  29
BRANCH   5  44
HETATM   44  C12 UNL     1      97.017  16.545   6.203  1.00  0.00     0.185 C 
BRANCH  44  45
HETATM   45  N9  UNL     1      96.755  15.229   6.801  1.00  0.00    -0.350 N 
HETATM   46  C13 UNL     1      97.470  14.754   7.906  1.00  0.00     0.269 C 
HETATM   47  O4  UNL     1      98.370  15.439   8.435  1.00  0.00    -0.266 OA
ATOM     48  H9  UNL     1      96.026  14.641   6.396  1.00  0.00     0.163 HD
BRANCH  46  49
HETATM   49  C14 UNL     1      97.166  13.442   8.454  1.00  0.00     0.118 A 
HETATM   50  C15 UNL     1      96.069  12.711   7.997  1.00  0.00     0.061 A 
HETATM   51  C16 UNL     1      95.828  11.482   8.550  1.00  0.00     0.025 A 
HETATM   52  C17 UNL     1      94.657  10.675   8.078  1.00  0.00     0.068 C 
HETATM   53  N10 UNL     1      96.638  11.008   9.508  1.00  0.00    -0.196 N 
HETATM   54  C18 UNL     1      97.699  11.727   9.944  1.00  0.00     0.676 A 
ATOM     55  H10 UNL     1      96.451  10.092   9.915  1.00  0.00     0.184 HD
HETATM   56  N12 UNL     1      97.943  12.930   9.408  1.00  0.00    -0.186 N 
ATOM     57  H12 UNL     1      98.743  13.467   9.739  1.00  0.00     0.184 HD
BRANCH  54  58
HETATM   58  N11 UNL     1      98.477  11.272  10.866  1.00  0.00    -0.234 N 
ATOM     59 2H11 UNL     1      99.266  10.678  10.611  1.00  0.00     0.174 HD
ATOM     60 1H11 UNL     1      98.317  11.497  11.848  1.00  0.00     0.174 HD
ENDBRANCH  54  58
ENDBRANCH  46  49
ENDBRANCH  44  45
ENDBRANCH   5  44
TORSDOF 14
ENDMDL
MODEL 5
REMARK VINA RESULT: -10.123337597      0.994      2.248
REMARK  14 active torsions:
REMARK  status: ('A' for Active; 'I' for Inactive)
REMARK    1  A    between atoms: C2_2  and  C3_4 
REMARK    2  A    between atoms: C3_4  and  N1_5 
REMARK    3  A    between atoms: C7_13  and  N3_14 
REMARK    4  A    between atoms: N5_20  and  C9_21 
REMARK    5  A    between atoms: C9_21  and  C10_22 
REMARK    6  A    between atoms: C10_22  and  N6_23 
REMARK    7  A    between atoms: C11_27  and  C12_28 
REMARK    8  A    between atoms: C12_28  and  N9_29 
REMARK       I    between atoms: N9_29  and  C13_31 
REMARK    9  A    between atoms: C13_31  and  C14_33 
REMARK   10  A    between atoms: C18_39  and  N11_40 
REMARK   11  A    between atoms: C19_45  and  N13_46 
REMARK   12  A    between atoms: C21_48  and  C22_49 
REMARK   13  A    between atoms: C22_49  and  O5_50 
REMARK   14  A    between atoms: C22_49  and  O6_52 
ROOT
HETATM    1  N6  UNL     1      94.494  19.518   6.883  1.00  0.00    -0.257 N 
HETATM    2  N7  UNL     1      95.167  19.344   8.034  1.00  0.00    -0.018 NA
HETATM    3  N8  UNL     1      95.826  18.197   8.012  1.00  0.00    -0.283 N 
ATOM      4  H8  UNL     1      96.410  17.833   8.764  1.00  0.00     0.184 HD
HETATM    5  C11 UNL     1      95.599  17.593   6.839  1.00  0.00     0.086 A 
HETATM    6  C19 UNL     1      94.750  18.455   6.143  1.00  0.00     0.145 A 
ENDROOT
BRANCH   1   7
HETATM    7  C10 UNL     1      93.679  20.637   6.575  1.00  0.00     0.170 C 
BRANCH   7   8
HETATM    8  C9  UNL     1      93.950  21.872   7.416  1.00  0.00     0.172 C 
BRANCH   8   9
HETATM    9  N5  UNL     1      92.752  22.289   8.110  1.00  0.00    -0.268 N 
HETATM   10  N1  UNL     1      92.428  22.102   9.359  1.00  0.00    -0.246 N 
HETATM   11  C4  UNL     1      91.225  22.662   9.631  1.00  0.00     0.282 A 
HETATM   12  O2  UNL     1      90.601  22.679  10.719  1.00  0.00    -0.265 OA
HETATM   13  C5  UNL     1      90.765  23.239   8.471  1.00  0.00     0.148 A 
HETATM   14  C6  UNL     1      89.612  23.943   8.138  1.00  0.00     0.279 A 
HETATM   15  C8  UNL     1      91.745  22.987   7.536  1.00  0.00     0.159 A 
HETATM   16  O3  UNL     1      88.740  24.148   9.039  1.00  0.00    -0.266 OA
HETATM   17  N2  UNL     1      89.468  24.377   6.890  1.00  0.00    -0.155 N 
HETATM   18  C7  UNL     1      90.426  24.129   5.984  1.00  0.00     0.680 A 
ATOM     19  H2  UNL     1      88.632  24.896   6.622  1.00  0.00     0.187 HD
HETATM   20  N4  UNL     1      91.556  23.440   6.300  1.00  0.00    -0.174 N 
ATOM     21  H4  UNL     1      92.264  23.271   5.584  1.00  0.00     0.186 HD
BRANCH  10  22
HETATM   22  C3  UNL     1      93.189  21.418  10.372  1.00  0.00     0.230 C 
BRANCH  22  23
HETATM   23  C2  UNL     1      92.630  20.090  10.692  1.00  0.00     0.142 C 
HETATM   24  C1  UNL     1      91.681  19.371   9.793  1.00  0.00     0.093 C 
HETATM   25  O1  UNL     1      92.946  19.546  11.729  1.00  0.00    -0.297 OA
ENDBRANCH  22  23
ENDBRANCH  10  22
BRANCH  18  26
HETATM   26  N3  UNL     1      90.255  24.563   4.782  1.00  0.00    -0.234 N 
ATOM     27  H32 UNL     1      91.052  24.631   4.149  1.00  0.00     0.174 HD
ATOM     28  H31 UNL     1      89.313  24.830   4.494  1.00  0.00     0.174 HD
ENDBRANCH  18  26
ENDBRANCH   8   9
ENDBRANCH   7   8
ENDBRANCH   1   7
BRANCH   6  29
HETATM   29  N13 UNL     1      94.297  18.134   4.839  1.00  0.00    -0.345 N 
HETATM   30  C20 UNL     1      95.256  18.034   3.778  1.00  0.00     0.162 C 
HETATM   31  C21 UNL     1      94.793  17.353   2.547  1.00  0.00     0.197 C 
HETATM   32  O7  UNL     1      93.535  16.860   2.505  1.00  0.00    -0.347 OA
HETATM   33  C23 UNL     1      92.987  16.556   3.714  1.00  0.00     0.291 C 
HETATM   34  O8  UNL     1      91.644  16.234   3.690  1.00  0.00    -0.351 OA
HETATM   35  C26 UNL     1      92.928  17.897   4.477  1.00  0.00     0.213 C 
HETATM   36  C24 UNL     1      91.188  16.418   5.017  1.00  0.00     0.251 C 
HETATM   37  C25 UNL     1      92.012  17.542   5.549  1.00  0.00     0.177 C 
HETATM   38  O9  UNL     1      91.906  18.018   6.639  1.00  0.00    -0.293 OA
BRANCH  31  39
HETATM   39  C22 UNL     1      94.968  18.248   1.308  1.00  0.00     0.284 C 
BRANCH  39  40
HETATM   40  O5  UNL     1      94.476  17.603   0.172  1.00  0.00    -0.369 OA
ATOM     41  H5  UNL     1      93.851  18.159  -0.278  1.00  0.00     0.212 HD
ENDBRANCH  39  40
BRANCH  39  42
HETATM   42  O6  UNL     1      96.305  18.589   1.122  1.00  0.00    -0.369 OA
ATOM     43  H6  UNL     1      96.749  17.947   0.581  1.00  0.00     0.212 HD
ENDBRANCH  39  42
ENDBRANCH  31  39
ENDBRANCH   6  29
BRANCH   5  44
HETATM   44  C12 UNL     1      96.137  16.301   6.390  1.00  0.00     0.185 C 
BRANCH  44  45
HETATM   45  N9  UNL     1      96.686  15.538   7.520  1.00  0.00    -0.350 N 
HETATM   46  C13 UNL     1      97.587  14.482   7.342  1.00  0.00     0.269 C 
HETATM   47  O4  UNL     1      97.967  14.143   6.201  1.00  0.00    -0.266 OA
ATOM     48  H9  UNL     1      96.400  15.787   8.467  1.00  0.00     0.163 HD
BRANCH  46  49
HETATM   49  C14 UNL     1      98.096  13.764   8.498  1.00  0.00     0.118 A 
HETATM   50  C15 UNL     1      97.341  12.762   9.109  1.00  0.00     0.061 A 
HETATM   51  C16 UNL     1      97.868  12.119  10.197  1.00  0.00     0.025 A 
HETATM   52  C17 UNL     1      97.079  11.039  10.872  1.00  0.00     0.068 C 
HETATM   53  N10 UNL     1      99.083  12.458  10.651  1.00  0.00    -0.196 N 
HETATM   54  C18 UNL     1      99.806  13.432  10.051  1.00  0.00     0.676 A 
ATOM     55  H10 UNL     1      99.469  11.974  11.462  1.00  0.00     0.184 HD
HETATM   56  N12 UNL     1      99.299  14.066   8.986  1.00  0.00    -0.186 N 
ATOM     57  H12 UNL     1      99.848  14.799   8.537  1.00  0.00     0.184 HD
BRANCH  54  58
HETATM   58  N11 UNL     1     100.975  13.759  10.489  1.00  0.00    -0.234 N 
ATOM     59 2H11 UNL     1     101.124  14.692  10.873  1.00  0.00     0.174 HD
ATOM     60 1H11 UNL     1     101.752  13.100  10.459  1.00  0.00     0.174 HD
ENDBRANCH  54  58
ENDBRANCH  46  49
ENDBRANCH  44  45
ENDBRANCH   5  44
TORSDOF 14
ENDMDL
