MODEL 1
REMARK VINA RESULT: -8.270791308      0.000      0.000
REMARK  16 active torsions:
REMARK  status: ('A' for Active; 'I' for Inactive)
REMARK    1  A    between atoms: C2_2  and  C3_3 
REMARK    2  A    between atoms: C3_3  and  O1_4 
REMARK    3  A    between atoms: O1_4  and  S1_5 
REMARK    4  A    between atoms: S1_5  and  O4_8 
REMARK    5  A    between atoms: O4_8  and  C4_9 
REMARK    6  A    between atoms: C8_18  and  C9_19 
REMARK    7  A    between atoms: C9_19  and  O6_21 
REMARK    8  A    between atoms: C11_23  and  C12_24 
REMARK    9  A    between atoms: C17_31  and  O9_32 
REMARK   10  A    between atoms: C19_35  and  C20_36 
REMARK   11  A    between atoms: C20_36  and  O12_38 
REMARK   12  A    between atoms: O12_38  and  C21_39 
REMARK   13  A    between atoms: C21_39  and  C22_40 
REMARK   14  A    between atoms: C23_43  and  N4_44 
REMARK   15  A    between atoms: N5_47  and  N6_48 
REMARK   16  A    between atoms: C24_51  and  N7_52 
ROOT
HETATM    1  C4  UNL     1      95.361  19.156   5.947  1.00  0.00     0.381 C 
HETATM    2  N1  UNL     1      94.541  18.649   6.997  1.00  0.00     0.011 N 
ATOM      3  H11 UNL     1      94.168  19.253   7.730  1.00  0.00     0.284 HD
ATOM      4  H12 UNL     1      94.915  18.054   7.735  1.00  0.00     0.284 HD
HETATM    5  C5  UNL     1      93.731  18.141   5.971  1.00  0.00     0.502 C 
HETATM    6  C6  UNL     1      94.054  19.450   5.276  1.00  0.00     0.258 C 
HETATM    7  O5  UNL     1      93.523  20.257   4.576  1.00  0.00    -0.288 OA
HETATM    8  N2  UNL     1      94.568  17.221   5.160  1.00  0.00     0.180 N 
HETATM    9  C7  UNL     1      93.875  17.148   3.945  1.00  0.00     0.294 C 
HETATM   10  C8  UNL     1      94.504  16.396   2.821  1.00  0.00     0.040 C 
HETATM   11  C11 UNL     1      93.605  16.441   1.583  1.00  0.00     0.123 C 
HETATM   12  C13 UNL     1      94.614  16.494   0.486  1.00  0.00    -0.008 C 
HETATM   13  C14 UNL     1      95.773  16.938   0.942  1.00  0.00    -0.077 C 
HETATM   14  C15 UNL     1      96.926  17.063  -0.024  1.00  0.00     0.044 C 
HETATM   15  C16 UNL     1      95.611  17.218   2.342  1.00  0.00     0.083 C 
HETATM   16  C17 UNL     1      96.818  17.300   3.208  1.00  0.00     0.272 C 
HETATM   17  O10 UNL     1      96.544  18.214   4.208  1.00  0.00    -0.309 OA
HETATM   18  C19 UNL     1      95.826  17.822   5.281  1.00  0.00     0.421 C 
ENDROOT
BRANCH  18  19
HETATM   19  C20 UNL     1      96.733  17.259   6.326  1.00  0.00     0.332 C 
HETATM   20  O11 UNL     1      97.894  17.733   6.389  1.00  0.00    -0.259 OA
BRANCH  19  21
HETATM   21  O12 UNL     1      96.425  16.274   7.218  1.00  0.00    -0.310 OA
BRANCH  21  22
HETATM   22  C21 UNL     1      96.538  14.902   7.074  1.00  0.00     0.256 C 
BRANCH  22  23
HETATM   23  C22 UNL     1      97.436  14.246   8.035  1.00  0.00     0.137 A 
HETATM   24  N3  UNL     1      98.628  14.704   8.448  1.00  0.00    -0.176 N 
HETATM   25  C23 UNL     1      99.404  14.051   9.331  1.00  0.00     0.713 A 
ATOM     26  H3  UNL     1      98.962  15.592   8.072  1.00  0.00     0.185 HD
HETATM   27  N5  UNL     1      98.999  12.871   9.850  1.00  0.00     0.083 N 
HETATM   28  C24 UNL     1      97.807  12.396   9.448  1.00  0.00     0.713 A 
HETATM   29  N8  UNL     1      97.043  13.063   8.563  1.00  0.00    -0.176 N 
ATOM     30  H8  UNL     1      96.145  12.668   8.284  1.00  0.00     0.185 HD
BRANCH  25  31
HETATM   31  N4  UNL     1     100.546  14.490   9.725  1.00  0.00    -0.232 N 
ATOM     32  H42 UNL     1     100.730  15.482   9.575  1.00  0.00     0.174 HD
ATOM     33  H41 UNL     1     101.249  13.899  10.168  1.00  0.00     0.174 HD
ENDBRANCH  25  31
BRANCH  27  34
HETATM   34  N6  UNL     1      99.803  12.187  10.770  1.00  0.00    -0.309 N 
ATOM     35  H62 UNL     1     100.558  11.568  10.478  1.00  0.00     0.178 HD
ATOM     36  H61 UNL     1      99.646  12.295  11.772  1.00  0.00     0.178 HD
ENDBRANCH  27  34
BRANCH  28  37
HETATM   37  N7  UNL     1      97.412  11.262   9.943  1.00  0.00    -0.232 N 
ATOM     38  H72 UNL     1      97.930  10.403   9.754  1.00  0.00     0.174 HD
ATOM     39  H71 UNL     1      96.573  11.266  10.522  1.00  0.00     0.174 HD
ENDBRANCH  28  37
ENDBRANCH  22  23
ENDBRANCH  21  22
ENDBRANCH  19  21
ENDBRANCH  18  19
BRANCH   1  40
HETATM   40  O4  UNL     1      96.273  20.089   6.119  1.00  0.00    -0.199 OA
BRANCH  40  41
HETATM   41  S1  UNL     1      95.803  21.313   7.129  1.00  0.00     0.405 S 
HETATM   42  O2  UNL     1      96.991  21.805   7.913  1.00  0.00    -0.169 OA
HETATM   43  O3  UNL     1      95.308  22.464   6.277  1.00  0.00    -0.169 OA
BRANCH  41  44
HETATM   44  O1  UNL     1      94.580  20.796   8.173  1.00  0.00    -0.254 OA
BRANCH  44  45
HETATM   45  C3  UNL     1      93.773  21.875   8.486  1.00  0.00     0.192 C 
BRANCH  45  46
HETATM   46  C2  UNL     1      92.385  21.654   7.896  1.00  0.00     0.023 C 
HETATM   47  C1  UNL     1      92.003  22.913   7.161  1.00  0.00     0.007 C 
ENDBRANCH  45  46
ENDBRANCH  44  45
ENDBRANCH  41  44
ENDBRANCH  40  41
ENDBRANCH   1  40
BRANCH  16  48
HETATM   48  O9  UNL     1      97.366  16.139   3.610  1.00  0.00    -0.365 OA
HETATM   49  C18 UNL     1      98.691  15.904   3.412  1.00  0.00     0.204 C 
ENDBRANCH  16  48
BRANCH  10  50
HETATM   50  C9  UNL     1      94.643  14.980   3.169  1.00  0.00     0.126 C 
HETATM   51  C10 UNL     1      93.417  14.158   3.313  1.00  0.00     0.040 C 
BRANCH  50  52
HETATM   52  O6  UNL     1      95.630  14.250   2.526  1.00  0.00    -0.395 OA
ATOM     53  H6  UNL     1      95.850  13.396   2.879  1.00  0.00     0.210 HD
ENDBRANCH  50  52
ENDBRANCH  10  50
BRANCH  11  54
HETATM   54  C12 UNL     1      92.722  17.619   1.563  1.00  0.00     0.181 C 
HETATM   55  O7  UNL     1      93.166  18.784   1.362  1.00  0.00    -0.647 OA
HETATM   56  O8  UNL     1      91.360  17.490   1.766  1.00  0.00    -0.647 OA
ENDBRANCH  11  54
TORSDOF 16
ENDMDL
MODEL 2
REMARK VINA RESULT: -8.266414932      0.262      1.286
REMARK  16 active torsions:
REMARK  status: ('A' for Active; 'I' for Inactive)
REMARK    1  A    between atoms: C2_2  and  C3_3 
REMARK    2  A    between atoms: C3_3  and  O1_4 
REMARK    3  A    between atoms: O1_4  and  S1_5 
REMARK    4  A    between atoms: S1_5  and  O4_8 
REMARK    5  A    between atoms: O4_8  and  C4_9 
REMARK    6  A    between atoms: C8_18  and  C9_19 
REMARK    7  A    between atoms: C9_19  and  O6_21 
REMARK    8  A    between atoms: C11_23  and  C12_24 
REMARK    9  A    between atoms: C17_31  and  O9_32 
REMARK   10  A    between atoms: C19_35  and  C20_36 
REMARK   11  A    between atoms: C20_36  and  O12_38 
REMARK   12  A    between atoms: O12_38  and  C21_39 
REMARK   13  A    between atoms: C21_39  and  C22_40 
REMARK   14  A    between atoms: C23_43  and  N4_44 
REMARK   15  A    between atoms: N5_47  and  N6_48 
REMARK   16  A    between atoms: C24_51  and  N7_52 
ROOT
HETATM    1  C4  UNL     1      95.323  19.149   6.194  1.00  0.00     0.381 C 
HETATM    2  N1  UNL     1      94.424  18.680   7.196  1.00  0.00     0.011 N 
ATOM      3  H11 UNL     1      94.044  19.300   7.912  1.00  0.00     0.284 HD
ATOM      4  H12 UNL     1      94.729  18.065   7.950  1.00  0.00     0.284 HD
HETATM    5  C5  UNL     1      93.647  18.214   6.126  1.00  0.00     0.502 C 
HETATM    6  C6  UNL     1      94.069  19.508   5.456  1.00  0.00     0.258 C 
HETATM    7  O5  UNL     1      93.617  20.342   4.733  1.00  0.00    -0.288 OA
HETATM    8  N2  UNL     1      94.479  17.256   5.357  1.00  0.00     0.180 N 
HETATM    9  C7  UNL     1      93.849  17.220   4.106  1.00  0.00     0.294 C 
HETATM   10  C8  UNL     1      94.499  16.442   3.013  1.00  0.00     0.040 C 
HETATM   11  C11 UNL     1      93.670  16.534   1.730  1.00  0.00     0.123 C 
HETATM   12  C13 UNL     1      94.738  16.539   0.687  1.00  0.00    -0.008 C 
HETATM   13  C14 UNL     1      95.891  16.924   1.206  1.00  0.00    -0.077 C 
HETATM   14  C15 UNL     1      97.098  16.996   0.304  1.00  0.00     0.044 C 
HETATM   15  C16 UNL     1      95.669  17.209   2.598  1.00  0.00     0.083 C 
HETATM   16  C17 UNL     1      96.831  17.229   3.527  1.00  0.00     0.272 C 
HETATM   17  O10 UNL     1      96.549  18.154   4.515  1.00  0.00    -0.309 OA
HETATM   18  C19 UNL     1      95.757  17.795   5.546  1.00  0.00     0.421 C 
ENDROOT
BRANCH  18  19
HETATM   19  C20 UNL     1      96.579  17.185   6.635  1.00  0.00     0.332 C 
HETATM   20  O11 UNL     1      97.695  17.710   6.869  1.00  0.00    -0.259 OA
BRANCH  19  21
HETATM   21  O12 UNL     1      96.236  16.109   7.400  1.00  0.00    -0.310 OA
BRANCH  21  22
HETATM   22  C21 UNL     1      96.423  14.762   7.142  1.00  0.00     0.256 C 
BRANCH  22  23
HETATM   23  C22 UNL     1      97.284  14.057   8.101  1.00  0.00     0.137 A 
HETATM   24  N3  UNL     1      97.007  12.893   8.711  1.00  0.00    -0.176 N 
HETATM   25  C23 UNL     1      97.842  12.301   9.584  1.00  0.00     0.713 A 
ATOM     26  H3  UNL     1      96.120  12.436   8.501  1.00  0.00     0.185 HD
HETATM   27  N5  UNL     1      99.025  12.876   9.890  1.00  0.00     0.083 N 
HETATM   28  C24 UNL     1      99.319  14.042   9.290  1.00  0.00     0.713 A 
HETATM   29  N8  UNL     1      98.474  14.621   8.418  1.00  0.00    -0.176 N 
ATOM     30  H8  UNL     1      98.735  15.507   7.984  1.00  0.00     0.185 HD
BRANCH  25  31
HETATM   31  N4  UNL     1      97.575  11.187  10.168  1.00  0.00    -0.232 N 
ATOM     32  H42 UNL     1      96.837  11.206  10.872  1.00  0.00     0.174 HD
ATOM     33  H41 UNL     1      98.059  10.316   9.956  1.00  0.00     0.174 HD
ENDBRANCH  25  31
BRANCH  27  34
HETATM   34  N6  UNL     1      99.897  12.263  10.799  1.00  0.00    -0.309 N 
ATOM     35  H62 UNL     1     100.309  12.768  11.583  1.00  0.00     0.178 HD
ATOM     36  H61 UNL     1     100.145  11.279  10.693  1.00  0.00     0.178 HD
ENDBRANCH  27  34
BRANCH  28  37
HETATM   37  N7  UNL     1     100.456  14.600   9.581  1.00  0.00    -0.232 N 
ATOM     38  H72 UNL     1     101.204  14.060  10.018  1.00  0.00     0.174 HD
ATOM     39  H71 UNL     1     100.569  15.588   9.355  1.00  0.00     0.174 HD
ENDBRANCH  28  37
ENDBRANCH  22  23
ENDBRANCH  21  22
ENDBRANCH  19  21
ENDBRANCH  18  19
BRANCH   1  40
HETATM   40  O4  UNL     1      96.269  20.035   6.418  1.00  0.00    -0.199 OA
BRANCH  40  41
HETATM   41  S1  UNL     1      95.779  21.329   7.327  1.00  0.00     0.405 S 
HETATM   42  O2  UNL     1      96.936  21.841   8.143  1.00  0.00    -0.169 OA
HETATM   43  O3  UNL     1      95.359  22.436   6.381  1.00  0.00    -0.169 OA
BRANCH  41  44
HETATM   44  O1  UNL     1      94.489  20.904   8.332  1.00  0.00    -0.254 OA
BRANCH  44  45
HETATM   45  C3  UNL     1      93.690  22.016   8.528  1.00  0.00     0.192 C 
BRANCH  45  46
HETATM   46  C2  UNL     1      92.347  21.798   7.843  1.00  0.00     0.023 C 
HETATM   47  C1  UNL     1      91.966  23.094   7.175  1.00  0.00     0.007 C 
ENDBRANCH  45  46
ENDBRANCH  44  45
ENDBRANCH  41  44
ENDBRANCH  40  41
ENDBRANCH   1  40
BRANCH  16  48
HETATM   48  O9  UNL     1      97.299  16.043   3.951  1.00  0.00    -0.365 OA
HETATM   49  C18 UNL     1      98.627  15.759   3.859  1.00  0.00     0.204 C 
ENDBRANCH  16  48
BRANCH  10  50
HETATM   50  C9  UNL     1      94.550  15.019   3.361  1.00  0.00     0.126 C 
HETATM   51  C10 UNL     1      93.281  14.254   3.417  1.00  0.00     0.040 C 
BRANCH  50  52
HETATM   52  O6  UNL     1      95.544  14.247   2.781  1.00  0.00    -0.395 OA
ATOM     53  H6  UNL     1      96.326  14.077   3.292  1.00  0.00     0.210 HD
ENDBRANCH  50  52
ENDBRANCH  10  50
BRANCH  11  54
HETATM   54  C12 UNL     1      92.848  17.753   1.668  1.00  0.00     0.181 C 
HETATM   55  O7  UNL     1      91.587  17.707   1.625  1.00  0.00    -0.647 OA
HETATM   56  O8  UNL     1      93.434  19.005   1.653  1.00  0.00    -0.647 OA
ENDBRANCH  11  54
TORSDOF 16
ENDMDL
MODEL 3
REMARK VINA RESULT: -8.239179136      0.963      1.589
REMARK  16 active torsions:
REMARK  status: ('A' for Active; 'I' for Inactive)
REMARK    1  A    between atoms: C2_2  and  C3_3 
REMARK    2  A    between atoms: C3_3  and  O1_4 
REMARK    3  A    between atoms: O1_4  and  S1_5 
REMARK    4  A    between atoms: S1_5  and  O4_8 
REMARK    5  A    between atoms: O4_8  and  C4_9 
REMARK    6  A    between atoms: C8_18  and  C9_19 
REMARK    7  A    between atoms: C9_19  and  O6_21 
REMARK    8  A    between atoms: C11_23  and  C12_24 
REMARK    9  A    between atoms: C17_31  and  O9_32 
REMARK   10  A    between atoms: C19_35  and  C20_36 
REMARK   11  A    between atoms: C20_36  and  O12_38 
REMARK   12  A    between atoms: O12_38  and  C21_39 
REMARK   13  A    between atoms: C21_39  and  C22_40 
REMARK   14  A    between atoms: C23_43  and  N4_44 
REMARK   15  A    between atoms: N5_47  and  N6_48 
REMARK   16  A    between atoms: C24_51  and  N7_52 
ROOT
HETATM    1  C4  UNL     1      95.579  18.741   5.648  1.00  0.00     0.381 C 
HETATM    2  N1  UNL     1      95.063  18.029   6.769  1.00  0.00     0.011 N 
ATOM      3  H11 UNL     1      94.750  18.507   7.615  1.00  0.00     0.284 HD
ATOM      4  H12 UNL     1      95.658  17.454   7.364  1.00  0.00     0.284 HD
HETATM    5  C5  UNL     1      94.160  17.466   5.856  1.00  0.00     0.502 C 
HETATM    6  C6  UNL     1      94.139  18.857   5.253  1.00  0.00     0.258 C 
HETATM    7  O5  UNL     1      93.367  19.611   4.744  1.00  0.00    -0.288 OA
HETATM    8  N2  UNL     1      94.956  16.761   4.821  1.00  0.00     0.180 N 
HETATM    9  C7  UNL     1      94.062  16.659   3.746  1.00  0.00     0.294 C 
HETATM   10  C8  UNL     1      94.572  16.108   2.458  1.00  0.00     0.040 C 
HETATM   11  C11 UNL     1      93.457  16.089   1.411  1.00  0.00     0.123 C 
HETATM   12  C13 UNL     1      94.217  16.390   0.163  1.00  0.00    -0.008 C 
HETATM   13  C14 UNL     1      95.359  16.990   0.449  1.00  0.00    -0.077 C 
HETATM   14  C15 UNL     1      96.273  17.378  -0.688  1.00  0.00     0.044 C 
HETATM   15  C16 UNL     1      95.428  17.137   1.877  1.00  0.00     0.083 C 
HETATM   16  C17 UNL     1      96.752  17.360   2.519  1.00  0.00     0.272 C 
HETATM   17  O10 UNL     1      96.537  18.141   3.640  1.00  0.00    -0.309 OA
HETATM   18  C19 UNL     1      96.107  17.557   4.777  1.00  0.00     0.421 C 
ENDROOT
BRANCH  18  19
HETATM   19  C20 UNL     1      97.273  17.082   5.581  1.00  0.00     0.332 C 
HETATM   20  O11 UNL     1      98.377  17.642   5.372  1.00  0.00    -0.259 OA
BRANCH  19  21
HETATM   21  O12 UNL     1      97.258  16.093   6.522  1.00  0.00    -0.310 OA
BRANCH  21  22
HETATM   22  C21 UNL     1      98.096  15.912   7.609  1.00  0.00     0.256 C 
BRANCH  22  23
HETATM   23  C22 UNL     1      97.966  14.615   8.286  1.00  0.00     0.137 A 
HETATM   24  N3  UNL     1      96.884  13.821   8.282  1.00  0.00    -0.176 N 
HETATM   25  C23 UNL     1      96.831  12.642   8.927  1.00  0.00     0.713 A 
ATOM     26  H3  UNL     1      96.061  14.128   7.763  1.00  0.00     0.185 HD
HETATM   27  N5  UNL     1      97.900  12.202   9.627  1.00  0.00     0.083 N 
HETATM   28  C24 UNL     1      98.993  12.984   9.643  1.00  0.00     0.713 A 
HETATM   29  N8  UNL     1      99.030  14.160   8.991  1.00  0.00    -0.176 N 
ATOM     30  H8  UNL     1      99.879  14.724   9.029  1.00  0.00     0.185 HD
BRANCH  25  31
HETATM   31  N4  UNL     1      95.794  11.884   8.923  1.00  0.00    -0.232 N 
ATOM     32  H42 UNL     1      94.942  12.277   8.523  1.00  0.00     0.174 HD
ATOM     33  H41 UNL     1      95.795  10.934   9.293  1.00  0.00     0.174 HD
ENDBRANCH  25  31
BRANCH  27  34
HETATM   34  N6  UNL     1      97.849  10.975  10.300  1.00  0.00    -0.309 N 
ATOM     35  H62 UNL     1      97.765  10.914  11.315  1.00  0.00     0.178 HD
ATOM     36  H61 UNL     1      97.898  10.098   9.780  1.00  0.00     0.178 HD
ENDBRANCH  27  34
BRANCH  28  37
HETATM   37  N7  UNL     1     100.024  12.565  10.314  1.00  0.00    -0.232 N 
ATOM     38  H72 UNL     1     100.776  13.207  10.566  1.00  0.00     0.174 HD
ATOM     39  H71 UNL     1     100.048  11.580  10.577  1.00  0.00     0.174 HD
ENDBRANCH  28  37
ENDBRANCH  22  23
ENDBRANCH  21  22
ENDBRANCH  19  21
ENDBRANCH  18  19
BRANCH   1  40
HETATM   40  O4  UNL     1      96.354  19.801   5.750  1.00  0.00    -0.199 OA
BRANCH  40  41
HETATM   41  S1  UNL     1      96.483  20.396   7.289  1.00  0.00     0.405 S 
HETATM   42  O2  UNL     1      97.298  19.448   8.129  1.00  0.00    -0.169 OA
HETATM   43  O3  UNL     1      97.232  21.711   7.224  1.00  0.00    -0.169 OA
BRANCH  41  44
HETATM   44  O1  UNL     1      94.957  20.630   7.974  1.00  0.00    -0.254 OA
BRANCH  44  45
HETATM   45  C3  UNL     1      94.689  21.985   8.015  1.00  0.00     0.192 C 
BRANCH  45  46
HETATM   46  C2  UNL     1      93.919  22.385   6.762  1.00  0.00     0.023 C 
HETATM   47  C1  UNL     1      92.509  22.709   7.185  1.00  0.00     0.007 C 
ENDBRANCH  45  46
ENDBRANCH  44  45
ENDBRANCH  41  44
ENDBRANCH  40  41
ENDBRANCH   1  40
BRANCH  16  48
HETATM   48  O9  UNL     1      97.537  16.284   2.697  1.00  0.00    -0.365 OA
HETATM   49  C18 UNL     1      98.783  16.248   2.151  1.00  0.00     0.204 C 
ENDBRANCH  16  48
BRANCH  10  50
HETATM   50  C9  UNL     1      94.990  14.714   2.630  1.00  0.00     0.126 C 
HETATM   51  C10 UNL     1      93.961  13.695   2.947  1.00  0.00     0.040 C 
BRANCH  50  52
HETATM   52  O6  UNL     1      95.906  14.198   1.726  1.00  0.00    -0.395 OA
ATOM     53  H6  UNL     1      96.597  13.641   2.065  1.00  0.00     0.210 HD
ENDBRANCH  50  52
ENDBRANCH  10  50
BRANCH  11  54
HETATM   54  C12 UNL     1      92.417  17.098   1.667  1.00  0.00     0.181 C 
HETATM   55  O7  UNL     1      91.353  16.819   2.288  1.00  0.00    -0.647 OA
HETATM   56  O8  UNL     1      92.568  18.401   1.230  1.00  0.00    -0.647 OA
ENDBRANCH  11  54
TORSDOF 16
ENDMDL
MODEL 4
REMARK VINA RESULT: -8.146641405      0.966      1.256
REMARK  16 active torsions:
REMARK  status: ('A' for Active; 'I' for Inactive)
REMARK    1  A    between atoms: C2_2  and  C3_3 
REMARK    2  A    between atoms: C3_3  and  O1_4 
REMARK    3  A    between atoms: O1_4  and  S1_5 
REMARK    4  A    between atoms: S1_5  and  O4_8 
REMARK    5  A    between atoms: O4_8  and  C4_9 
REMARK    6  A    between atoms: C8_18  and  C9_19 
REMARK    7  A    between atoms: C9_19  and  O6_21 
REMARK    8  A    between atoms: C11_23  and  C12_24 
REMARK    9  A    between atoms: C17_31  and  O9_32 
REMARK   10  A    between atoms: C19_35  and  C20_36 
REMARK   11  A    between atoms: C20_36  and  O12_38 
REMARK   12  A    between atoms: O12_38  and  C21_39 
REMARK   13  A    between atoms: C21_39  and  C22_40 
REMARK   14  A    between atoms: C23_43  and  N4_44 
REMARK   15  A    between atoms: N5_47  and  N6_48 
REMARK   16  A    between atoms: C24_51  and  N7_52 
ROOT
HETATM    1  C4  UNL     1      95.596  18.717   5.688  1.00  0.00     0.381 C 
HETATM    2  N1  UNL     1      95.079  18.007   6.810  1.00  0.00     0.011 N 
ATOM      3  H11 UNL     1      94.766  18.487   7.655  1.00  0.00     0.284 HD
ATOM      4  H12 UNL     1      95.673  17.432   7.407  1.00  0.00     0.284 HD
HETATM    5  C5  UNL     1      94.175  17.443   5.898  1.00  0.00     0.502 C 
HETATM    6  C6  UNL     1      94.156  18.834   5.292  1.00  0.00     0.258 C 
HETATM    7  O5  UNL     1      93.385  19.588   4.782  1.00  0.00    -0.288 OA
HETATM    8  N2  UNL     1      94.971  16.736   4.864  1.00  0.00     0.180 N 
HETATM    9  C7  UNL     1      94.077  16.634   3.790  1.00  0.00     0.294 C 
HETATM   10  C8  UNL     1      94.586  16.079   2.503  1.00  0.00     0.040 C 
HETATM   11  C11 UNL     1      93.472  16.060   1.455  1.00  0.00     0.123 C 
HETATM   12  C13 UNL     1      94.232  16.358   0.207  1.00  0.00    -0.008 C 
HETATM   13  C14 UNL     1      95.375  16.957   0.492  1.00  0.00    -0.077 C 
HETATM   14  C15 UNL     1      96.289  17.342  -0.645  1.00  0.00     0.044 C 
HETATM   15  C16 UNL     1      95.444  17.106   1.920  1.00  0.00     0.083 C 
HETATM   16  C17 UNL     1      96.767  17.329   2.562  1.00  0.00     0.272 C 
HETATM   17  O10 UNL     1      96.554  18.112   3.681  1.00  0.00    -0.309 OA
HETATM   18  C19 UNL     1      96.123  17.531   4.819  1.00  0.00     0.421 C 
ENDROOT
BRANCH  18  19
HETATM   19  C20 UNL     1      97.288  17.055   5.625  1.00  0.00     0.332 C 
HETATM   20  O11 UNL     1      98.402  17.581   5.382  1.00  0.00    -0.259 OA
BRANCH  19  21
HETATM   21  O12 UNL     1      97.262  16.101   6.600  1.00  0.00    -0.310 OA
BRANCH  21  22
HETATM   22  C21 UNL     1      98.035  16.004   7.744  1.00  0.00     0.256 C 
BRANCH  22  23
HETATM   23  C22 UNL     1      98.023  14.686   8.394  1.00  0.00     0.137 A 
HETATM   24  N3  UNL     1      99.033  14.131   9.081  1.00  0.00    -0.176 N 
HETATM   25  C23 UNL     1      98.956  12.914   9.651  1.00  0.00     0.713 A 
ATOM     26  H3  UNL     1      99.901  14.657   9.176  1.00  0.00     0.185 HD
HETATM   27  N5  UNL     1      97.824  12.185   9.547  1.00  0.00     0.083 N 
HETATM   28  C24 UNL     1      96.802  12.725   8.861  1.00  0.00     0.713 A 
HETATM   29  N8  UNL     1      96.895  13.943   8.297  1.00  0.00    -0.176 N 
ATOM     30  H8  UNL     1      96.096  14.317   7.785  1.00  0.00     0.185 HD
BRANCH  25  31
HETATM   31  N4  UNL     1      99.924  12.383  10.309  1.00  0.00    -0.232 N 
ATOM     32  H42 UNL     1      99.735  11.485  10.755  1.00  0.00     0.174 HD
ATOM     33  H41 UNL     1     100.844  12.814  10.394  1.00  0.00     0.174 HD
ENDBRANCH  25  31
BRANCH  27  34
HETATM   34  N6  UNL     1      97.740  10.919  10.139  1.00  0.00    -0.309 N 
ATOM     35  H62 UNL     1      97.522  10.794  11.127  1.00  0.00     0.178 HD
ATOM     36  H61 UNL     1      97.898  10.077   9.584  1.00  0.00     0.178 HD
ENDBRANCH  27  34
BRANCH  28  37
HETATM   37  N7  UNL     1      95.711  12.028   8.757  1.00  0.00    -0.232 N 
ATOM     38  H72 UNL     1      95.526  11.251   9.393  1.00  0.00     0.174 HD
ATOM     39  H71 UNL     1      95.052  12.286   8.022  1.00  0.00     0.174 HD
ENDBRANCH  28  37
ENDBRANCH  22  23
ENDBRANCH  21  22
ENDBRANCH  19  21
ENDBRANCH  18  19
BRANCH   1  40
HETATM   40  O4  UNL     1      96.372  19.776   5.788  1.00  0.00    -0.199 OA
BRANCH  40  41
HETATM   41  S1  UNL     1      96.491  20.381   7.324  1.00  0.00     0.405 S 
HETATM   42  O2  UNL     1      97.299  19.439   8.177  1.00  0.00    -0.169 OA
HETATM   43  O3  UNL     1      97.242  21.695   7.256  1.00  0.00    -0.169 OA
BRANCH  41  44
HETATM   44  O1  UNL     1      94.960  20.621   7.997  1.00  0.00    -0.254 OA
BRANCH  44  45
HETATM   45  C3  UNL     1      94.692  21.978   8.025  1.00  0.00     0.192 C 
BRANCH  45  46
HETATM   46  C2  UNL     1      93.894  22.360   6.784  1.00  0.00     0.023 C 
HETATM   47  C1  UNL     1      92.493  22.686   7.234  1.00  0.00     0.007 C 
ENDBRANCH  45  46
ENDBRANCH  44  45
ENDBRANCH  41  44
ENDBRANCH  40  41
ENDBRANCH   1  40
BRANCH  16  48
HETATM   48  O9  UNL     1      97.552  16.252   2.742  1.00  0.00    -0.365 OA
HETATM   49  C18 UNL     1      98.782  16.197   2.162  1.00  0.00     0.204 C 
ENDBRANCH  16  48
BRANCH  10  50
HETATM   50  C9  UNL     1      95.003  14.685   2.677  1.00  0.00     0.126 C 
HETATM   51  C10 UNL     1      93.973  13.670   3.003  1.00  0.00     0.040 C 
BRANCH  50  52
HETATM   52  O6  UNL     1      95.913  14.165   1.770  1.00  0.00    -0.395 OA
ATOM     53  H6  UNL     1      95.594  13.536   1.134  1.00  0.00     0.210 HD
ENDBRANCH  50  52
ENDBRANCH  10  50
BRANCH  11  54
HETATM   54  C12 UNL     1      92.432  17.070   1.709  1.00  0.00     0.181 C 
HETATM   55  O7  UNL     1      91.385  16.803   2.363  1.00  0.00    -0.647 OA
HETATM   56  O8  UNL     1      92.566  18.363   1.235  1.00  0.00    -0.647 OA
ENDBRANCH  11  54
TORSDOF 16
ENDMDL
MODEL 5
REMARK VINA RESULT: -8.023808788      1.639      2.475
REMARK  16 active torsions:
REMARK  status: ('A' for Active; 'I' for Inactive)
REMARK    1  A    between atoms: C2_2  and  C3_3 
REMARK    2  A    between atoms: C3_3  and  O1_4 
REMARK    3  A    between atoms: O1_4  and  S1_5 
REMARK    4  A    between atoms: S1_5  and  O4_8 
REMARK    5  A    between atoms: O4_8  and  C4_9 
REMARK    6  A    between atoms: C8_18  and  C9_19 
REMARK    7  A    between atoms: C9_19  and  O6_21 
REMARK    8  A    between atoms: C11_23  and  C12_24 
REMARK    9  A    between atoms: C17_31  and  O9_32 
REMARK   10  A    between atoms: C19_35  and  C20_36 
REMARK   11  A    between atoms: C20_36  and  O12_38 
REMARK   12  A    between atoms: O12_38  and  C21_39 
REMARK   13  A    between atoms: C21_39  and  C22_40 
REMARK   14  A    between atoms: C23_43  and  N4_44 
REMARK   15  A    between atoms: N5_47  and  N6_48 
REMARK   16  A    between atoms: C24_51  and  N7_52 
ROOT
HETATM    1  C4  UNL     1      95.772  18.052   5.075  1.00  0.00     0.381 C 
HETATM    2  N1  UNL     1      94.402  17.888   5.432  1.00  0.00     0.011 N 
ATOM      3  H11 UNL     1      93.882  18.613   5.927  1.00  0.00     0.284 HD
ATOM      4  H12 UNL     1      94.109  17.238   6.162  1.00  0.00     0.284 HD
HETATM    5  C5  UNL     1      94.193  17.619   4.072  1.00  0.00     0.502 C 
HETATM    6  C6  UNL     1      95.214  18.720   3.855  1.00  0.00     0.258 C 
HETATM    7  O5  UNL     1      95.426  19.622   3.103  1.00  0.00    -0.288 OA
HETATM    8  N2  UNL     1      95.024  16.441   3.719  1.00  0.00     0.180 N 
HETATM    9  C7  UNL     1      95.138  16.539   2.325  1.00  0.00     0.294 C 
HETATM   10  C8  UNL     1      96.031  15.572   1.624  1.00  0.00     0.040 C 
HETATM   11  C11 UNL     1      96.032  15.846   0.119  1.00  0.00     0.123 C 
HETATM   12  C13 UNL     1      97.442  15.519  -0.242  1.00  0.00    -0.008 C 
HETATM   13  C14 UNL     1      98.221  15.586   0.824  1.00  0.00    -0.077 C 
HETATM   14  C15 UNL     1      99.691  15.287   0.662  1.00  0.00     0.044 C 
HETATM   15  C16 UNL     1      97.399  15.969   1.940  1.00  0.00     0.083 C 
HETATM   16  C17 UNL     1      97.882  15.697   3.321  1.00  0.00     0.272 C 
HETATM   17  O10 UNL     1      97.382  16.698   4.134  1.00  0.00    -0.309 OA
HETATM   18  C19 UNL     1      96.113  16.610   4.582  1.00  0.00     0.421 C 
ENDROOT
BRANCH  18  19
HETATM   19  C20 UNL     1      96.073  15.834   5.858  1.00  0.00     0.332 C 
HETATM   20  O11 UNL     1      95.303  14.843   5.899  1.00  0.00    -0.259 OA
BRANCH  19  21
HETATM   21  O12 UNL     1      96.790  16.098   6.989  1.00  0.00    -0.310 OA
BRANCH  21  22
HETATM   22  C21 UNL     1      98.050  15.648   7.346  1.00  0.00     0.256 C 
BRANCH  22  23
HETATM   23  C22 UNL     1      98.065  14.441   8.183  1.00  0.00     0.137 A 
HETATM   24  N3  UNL     1      97.068  13.552   8.313  1.00  0.00    -0.176 N 
HETATM   25  C23 UNL     1      97.147  12.464   9.102  1.00  0.00     0.713 A 
ATOM     26  H3  UNL     1      96.208  13.708   7.788  1.00  0.00     0.185 HD
HETATM   27  N5  UNL     1      98.268  12.222   9.815  1.00  0.00     0.083 N 
HETATM   28  C24 UNL     1      99.277  13.102   9.698  1.00  0.00     0.713 A 
HETATM   29  N8  UNL     1      99.182  14.185   8.904  1.00  0.00    -0.176 N 
ATOM     30  H8  UNL     1      99.971  14.829   8.844  1.00  0.00     0.185 HD
BRANCH  25  31
HETATM   31  N4  UNL     1      96.191  11.614   9.226  1.00  0.00    -0.232 N 
ATOM     32  H42 UNL     1      95.328  11.956   9.651  1.00  0.00     0.174 HD
ATOM     33  H41 UNL     1      96.264  10.644   8.922  1.00  0.00     0.174 HD
ENDBRANCH  25  31
BRANCH  27  34
HETATM   34  N6  UNL     1      98.355  11.092  10.637  1.00  0.00    -0.309 N 
ATOM     35  H62 UNL     1      98.227  10.146  10.276  1.00  0.00     0.178 HD
ATOM     36  H61 UNL     1      98.551  11.191  11.633  1.00  0.00     0.178 HD
ENDBRANCH  27  34
BRANCH  28  37
HETATM   37  N7  UNL     1     100.358  12.875  10.382  1.00  0.00    -0.232 N 
ATOM     38  H72 UNL     1     100.562  11.940  10.739  1.00  0.00     0.174 HD
ATOM     39  H71 UNL     1     100.988  13.660  10.546  1.00  0.00     0.174 HD
ENDBRANCH  28  37
ENDBRANCH  22  23
ENDBRANCH  21  22
ENDBRANCH  19  21
ENDBRANCH  18  19
BRANCH   1  40
HETATM   40  O4  UNL     1      96.660  18.648   5.842  1.00  0.00    -0.199 OA
BRANCH  40  41
HETATM   41  S1  UNL     1      95.999  19.572   7.046  1.00  0.00     0.405 S 
HETATM   42  O2  UNL     1      95.234  18.690   7.997  1.00  0.00    -0.169 OA
HETATM   43  O3  UNL     1      97.131  20.212   7.823  1.00  0.00    -0.169 OA
BRANCH  41  44
HETATM   44  O1  UNL     1      94.989  20.764   6.404  1.00  0.00    -0.254 OA
BRANCH  44  45
HETATM   45  C3  UNL     1      95.017  21.869   7.235  1.00  0.00     0.192 C 
BRANCH  45  46
HETATM   46  C2  UNL     1      93.667  22.014   7.927  1.00  0.00     0.023 C 
HETATM   47  C1  UNL     1      92.770  22.796   7.002  1.00  0.00     0.007 C 
ENDBRANCH  45  46
ENDBRANCH  44  45
ENDBRANCH  41  44
ENDBRANCH  40  41
ENDBRANCH   1  40
BRANCH  16  48
HETATM   48  O9  UNL     1      97.745  14.443   3.785  1.00  0.00    -0.365 OA
HETATM   49  C18 UNL     1      98.845  13.688   4.051  1.00  0.00     0.204 C 
ENDBRANCH  16  48
BRANCH  10  50
HETATM   50  C9  UNL     1      95.530  14.205   1.786  1.00  0.00     0.126 C 
HETATM   51  C10 UNL     1      94.200  13.863   1.228  1.00  0.00     0.040 C 
BRANCH  50  52
HETATM   52  O6  UNL     1      96.417  13.162   1.572  1.00  0.00    -0.395 OA
ATOM     53  H6  UNL     1      96.072  12.353   1.214  1.00  0.00     0.210 HD
ENDBRANCH  50  52
ENDBRANCH  10  50
BRANCH  11  54
HETATM   54  C12 UNL     1      95.702  17.243  -0.207  1.00  0.00     0.181 C 
HETATM   55  O7  UNL     1      94.534  17.596  -0.530  1.00  0.00    -0.647 OA
HETATM   56  O8  UNL     1      96.671  18.230  -0.171  1.00  0.00    -0.647 OA
ENDBRANCH  11  54
TORSDOF 16
ENDMDL
