MODEL 1
REMARK VINA RESULT: -8.287885577      0.000      0.000
REMARK  14 active torsions:
REMARK  status: ('A' for Active; 'I' for Inactive)
REMARK    1  A    between atoms: C3_6  and  C4_7 
REMARK    2  A    between atoms: C4_7  and  N3_8 
REMARK    3  A    between atoms: C4_7  and  O1_12 
REMARK    4  A    between atoms: O1_12  and  C5_13 
REMARK    5  A    between atoms: C6_14  and  O2_15 
REMARK    6  A    between atoms: C7_17  and  O3_18 
REMARK    7  A    between atoms: O3_18  and  S1_19 
REMARK    8  A    between atoms: C8_23  and  O7_24 
REMARK    9  A    between atoms: O7_24  and  S2_25 
REMARK   10  A    between atoms: C9_29  and  O11_30 
REMARK   11  A    between atoms: O11_30  and  S3_31 
REMARK   12  A    between atoms: C10_35  and  O15_36 
REMARK   13  A    between atoms: O15_36  and  S4_37 
REMARK   14  A    between atoms: C12_42  and  N4_43 
ROOT
HETATM    1  N1  UNL     1      90.676  24.657   5.660  1.00  0.00    -0.190 NA
HETATM    2  C1  UNL     1      91.268  23.948   6.346  1.00  0.00     0.120 C 
HETATM    3  C2  UNL     1      91.991  23.053   7.180  1.00  0.00     0.147 A 
HETATM    4  N2  UNL     1      93.105  22.391   6.884  1.00  0.00    -0.345 N 
ATOM      5  H2  UNL     1      93.587  22.455   5.988  1.00  0.00     0.166 HD
HETATM    6  C3  UNL     1      93.520  21.627   7.914  1.00  0.00     0.069 A 
HETATM    7  C11 UNL     1      92.590  21.837   8.910  1.00  0.00     0.068 A 
HETATM    8  C12 UNL     1      91.644  22.715   8.468  1.00  0.00     0.142 A 
ENDROOT
BRANCH   8   9
HETATM    9  N4  UNL     1      90.534  23.177   9.195  1.00  0.00    -0.113 N 
HETATM   10  O19 UNL     1      90.643  23.929  10.175  1.00  0.00    -0.532 OA
HETATM   11  O20 UNL     1      89.269  22.799   8.832  1.00  0.00    -0.532 OA
ENDBRANCH   8   9
BRANCH   6  12
HETATM   12  C4  UNL     1      94.733  20.762   7.915  1.00  0.00     0.370 C 
BRANCH  12  13
HETATM   13  N3  UNL     1      95.830  21.476   8.537  1.00  0.00    -0.047 N 
ATOM     14  H33 UNL     1      96.144  22.267   7.975  1.00  0.00     0.277 HD
ATOM     15  H32 UNL     1      95.534  21.995   9.363  1.00  0.00     0.277 HD
ATOM     16  H31 UNL     1      96.586  20.822   8.741  1.00  0.00     0.277 HD
ENDBRANCH  12  13
BRANCH  12  17
HETATM   17  O1  UNL     1      95.047  20.258   6.674  1.00  0.00    -0.344 OA
BRANCH  17  18
HETATM   18  C5  UNL     1      95.073  18.889   6.580  1.00  0.00     0.189 C 
HETATM   19  C6  UNL     1      96.458  18.351   6.972  1.00  0.00     0.182 C 
HETATM   20  C7  UNL     1      96.500  16.860   6.887  1.00  0.00     0.209 C 
HETATM   21  C8  UNL     1      96.126  16.373   5.479  1.00  0.00     0.211 C 
HETATM   22  C9  UNL     1      94.697  16.896   5.264  1.00  0.00     0.211 C 
HETATM   23  C10 UNL     1      94.787  18.377   5.183  1.00  0.00     0.210 C 
BRANCH  19  24
HETATM   24  O2  UNL     1      97.448  18.987   6.246  1.00  0.00    -0.390 OA
ATOM     25  H2  UNL     1      97.951  19.568   6.804  1.00  0.00     0.210 HD
ENDBRANCH  19  24
BRANCH  20  26
HETATM   26  O3  UNL     1      97.793  16.453   7.217  1.00  0.00    -0.246 OA
BRANCH  26  27
HETATM   27  S1  UNL     1      97.816  14.975   7.985  1.00  0.00     0.252 S 
HETATM   28  O4  UNL     1      97.870  13.895   6.913  1.00  0.00    -0.572 OA
HETATM   29  O5  UNL     1      96.543  14.749   8.749  1.00  0.00    -0.572 OA
HETATM   30  O6  UNL     1      99.160  14.794   8.982  1.00  0.00    -0.572 OA
ENDBRANCH  26  27
ENDBRANCH  20  26
BRANCH  21  31
HETATM   31  O7  UNL     1      97.023  16.970   4.631  1.00  0.00    -0.246 OA
BRANCH  31  32
HETATM   32  S2  UNL     1      97.797  15.933   3.594  1.00  0.00     0.252 S 
HETATM   33  O8  UNL     1      99.171  15.566   4.026  1.00  0.00    -0.572 OA
HETATM   34  O9  UNL     1      96.989  14.642   3.564  1.00  0.00    -0.572 OA
HETATM   35  O10 UNL     1      97.769  16.539   2.009  1.00  0.00    -0.572 OA
ENDBRANCH  31  32
ENDBRANCH  21  31
BRANCH  22  36
HETATM   36  O11 UNL     1      94.027  16.254   4.290  1.00  0.00    -0.246 OA
BRANCH  36  37
HETATM   37  S3  UNL     1      92.453  15.903   4.473  1.00  0.00     0.252 S 
HETATM   38  O12 UNL     1      91.720  16.238   3.183  1.00  0.00    -0.572 OA
HETATM   39  O13 UNL     1      91.740  16.609   5.570  1.00  0.00    -0.572 OA
HETATM   40  O14 UNL     1      92.255  14.249   4.702  1.00  0.00    -0.572 OA
ENDBRANCH  36  37
ENDBRANCH  22  36
BRANCH  23  41
HETATM   41  O15 UNL     1      93.714  18.993   4.580  1.00  0.00    -0.246 OA
BRANCH  41  42
HETATM   42  S4  UNL     1      94.063  19.546   3.033  1.00  0.00     0.252 S 
HETATM   43  O16 UNL     1      93.959  21.051   2.996  1.00  0.00    -0.572 OA
HETATM   44  O17 UNL     1      93.114  19.016   2.017  1.00  0.00    -0.572 OA
HETATM   45  O18 UNL     1      95.668  19.186   2.619  1.00  0.00    -0.572 OA
ENDBRANCH  41  42
ENDBRANCH  23  41
ENDBRANCH  17  18
ENDBRANCH  12  17
ENDBRANCH   6  12
TORSDOF 14
ENDMDL
MODEL 2
REMARK VINA RESULT: -8.275630444      0.980      1.832
REMARK  14 active torsions:
REMARK  status: ('A' for Active; 'I' for Inactive)
REMARK    1  A    between atoms: C3_6  and  C4_7 
REMARK    2  A    between atoms: C4_7  and  N3_8 
REMARK    3  A    between atoms: C4_7  and  O1_12 
REMARK    4  A    between atoms: O1_12  and  C5_13 
REMARK    5  A    between atoms: C6_14  and  O2_15 
REMARK    6  A    between atoms: C7_17  and  O3_18 
REMARK    7  A    between atoms: O3_18  and  S1_19 
REMARK    8  A    between atoms: C8_23  and  O7_24 
REMARK    9  A    between atoms: O7_24  and  S2_25 
REMARK   10  A    between atoms: C9_29  and  O11_30 
REMARK   11  A    between atoms: O11_30  and  S3_31 
REMARK   12  A    between atoms: C10_35  and  O15_36 
REMARK   13  A    between atoms: O15_36  and  S4_37 
REMARK   14  A    between atoms: C12_42  and  N4_43 
ROOT
HETATM    1  N1  UNL     1      89.811  23.387  10.211  1.00  0.00    -0.190 NA
HETATM    2  C1  UNL     1      90.676  23.062   9.525  1.00  0.00     0.120 C 
HETATM    3  C2  UNL     1      91.760  22.674   8.693  1.00  0.00     0.147 A 
HETATM    4  N2  UNL     1      92.693  21.763   8.950  1.00  0.00    -0.345 N 
ATOM      5  H2  UNL     1      92.738  21.217   9.811  1.00  0.00     0.166 HD
HETATM    6  C3  UNL     1      93.574  21.649   7.936  1.00  0.00     0.069 A 
HETATM    7  C11 UNL     1      93.146  22.558   6.991  1.00  0.00     0.068 A 
HETATM    8  C12 UNL     1      92.029  23.194   7.447  1.00  0.00     0.142 A 
ENDROOT
BRANCH   8   9
HETATM    9  N4  UNL     1      91.301  24.187   6.769  1.00  0.00    -0.113 N 
HETATM   10  O19 UNL     1      91.161  25.334   7.216  1.00  0.00    -0.532 OA
HETATM   11  O20 UNL     1      90.714  23.906   5.564  1.00  0.00    -0.532 OA
ENDBRANCH   8   9
BRANCH   6  12
HETATM   12  C4  UNL     1      94.738  20.721   7.902  1.00  0.00     0.370 C 
BRANCH  12  13
HETATM   13  N3  UNL     1      95.884  21.368   8.509  1.00  0.00    -0.047 N 
ATOM     14  H33 UNL     1      96.573  21.663   7.818  1.00  0.00     0.277 HD
ATOM     15  H32 UNL     1      95.654  22.288   8.885  1.00  0.00     0.277 HD
ATOM     16  H31 UNL     1      96.285  20.751   9.216  1.00  0.00     0.277 HD
ENDBRANCH  12  13
BRANCH  12  17
HETATM   17  O1  UNL     1      95.000  20.217   6.650  1.00  0.00    -0.344 OA
BRANCH  17  18
HETATM   18  C5  UNL     1      95.042  18.848   6.559  1.00  0.00     0.189 C 
HETATM   19  C6  UNL     1      96.426  18.326   6.976  1.00  0.00     0.182 C 
HETATM   20  C7  UNL     1      96.486  16.835   6.896  1.00  0.00     0.209 C 
HETATM   21  C8  UNL     1      96.141  16.341   5.482  1.00  0.00     0.211 C 
HETATM   22  C9  UNL     1      94.711  16.848   5.242  1.00  0.00     0.211 C 
HETATM   23  C10 UNL     1      94.786  18.329   5.159  1.00  0.00     0.210 C 
BRANCH  19  24
HETATM   24  O2  UNL     1      97.422  18.970   6.266  1.00  0.00    -0.390 OA
ATOM     25  H2  UNL     1      97.939  19.521   6.841  1.00  0.00     0.210 HD
ENDBRANCH  19  24
BRANCH  20  26
HETATM   26  O3  UNL     1      97.776  16.443   7.249  1.00  0.00    -0.246 OA
BRANCH  26  27
HETATM   27  S1  UNL     1      97.808  14.944   7.976  1.00  0.00     0.252 S 
HETATM   28  O4  UNL     1      99.014  14.902   8.904  1.00  0.00    -0.572 OA
HETATM   29  O5  UNL     1      98.020  13.860   6.958  1.00  0.00    -0.572 OA
HETATM   30  O6  UNL     1      96.427  14.650   8.893  1.00  0.00    -0.572 OA
ENDBRANCH  26  27
ENDBRANCH  20  26
BRANCH  21  31
HETATM   31  O7  UNL     1      97.046  16.945   4.649  1.00  0.00    -0.246 OA
BRANCH  31  32
HETATM   32  S2  UNL     1      97.799  15.925   3.580  1.00  0.00     0.252 S 
HETATM   33  O8  UNL     1      97.377  14.506   3.706  1.00  0.00    -0.572 OA
HETATM   34  O9  UNL     1      97.407  16.374   2.179  1.00  0.00    -0.572 OA
HETATM   35  O10 UNL     1      99.485  16.098   3.673  1.00  0.00    -0.572 OA
ENDBRANCH  31  32
ENDBRANCH  21  31
BRANCH  22  36
HETATM   36  O11 UNL     1      94.064  16.197   4.257  1.00  0.00    -0.246 OA
BRANCH  36  37
HETATM   37  S3  UNL     1      92.498  15.805   4.426  1.00  0.00     0.252 S 
HETATM   38  O12 UNL     1      91.762  16.160   3.143  1.00  0.00    -0.572 OA
HETATM   39  O13 UNL     1      91.767  16.464   5.540  1.00  0.00    -0.572 OA
HETATM   40  O14 UNL     1      92.337  14.141   4.607  1.00  0.00    -0.572 OA
ENDBRANCH  36  37
ENDBRANCH  22  36
BRANCH  23  41
HETATM   41  O15 UNL     1      93.717  18.932   4.536  1.00  0.00    -0.246 OA
BRANCH  41  42
HETATM   42  S4  UNL     1      94.113  19.576   3.035  1.00  0.00     0.252 S 
HETATM   43  O16 UNL     1      95.550  19.252   2.707  1.00  0.00    -0.572 OA
HETATM   44  O17 UNL     1      93.979  21.058   3.004  1.00  0.00    -0.572 OA
HETATM   45  O18 UNL     1      93.187  18.851   1.813  1.00  0.00    -0.572 OA
ENDBRANCH  41  42
ENDBRANCH  23  41
ENDBRANCH  17  18
ENDBRANCH  12  17
ENDBRANCH   6  12
TORSDOF 14
ENDMDL
MODEL 3
REMARK VINA RESULT: -8.242184662      0.119      1.294
REMARK  14 active torsions:
REMARK  status: ('A' for Active; 'I' for Inactive)
REMARK    1  A    between atoms: C3_6  and  C4_7 
REMARK    2  A    between atoms: C4_7  and  N3_8 
REMARK    3  A    between atoms: C4_7  and  O1_12 
REMARK    4  A    between atoms: O1_12  and  C5_13 
REMARK    5  A    between atoms: C6_14  and  O2_15 
REMARK    6  A    between atoms: C7_17  and  O3_18 
REMARK    7  A    between atoms: O3_18  and  S1_19 
REMARK    8  A    between atoms: C8_23  and  O7_24 
REMARK    9  A    between atoms: O7_24  and  S2_25 
REMARK   10  A    between atoms: C9_29  and  O11_30 
REMARK   11  A    between atoms: O11_30  and  S3_31 
REMARK   12  A    between atoms: C10_35  and  O15_36 
REMARK   13  A    between atoms: O15_36  and  S4_37 
REMARK   14  A    between atoms: C12_42  and  N4_43 
ROOT
HETATM    1  N1  UNL     1      90.588  24.625   5.690  1.00  0.00    -0.190 NA
HETATM    2  C1  UNL     1      91.191  23.924   6.372  1.00  0.00     0.120 C 
HETATM    3  C2  UNL     1      91.930  23.037   7.202  1.00  0.00     0.147 A 
HETATM    4  N2  UNL     1      93.058  22.401   6.906  1.00  0.00    -0.345 N 
ATOM      5  H2  UNL     1      93.543  22.481   6.012  1.00  0.00     0.166 HD
HETATM    6  C3  UNL     1      93.485  21.636   7.931  1.00  0.00     0.069 A 
HETATM    7  C11 UNL     1      92.546  21.820   8.925  1.00  0.00     0.068 A 
HETATM    8  C12 UNL     1      91.584  22.681   8.486  1.00  0.00     0.142 A 
ENDROOT
BRANCH   8   9
HETATM    9  N4  UNL     1      90.462  23.115   9.213  1.00  0.00    -0.113 N 
HETATM   10  O19 UNL     1      89.302  22.963   8.803  1.00  0.00    -0.532 OA
HETATM   11  O20 UNL     1      90.624  23.733  10.424  1.00  0.00    -0.532 OA
ENDBRANCH   8   9
BRANCH   6  12
HETATM   12  C4  UNL     1      94.715  20.796   7.930  1.00  0.00     0.370 C 
BRANCH  12  13
HETATM   13  N3  UNL     1      95.797  21.531   8.555  1.00  0.00    -0.047 N 
ATOM     14  H33 UNL     1      95.758  22.528   8.346  1.00  0.00     0.277 HD
ATOM     15  H32 UNL     1      95.689  21.591   9.568  1.00  0.00     0.277 HD
ATOM     16  H31 UNL     1      96.688  21.114   8.285  1.00  0.00     0.277 HD
ENDBRANCH  12  13
BRANCH  12  17
HETATM   17  O1  UNL     1      95.041  20.303   6.688  1.00  0.00    -0.344 OA
BRANCH  17  18
HETATM   18  C5  UNL     1      95.072  18.935   6.585  1.00  0.00     0.189 C 
HETATM   19  C6  UNL     1      96.460  18.401   6.975  1.00  0.00     0.182 C 
HETATM   20  C7  UNL     1      96.509  16.910   6.880  1.00  0.00     0.209 C 
HETATM   21  C8  UNL     1      96.139  16.432   5.468  1.00  0.00     0.211 C 
HETATM   22  C9  UNL     1      94.708  16.949   5.255  1.00  0.00     0.211 C 
HETATM   23  C10 UNL     1      94.791  18.431   5.184  1.00  0.00     0.210 C 
BRANCH  19  24
HETATM   24  O2  UNL     1      97.448  19.045   6.255  1.00  0.00    -0.390 OA
ATOM     25  H2  UNL     1      97.697  18.532   5.497  1.00  0.00     0.210 HD
ENDBRANCH  19  24
BRANCH  20  26
HETATM   26  O3  UNL     1      97.802  16.507   7.209  1.00  0.00    -0.246 OA
BRANCH  26  27
HETATM   27  S1  UNL     1      97.838  14.994   7.905  1.00  0.00     0.252 S 
HETATM   28  O4  UNL     1      96.559  14.824   8.714  1.00  0.00    -0.572 OA
HETATM   29  O5  UNL     1      98.973  14.880   8.881  1.00  0.00    -0.572 OA
HETATM   30  O6  UNL     1      97.902  13.764   6.757  1.00  0.00    -0.572 OA
ENDBRANCH  26  27
ENDBRANCH  20  26
BRANCH  21  31
HETATM   31  O7  UNL     1      97.034  17.038   4.626  1.00  0.00    -0.246 OA
BRANCH  31  32
HETATM   32  S2  UNL     1      97.804  16.014   3.573  1.00  0.00     0.252 S 
HETATM   33  O8  UNL     1      99.163  15.607   4.016  1.00  0.00    -0.572 OA
HETATM   34  O9  UNL     1      96.971  14.742   3.495  1.00  0.00    -0.572 OA
HETATM   35  O10 UNL     1      97.814  16.663   2.005  1.00  0.00    -0.572 OA
ENDBRANCH  31  32
ENDBRANCH  21  31
BRANCH  22  36
HETATM   36  O11 UNL     1      94.042  16.311   4.274  1.00  0.00    -0.246 OA
BRANCH  36  37
HETATM   37  S3  UNL     1      92.501  15.851   4.497  1.00  0.00     0.252 S 
HETATM   38  O12 UNL     1      91.910  16.651   5.647  1.00  0.00    -0.572 OA
HETATM   39  O13 UNL     1      92.278  14.415   4.809  1.00  0.00    -0.572 OA
HETATM   40  O14 UNL     1      91.583  16.240   3.142  1.00  0.00    -0.572 OA
ENDBRANCH  36  37
ENDBRANCH  22  36
BRANCH  23  41
HETATM   41  O15 UNL     1      93.716  19.046   4.584  1.00  0.00    -0.246 OA
BRANCH  41  42
HETATM   42  S4  UNL     1      94.077  19.649   3.057  1.00  0.00     0.252 S 
HETATM   43  O16 UNL     1      95.504  19.310   2.702  1.00  0.00    -0.572 OA
HETATM   44  O17 UNL     1      93.947  21.129   2.990  1.00  0.00    -0.572 OA
HETATM   45  O18 UNL     1      93.118  18.895   1.878  1.00  0.00    -0.572 OA
ENDBRANCH  41  42
ENDBRANCH  23  41
ENDBRANCH  17  18
ENDBRANCH  12  17
ENDBRANCH   6  12
TORSDOF 14
ENDMDL
MODEL 4
REMARK VINA RESULT: -7.954392630      1.249      1.910
REMARK  14 active torsions:
REMARK  status: ('A' for Active; 'I' for Inactive)
REMARK    1  A    between atoms: C3_6  and  C4_7 
REMARK    2  A    between atoms: C4_7  and  N3_8 
REMARK    3  A    between atoms: C4_7  and  O1_12 
REMARK    4  A    between atoms: O1_12  and  C5_13 
REMARK    5  A    between atoms: C6_14  and  O2_15 
REMARK    6  A    between atoms: C7_17  and  O3_18 
REMARK    7  A    between atoms: O3_18  and  S1_19 
REMARK    8  A    between atoms: C8_23  and  O7_24 
REMARK    9  A    between atoms: O7_24  and  S2_25 
REMARK   10  A    between atoms: C9_29  and  O11_30 
REMARK   11  A    between atoms: O11_30  and  S3_31 
REMARK   12  A    between atoms: C10_35  and  O15_36 
REMARK   13  A    between atoms: O15_36  and  S4_37 
REMARK   14  A    between atoms: C12_42  and  N4_43 
ROOT
HETATM    1  N1  UNL     1      90.556  18.444  10.827  1.00  0.00    -0.190 NA
HETATM    2  C1  UNL     1      91.276  19.107  10.224  1.00  0.00     0.120 C 
HETATM    3  C2  UNL     1      92.182  19.928   9.499  1.00  0.00     0.147 A 
HETATM    4  N2  UNL     1      93.354  19.578   8.979  1.00  0.00    -0.345 N 
ATOM      5  H2  UNL     1      93.751  18.641   9.043  1.00  0.00     0.166 HD
HETATM    6  C3  UNL     1      93.952  20.612   8.355  1.00  0.00     0.069 A 
HETATM    7  C11 UNL     1      93.082  21.671   8.507  1.00  0.00     0.068 A 
HETATM    8  C12 UNL     1      91.988  21.260   9.210  1.00  0.00     0.142 A 
ENDROOT
BRANCH   8   9
HETATM    9  N4  UNL     1      90.882  22.051   9.566  1.00  0.00    -0.113 N 
HETATM   10  O19 UNL     1      90.692  22.452  10.724  1.00  0.00    -0.532 OA
HETATM   11  O20 UNL     1      89.961  22.410   8.619  1.00  0.00    -0.532 OA
ENDBRANCH   8   9
BRANCH   6  12
HETATM   12  C4  UNL     1      95.272  20.560   7.666  1.00  0.00     0.370 C 
BRANCH  12  13
HETATM   13  N3  UNL     1      95.880  21.875   7.696  1.00  0.00    -0.047 N 
ATOM     14  H33 UNL     1      95.508  22.489   6.972  1.00  0.00     0.277 HD
ATOM     15  H32 UNL     1      95.589  22.417   8.509  1.00  0.00     0.277 HD
ATOM     16  H31 UNL     1      96.894  21.779   7.638  1.00  0.00     0.277 HD
ENDBRANCH  12  13
BRANCH  12  17
HETATM   17  O1  UNL     1      95.209  20.020   6.403  1.00  0.00    -0.344 OA
BRANCH  17  18
HETATM   18  C5  UNL     1      95.188  18.649   6.346  1.00  0.00     0.189 C 
HETATM   19  C6  UNL     1      96.570  18.077   6.703  1.00  0.00     0.182 C 
HETATM   20  C7  UNL     1      96.563  16.584   6.658  1.00  0.00     0.209 C 
HETATM   21  C8  UNL     1      96.123  16.072   5.278  1.00  0.00     0.211 C 
HETATM   22  C9  UNL     1      94.704  16.634   5.100  1.00  0.00     0.211 C 
HETATM   23  C10 UNL     1      94.837  18.109   4.974  1.00  0.00     0.210 C 
BRANCH  19  24
HETATM   24  O2  UNL     1      97.552  18.661   5.925  1.00  0.00    -0.390 OA
ATOM     25  H2  UNL     1      98.207  19.078   6.472  1.00  0.00     0.210 HD
ENDBRANCH  19  24
BRANCH  20  26
HETATM   26  O3  UNL     1      97.853  16.145   6.953  1.00  0.00    -0.246 OA
BRANCH  26  27
HETATM   27  S1  UNL     1      97.858  14.850   8.001  1.00  0.00     0.252 S 
HETATM   28  O4  UNL     1      97.906  13.577   7.167  1.00  0.00    -0.572 OA
HETATM   29  O5  UNL     1      96.580  14.792   8.787  1.00  0.00    -0.572 OA
HETATM   30  O6  UNL     1      99.196  14.860   9.023  1.00  0.00    -0.572 OA
ENDBRANCH  26  27
ENDBRANCH  20  26
BRANCH  21  31
HETATM   31  O7  UNL     1      97.006  16.617   4.382  1.00  0.00    -0.246 OA
BRANCH  31  32
HETATM   32  S2  UNL     1      97.859  15.513   3.485  1.00  0.00     0.252 S 
HETATM   33  O8  UNL     1      99.324  15.538   3.735  1.00  0.00    -0.572 OA
HETATM   34  O9  UNL     1      97.370  14.130   3.894  1.00  0.00    -0.572 OA
HETATM   35  O10 UNL     1      97.493  15.671   1.836  1.00  0.00    -0.572 OA
ENDBRANCH  31  32
ENDBRANCH  21  31
BRANCH  22  36
HETATM   36  O11 UNL     1      93.979  15.989   4.167  1.00  0.00    -0.246 OA
BRANCH  36  37
HETATM   37  S3  UNL     1      92.389  15.750   4.387  1.00  0.00     0.252 S 
HETATM   38  O12 UNL     1      91.642  16.254   3.162  1.00  0.00    -0.572 OA
HETATM   39  O13 UNL     1      91.777  16.412   5.569  1.00  0.00    -0.572 OA
HETATM   40  O14 UNL     1      92.062  14.103   4.483  1.00  0.00    -0.572 OA
ENDBRANCH  36  37
ENDBRANCH  22  36
BRANCH  23  41
HETATM   41  O15 UNL     1      93.763  18.742   4.393  1.00  0.00    -0.246 OA
BRANCH  41  42
HETATM   42  S4  UNL     1      94.116  19.367   2.874  1.00  0.00     0.252 S 
HETATM   43  O16 UNL     1      94.012  20.872   2.907  1.00  0.00    -0.572 OA
HETATM   44  O17 UNL     1      93.169  18.885   1.831  1.00  0.00    -0.572 OA
HETATM   45  O18 UNL     1      95.722  19.025   2.448  1.00  0.00    -0.572 OA
ENDBRANCH  41  42
ENDBRANCH  23  41
ENDBRANCH  17  18
ENDBRANCH  12  17
ENDBRANCH   6  12
TORSDOF 14
ENDMDL
MODEL 5
REMARK VINA RESULT: -7.914098927      1.232      2.212
REMARK  14 active torsions:
REMARK  status: ('A' for Active; 'I' for Inactive)
REMARK    1  A    between atoms: C3_6  and  C4_7 
REMARK    2  A    between atoms: C4_7  and  N3_8 
REMARK    3  A    between atoms: C4_7  and  O1_12 
REMARK    4  A    between atoms: O1_12  and  C5_13 
REMARK    5  A    between atoms: C6_14  and  O2_15 
REMARK    6  A    between atoms: C7_17  and  O3_18 
REMARK    7  A    between atoms: O3_18  and  S1_19 
REMARK    8  A    between atoms: C8_23  and  O7_24 
REMARK    9  A    between atoms: O7_24  and  S2_25 
REMARK   10  A    between atoms: C9_29  and  O11_30 
REMARK   11  A    between atoms: O11_30  and  S3_31 
REMARK   12  A    between atoms: C10_35  and  O15_36 
REMARK   13  A    between atoms: O15_36  and  S4_37 
REMARK   14  A    between atoms: C12_42  and  N4_43 
ROOT
HETATM    1  N1  UNL     1      90.558  18.460  10.824  1.00  0.00    -0.190 NA
HETATM    2  C1  UNL     1      91.279  19.127  10.226  1.00  0.00     0.120 C 
HETATM    3  C2  UNL     1      92.184  19.954   9.507  1.00  0.00     0.147 A 
HETATM    4  N2  UNL     1      93.375  19.621   9.020  1.00  0.00    -0.345 N 
ATOM      5  H2  UNL     1      93.790  18.694   9.111  1.00  0.00     0.166 HD
HETATM    6  C3  UNL     1      93.966  20.656   8.392  1.00  0.00     0.069 A 
HETATM    7  C11 UNL     1      93.070  21.699   8.504  1.00  0.00     0.068 A 
HETATM    8  C12 UNL     1      91.968  21.276   9.189  1.00  0.00     0.142 A 
ENDROOT
BRANCH   8   9
HETATM    9  N4  UNL     1      90.838  22.050   9.504  1.00  0.00    -0.113 N 
HETATM   10  O19 UNL     1      90.685  22.588  10.611  1.00  0.00    -0.532 OA
HETATM   11  O20 UNL     1      89.851  22.235   8.574  1.00  0.00    -0.532 OA
ENDBRANCH   8   9
BRANCH   6  12
HETATM   12  C4  UNL     1      95.302  20.620   7.735  1.00  0.00     0.370 C 
BRANCH  12  13
HETATM   13  N3  UNL     1      95.898  21.940   7.789  1.00  0.00    -0.047 N 
ATOM     14  H33 UNL     1      96.826  21.928   8.213  1.00  0.00     0.277 HD
ATOM     15  H32 UNL     1      96.165  22.282   6.867  1.00  0.00     0.277 HD
ATOM     16  H31 UNL     1      95.262  22.577   8.269  1.00  0.00     0.277 HD
ENDBRANCH  12  13
BRANCH  12  17
HETATM   17  O1  UNL     1      95.275  20.089   6.466  1.00  0.00    -0.344 OA
BRANCH  17  18
HETATM   18  C5  UNL     1      95.222  18.719   6.399  1.00  0.00     0.189 C 
HETATM   19  C6  UNL     1      96.593  18.114   6.741  1.00  0.00     0.182 C 
HETATM   20  C7  UNL     1      96.551  16.621   6.685  1.00  0.00     0.209 C 
HETATM   21  C8  UNL     1      96.089  16.130   5.304  1.00  0.00     0.211 C 
HETATM   22  C9  UNL     1      94.682  16.726   5.141  1.00  0.00     0.211 C 
HETATM   23  C10 UNL     1      94.848  18.198   5.026  1.00  0.00     0.210 C 
BRANCH  19  24
HETATM   24  O2  UNL     1      97.583  18.681   5.960  1.00  0.00    -0.390 OA
ATOM     25  H2  UNL     1      97.435  19.614   5.860  1.00  0.00     0.210 HD
ENDBRANCH  19  24
BRANCH  20  26
HETATM   26  O3  UNL     1      97.833  16.150   6.966  1.00  0.00    -0.246 OA
BRANCH  26  27
HETATM   27  S1  UNL     1      97.813  14.797   7.937  1.00  0.00     0.252 S 
HETATM   28  O4  UNL     1      98.995  14.892   8.893  1.00  0.00    -0.572 OA
HETATM   29  O5  UNL     1      98.028  13.552   7.124  1.00  0.00    -0.572 OA
HETATM   30  O6  UNL     1      96.404  14.686   8.851  1.00  0.00    -0.572 OA
ENDBRANCH  26  27
ENDBRANCH  20  26
BRANCH  21  31
HETATM   31  O7  UNL     1      96.978  16.662   4.406  1.00  0.00    -0.246 OA
BRANCH  31  32
HETATM   32  S2  UNL     1      97.828  15.545   3.522  1.00  0.00     0.252 S 
HETATM   33  O8  UNL     1      97.500  14.136   3.859  1.00  0.00    -0.572 OA
HETATM   34  O9  UNL     1      97.444  15.745   2.061  1.00  0.00    -0.572 OA
HETATM   35  O10 UNL     1      99.494  15.851   3.614  1.00  0.00    -0.572 OA
ENDBRANCH  31  32
ENDBRANCH  21  31
BRANCH  22  36
HETATM   36  O11 UNL     1      93.936  16.105   4.209  1.00  0.00    -0.246 OA
BRANCH  36  37
HETATM   37  S3  UNL     1      92.350  15.866   4.457  1.00  0.00     0.252 S 
HETATM   38  O12 UNL     1      91.595  16.211   3.183  1.00  0.00    -0.572 OA
HETATM   39  O13 UNL     1      91.726  16.651   5.555  1.00  0.00    -0.572 OA
HETATM   40  O14 UNL     1      92.051  14.236   4.745  1.00  0.00    -0.572 OA
ENDBRANCH  36  37
ENDBRANCH  22  36
BRANCH  23  41
HETATM   41  O15 UNL     1      93.784  18.861   4.458  1.00  0.00    -0.246 OA
BRANCH  41  42
HETATM   42  S4  UNL     1      94.141  19.494   2.943  1.00  0.00     0.252 S 
HETATM   43  O16 UNL     1      95.560  19.143   2.568  1.00  0.00    -0.572 OA
HETATM   44  O17 UNL     1      94.033  20.978   2.912  1.00  0.00    -0.572 OA
HETATM   45  O18 UNL     1      93.162  18.783   1.755  1.00  0.00    -0.572 OA
ENDBRANCH  41  42
ENDBRANCH  23  41
ENDBRANCH  17  18
ENDBRANCH  12  17
ENDBRANCH   6  12
TORSDOF 14
ENDMDL
