MODEL 1
REMARK VINA RESULT: -6.358994137      0.000      0.000
REMARK  11 active torsions:
REMARK  status: ('A' for Active; 'I' for Inactive)
REMARK    1  A    between atoms: C2_2  and  C3_3 
REMARK    2  A    between atoms: C3_3  and  C4_4 
REMARK    3  A    between atoms: C4_4  and  N1_5 
REMARK    4  A    between atoms: C5_6  and  C6_7 
REMARK    5  A    between atoms: C6_7  and  C7_8 
REMARK    6  A    between atoms: C7_8  and  N2_9 
REMARK    7  A    between atoms: C9_12  and  C10_13 
REMARK    8  A    between atoms: C10_13  and  C11_14 
REMARK    9  A    between atoms: C19_23  and  N4_24 
REMARK   10  A    between atoms: N4_24  and  C20_26 
REMARK   11  A    between atoms: C20_26  and  C21_27 
ROOT
HETATM    1  N1  UNL     1      -2.471   8.252   5.775  1.00  0.00    -0.336 N 
HETATM    2  C5  UNL     1      -3.354   9.260   5.663  1.00  0.00     0.015 A 
HETATM    3  C14 UNL     1      -4.090   9.045   4.521  1.00  0.00     0.040 A 
HETATM    4  C15 UNL     1      -3.643   7.866   3.917  1.00  0.00     0.012 A 
HETATM    5  C16 UNL     1      -4.006   7.188   2.786  1.00  0.00     0.041 A 
HETATM    6  C17 UNL     1      -3.323   6.011   2.482  1.00  0.00     0.089 A 
HETATM    7  C18 UNL     1      -3.698   5.276   1.281  1.00  0.00     0.103 C 
HETATM    8  N3  UNL     1      -4.012   4.723   0.340  1.00  0.00    -0.191 NA
HETATM    9  C19 UNL     1      -2.317   5.548   3.290  1.00  0.00     0.128 A 
HETATM   10  N5  UNL     1      -2.002   6.284   4.417  1.00  0.00    -0.327 N 
ATOM     11  H5  UNL     1      -1.256   5.952   5.027  1.00  0.00     0.169 HD
HETATM   12  C22 UNL     1      -2.635   7.407   4.732  1.00  0.00     0.119 A 
ENDROOT
BRANCH   9  13
HETATM   13  N4  UNL     1      -1.645   4.532   3.130  1.00  0.00    -0.345 N 
ATOM     14  H4  UNL     1      -2.026   4.055   2.313  1.00  0.00     0.167 HD
BRANCH  13  15
HETATM   15  C20 UNL     1      -0.602   3.768   3.582  1.00  0.00     0.174 C 
BRANCH  15  16
HETATM   16  C21 UNL     1      -0.975   2.393   4.056  1.00  0.00     0.214 C 
HETATM   17  O2  UNL     1      -2.139   2.022   3.908  1.00  0.00    -0.643 OA
HETATM   18  O3  UNL     1      -0.023   1.594   4.635  1.00  0.00    -0.643 OA
ENDBRANCH  15  16
ENDBRANCH  13  15
ENDBRANCH   9  13
BRANCH   2  19
HETATM   19  C6  UNL     1      -3.553  10.421   6.566  1.00  0.00     0.077 C 
BRANCH  19  20
HETATM   20  C7  UNL     1      -2.941  11.696   6.013  1.00  0.00     0.135 C 
BRANCH  20  21
HETATM   21  N2  UNL     1      -1.531  11.800   6.266  1.00  0.00    -0.345 N 
HETATM   22  C8  UNL     1      -0.946  11.769   7.495  1.00  0.00     0.235 A 
HETATM   23  O1  UNL     1       0.357  11.884   7.376  1.00  0.00    -0.309 OA
HETATM   24  C9  UNL     1       0.697  11.995   6.109  1.00  0.00     0.070 A 
HETATM   25  C13 UNL     1      -0.491  11.941   5.415  1.00  0.00     0.124 A 
BRANCH  24  26
HETATM   26  C10 UNL     1       2.069  12.141   5.620  1.00  0.00     0.066 C 
BRANCH  26  27
HETATM   27  C11 UNL     1       3.101  11.680   6.633  1.00  0.00     0.002 C 
HETATM   28  C12 UNL     1       3.697  12.843   7.381  1.00  0.00     0.005 C 
ENDBRANCH  26  27
ENDBRANCH  24  26
ENDBRANCH  20  21
ENDBRANCH  19  20
ENDBRANCH   2  19
BRANCH   1  29
HETATM   29  C4  UNL     1      -1.503   8.086   6.832  1.00  0.00     0.130 C 
BRANCH  29  30
HETATM   30  C3  UNL     1      -0.090   8.328   6.351  1.00  0.00     0.020 C 
BRANCH  30  31
HETATM   31  C2  UNL     1       0.889   8.331   7.515  1.00  0.00    -0.003 C 
HETATM   32  C1  UNL     1       2.328   8.243   6.999  1.00  0.00     0.005 C 
ENDBRANCH  30  31
ENDBRANCH  29  30
ENDBRANCH   1  29
TORSDOF 11
ENDMDL
MODEL 2
REMARK VINA RESULT: -6.322171920      2.053      4.084
REMARK  11 active torsions:
REMARK  status: ('A' for Active; 'I' for Inactive)
REMARK    1  A    between atoms: C2_2  and  C3_3 
REMARK    2  A    between atoms: C3_3  and  C4_4 
REMARK    3  A    between atoms: C4_4  and  N1_5 
REMARK    4  A    between atoms: C5_6  and  C6_7 
REMARK    5  A    between atoms: C6_7  and  C7_8 
REMARK    6  A    between atoms: C7_8  and  N2_9 
REMARK    7  A    between atoms: C9_12  and  C10_13 
REMARK    8  A    between atoms: C10_13  and  C11_14 
REMARK    9  A    between atoms: C19_23  and  N4_24 
REMARK   10  A    between atoms: N4_24  and  C20_26 
REMARK   11  A    between atoms: C20_26  and  C21_27 
ROOT
HETATM    1  N1  UNL     1      -3.847   8.674   4.784  1.00  0.00    -0.336 N 
HETATM    2  C5  UNL     1      -3.340   8.961   5.996  1.00  0.00     0.015 A 
HETATM    3  C14 UNL     1      -2.396   8.004   6.290  1.00  0.00     0.040 A 
HETATM    4  C15 UNL     1      -2.323   7.105   5.223  1.00  0.00     0.012 A 
HETATM    5  C16 UNL     1      -1.575   5.985   4.981  1.00  0.00     0.041 A 
HETATM    6  C17 UNL     1      -1.772   5.317   3.774  1.00  0.00     0.089 A 
HETATM    7  C18 UNL     1      -0.983   4.123   3.499  1.00  0.00     0.103 C 
HETATM    8  N3  UNL     1      -0.353   3.197   3.312  1.00  0.00    -0.191 NA
HETATM    9  C19 UNL     1      -2.688   5.766   2.857  1.00  0.00     0.128 A 
HETATM   10  N5  UNL     1      -3.409   6.902   3.168  1.00  0.00    -0.327 N 
ATOM     11  H5  UNL     1      -4.095   7.248   2.496  1.00  0.00     0.169 HD
HETATM   12  C22 UNL     1      -3.243   7.560   4.309  1.00  0.00     0.119 A 
ENDROOT
BRANCH   9  13
HETATM   13  N4  UNL     1      -2.950   5.266   1.766  1.00  0.00    -0.345 N 
ATOM     14  H4  UNL     1      -2.250   4.545   1.597  1.00  0.00     0.167 HD
BRANCH  13  15
HETATM   15  C20 UNL     1      -3.785   5.266   0.680  1.00  0.00     0.174 C 
BRANCH  15  16
HETATM   16  C21 UNL     1      -5.080   4.530   0.869  1.00  0.00     0.214 C 
HETATM   17  O2  UNL     1      -5.123   3.340   0.562  1.00  0.00    -0.643 OA
HETATM   18  O3  UNL     1      -6.170   5.193   1.372  1.00  0.00    -0.643 OA
ENDBRANCH  15  16
ENDBRANCH  13  15
ENDBRANCH   9  13
BRANCH   2  19
HETATM   19  C6  UNL     1      -3.687  10.084   6.901  1.00  0.00     0.077 C 
BRANCH  19  20
HETATM   20  C7  UNL     1      -2.892  11.342   6.594  1.00  0.00     0.135 C 
BRANCH  20  21
HETATM   21  N2  UNL     1      -1.479  11.104   6.496  1.00  0.00    -0.345 N 
HETATM   22  C8  UNL     1      -0.719  11.314   5.386  1.00  0.00     0.235 A 
HETATM   23  O1  UNL     1       0.532  11.000   5.632  1.00  0.00    -0.309 OA
HETATM   24  C9  UNL     1       0.668  10.579   6.871  1.00  0.00     0.070 A 
HETATM   25  C13 UNL     1      -0.597  10.646   7.411  1.00  0.00     0.124 A 
BRANCH  24  26
HETATM   26  C10 UNL     1       1.930  10.149   7.476  1.00  0.00     0.066 C 
BRANCH  26  27
HETATM   27  C11 UNL     1       2.348   8.761   7.028  1.00  0.00     0.002 C 
HETATM   28  C12 UNL     1       1.250   7.755   7.250  1.00  0.00     0.005 C 
ENDBRANCH  26  27
ENDBRANCH  24  26
ENDBRANCH  20  21
ENDBRANCH  19  20
ENDBRANCH   2  19
BRANCH   1  29
HETATM   29  C4  UNL     1      -4.866   9.423   4.092  1.00  0.00     0.130 C 
BRANCH  29  30
HETATM   30  C3  UNL     1      -6.224   8.764   4.193  1.00  0.00     0.020 C 
BRANCH  30  31
HETATM   31  C2  UNL     1      -7.023   9.339   5.353  1.00  0.00    -0.003 C 
HETATM   32  C1  UNL     1      -7.071   8.338   6.512  1.00  0.00     0.005 C 
ENDBRANCH  30  31
ENDBRANCH  29  30
ENDBRANCH   1  29
TORSDOF 11
ENDMDL
MODEL 3
REMARK VINA RESULT: -6.253584466      1.202      1.587
REMARK  11 active torsions:
REMARK  status: ('A' for Active; 'I' for Inactive)
REMARK    1  A    between atoms: C2_2  and  C3_3 
REMARK    2  A    between atoms: C3_3  and  C4_4 
REMARK    3  A    between atoms: C4_4  and  N1_5 
REMARK    4  A    between atoms: C5_6  and  C6_7 
REMARK    5  A    between atoms: C6_7  and  C7_8 
REMARK    6  A    between atoms: C7_8  and  N2_9 
REMARK    7  A    between atoms: C9_12  and  C10_13 
REMARK    8  A    between atoms: C10_13  and  C11_14 
REMARK    9  A    between atoms: C19_23  and  N4_24 
REMARK   10  A    between atoms: N4_24  and  C20_26 
REMARK   11  A    between atoms: C20_26  and  C21_27 
ROOT
HETATM    1  N1  UNL     1      -3.042   8.253   5.682  1.00  0.00    -0.336 N 
HETATM    2  C5  UNL     1      -3.985   9.194   5.500  1.00  0.00     0.015 A 
HETATM    3  C14 UNL     1      -4.594   8.944   4.292  1.00  0.00     0.040 A 
HETATM    4  C15 UNL     1      -4.005   7.814   3.719  1.00  0.00     0.012 A 
HETATM    5  C16 UNL     1      -4.210   7.131   2.552  1.00  0.00     0.041 A 
HETATM    6  C17 UNL     1      -3.415   6.015   2.299  1.00  0.00     0.089 A 
HETATM    7  C18 UNL     1      -3.620   5.275   1.060  1.00  0.00     0.103 C 
HETATM    8  N3  UNL     1      -3.803   4.717   0.088  1.00  0.00    -0.191 NA
HETATM    9  C19 UNL     1      -2.455   5.613   3.192  1.00  0.00     0.128 A 
HETATM   10  N5  UNL     1      -2.301   6.350   4.351  1.00  0.00    -0.327 N 
ATOM     11  H5  UNL     1      -1.591   6.064   5.025  1.00  0.00     0.169 HD
HETATM   12  C22 UNL     1      -3.044   7.417   4.619  1.00  0.00     0.119 A 
ENDROOT
BRANCH   9  13
HETATM   13  N4  UNL     1      -1.695   4.653   3.083  1.00  0.00    -0.345 N 
ATOM     14  H4  UNL     1      -1.912   4.208   2.192  1.00  0.00     0.167 HD
BRANCH  13  15
HETATM   15  C20 UNL     1      -0.682   3.928   3.651  1.00  0.00     0.174 C 
BRANCH  15  16
HETATM   16  C21 UNL     1      -1.035   2.516   4.021  1.00  0.00     0.214 C 
HETATM   17  O2  UNL     1      -2.203   2.153   3.883  1.00  0.00    -0.643 OA
HETATM   18  O3  UNL     1      -0.062   1.676   4.499  1.00  0.00    -0.643 OA
ENDBRANCH  15  16
ENDBRANCH  13  15
ENDBRANCH   9  13
BRANCH   2  19
HETATM   19  C6  UNL     1      -4.354  10.319   6.393  1.00  0.00     0.077 C 
BRANCH  19  20
HETATM   20  C7  UNL     1      -3.944  11.667   5.826  1.00  0.00     0.135 C 
BRANCH  20  21
HETATM   21  N2  UNL     1      -2.520  11.849   5.781  1.00  0.00    -0.345 N 
HETATM   22  C8  UNL     1      -1.726  12.129   6.851  1.00  0.00     0.235 A 
HETATM   23  O1  UNL     1      -0.474  12.230   6.468  1.00  0.00    -0.309 OA
HETATM   24  C9  UNL     1      -0.370  12.031   5.171  1.00  0.00     0.070 A 
HETATM   25  C13 UNL     1      -1.656  11.792   4.743  1.00  0.00     0.124 A 
BRANCH  24  26
HETATM   26  C10 UNL     1       0.884  12.071   4.416  1.00  0.00     0.066 C 
BRANCH  26  27
HETATM   27  C11 UNL     1       0.836  13.051   3.259  1.00  0.00     0.002 C 
HETATM   28  C12 UNL     1       0.717  12.340   1.937  1.00  0.00     0.005 C 
ENDBRANCH  26  27
ENDBRANCH  24  26
ENDBRANCH  20  21
ENDBRANCH  19  20
ENDBRANCH   2  19
BRANCH   1  29
HETATM   29  C4  UNL     1      -2.165   8.140   6.822  1.00  0.00     0.130 C 
BRANCH  29  30
HETATM   30  C3  UNL     1      -0.759   8.599   6.505  1.00  0.00     0.020 C 
BRANCH  30  31
HETATM   31  C2  UNL     1       0.013   8.907   7.779  1.00  0.00    -0.003 C 
HETATM   32  C1  UNL     1       1.479   9.207   7.451  1.00  0.00     0.005 C 
ENDBRANCH  30  31
ENDBRANCH  29  30
ENDBRANCH   1  29
TORSDOF 11
ENDMDL
MODEL 4
REMARK VINA RESULT: -6.065316254      3.908      9.586
REMARK  11 active torsions:
REMARK  status: ('A' for Active; 'I' for Inactive)
REMARK    1  A    between atoms: C2_2  and  C3_3 
REMARK    2  A    between atoms: C3_3  and  C4_4 
REMARK    3  A    between atoms: C4_4  and  N1_5 
REMARK    4  A    between atoms: C5_6  and  C6_7 
REMARK    5  A    between atoms: C6_7  and  C7_8 
REMARK    6  A    between atoms: C7_8  and  N2_9 
REMARK    7  A    between atoms: C9_12  and  C10_13 
REMARK    8  A    between atoms: C10_13  and  C11_14 
REMARK    9  A    between atoms: C19_23  and  N4_24 
REMARK   10  A    between atoms: N4_24  and  C20_26 
REMARK   11  A    between atoms: C20_26  and  C21_27 
ROOT
HETATM    1  N1  UNL     1       2.599  12.066   6.826  1.00  0.00    -0.336 N 
HETATM    2  C5  UNL     1       1.574  12.717   6.247  1.00  0.00     0.015 A 
HETATM    3  C14 UNL     1       1.594  14.015   6.703  1.00  0.00     0.040 A 
HETATM    4  C15 UNL     1       2.665  14.161   7.588  1.00  0.00     0.012 A 
HETATM    5  C16 UNL     1       3.147  15.210   8.322  1.00  0.00     0.041 A 
HETATM    6  C17 UNL     1       4.267  14.989   9.120  1.00  0.00     0.089 A 
HETATM    7  C18 UNL     1       4.795  16.096   9.908  1.00  0.00     0.103 C 
HETATM    8  N3  UNL     1       5.185  16.977  10.509  1.00  0.00    -0.191 NA
HETATM    9  C19 UNL     1       4.868  13.757   9.172  1.00  0.00     0.128 A 
HETATM   10  N5  UNL     1       4.327  12.742   8.405  1.00  0.00    -0.327 N 
ATOM     11  H5  UNL     1       4.763  11.820   8.433  1.00  0.00     0.169 HD
HETATM   12  C22 UNL     1       3.262  12.923   7.635  1.00  0.00     0.119 A 
ENDROOT
BRANCH   9  13
HETATM   13  N4  UNL     1       5.853  13.439   9.833  1.00  0.00    -0.345 N 
ATOM     14  H4  UNL     1       6.573  13.154   9.170  1.00  0.00     0.167 HD
BRANCH  13  15
HETATM   15  C20 UNL     1       6.396  13.306  11.084  1.00  0.00     0.174 C 
BRANCH  15  16
HETATM   16  C21 UNL     1       6.207  11.960  11.723  1.00  0.00     0.214 C 
HETATM   17  O2  UNL     1       5.063  11.603  12.000  1.00  0.00    -0.643 OA
HETATM   18  O3  UNL     1       7.299  11.172  11.979  1.00  0.00    -0.643 OA
ENDBRANCH  15  16
ENDBRANCH  13  15
ENDBRANCH   9  13
BRANCH   2  19
HETATM   19  C6  UNL     1       0.573  12.195   5.285  1.00  0.00     0.077 C 
BRANCH  19  20
HETATM   20  C7  UNL     1      -0.849  12.560   5.674  1.00  0.00     0.135 C 
BRANCH  20  21
HETATM   21  N2  UNL     1      -1.636  11.423   6.063  1.00  0.00    -0.345 N 
HETATM   22  C8  UNL     1      -2.872  11.475   6.631  1.00  0.00     0.235 A 
HETATM   23  O1  UNL     1      -3.314  10.260   6.859  1.00  0.00    -0.309 OA
HETATM   24  C9  UNL     1      -2.429   9.366   6.471  1.00  0.00     0.070 A 
HETATM   25  C13 UNL     1      -1.377  10.099   5.971  1.00  0.00     0.124 A 
BRANCH  24  26
HETATM   26  C10 UNL     1      -2.600   7.916   6.580  1.00  0.00     0.066 C 
BRANCH  26  27
HETATM   27  C11 UNL     1      -2.599   7.226   5.229  1.00  0.00     0.002 C 
HETATM   28  C12 UNL     1      -1.620   6.081   5.194  1.00  0.00     0.005 C 
ENDBRANCH  26  27
ENDBRANCH  24  26
ENDBRANCH  20  21
ENDBRANCH  19  20
ENDBRANCH   2  19
BRANCH   1  29
HETATM   29  C4  UNL     1       2.945  10.680   6.626  1.00  0.00     0.130 C 
BRANCH  29  30
HETATM   30  C3  UNL     1       2.081   9.753   7.451  1.00  0.00     0.020 C 
BRANCH  30  31
HETATM   31  C2  UNL     1       2.242   8.310   6.997  1.00  0.00    -0.003 C 
HETATM   32  C1  UNL     1       1.012   7.488   7.395  1.00  0.00     0.005 C 
ENDBRANCH  30  31
ENDBRANCH  29  30
ENDBRANCH   1  29
TORSDOF 11
ENDMDL
MODEL 5
REMARK VINA RESULT: -5.962778773      2.010      3.862
REMARK  11 active torsions:
REMARK  status: ('A' for Active; 'I' for Inactive)
REMARK    1  A    between atoms: C2_2  and  C3_3 
REMARK    2  A    between atoms: C3_3  and  C4_4 
REMARK    3  A    between atoms: C4_4  and  N1_5 
REMARK    4  A    between atoms: C5_6  and  C6_7 
REMARK    5  A    between atoms: C6_7  and  C7_8 
REMARK    6  A    between atoms: C7_8  and  N2_9 
REMARK    7  A    between atoms: C9_12  and  C10_13 
REMARK    8  A    between atoms: C10_13  and  C11_14 
REMARK    9  A    between atoms: C19_23  and  N4_24 
REMARK   10  A    between atoms: N4_24  and  C20_26 
REMARK   11  A    between atoms: C20_26  and  C21_27 
ROOT
HETATM    1  N1  UNL     1      -3.789   8.652   4.858  1.00  0.00    -0.336 N 
HETATM    2  C5  UNL     1      -3.259   8.938   6.061  1.00  0.00     0.015 A 
HETATM    3  C14 UNL     1      -2.310   7.981   6.336  1.00  0.00     0.040 A 
HETATM    4  C15 UNL     1      -2.258   7.082   5.267  1.00  0.00     0.012 A 
HETATM    5  C16 UNL     1      -1.515   5.963   5.009  1.00  0.00     0.041 A 
HETATM    6  C17 UNL     1      -1.735   5.296   3.805  1.00  0.00     0.089 A 
HETATM    7  C18 UNL     1      -0.952   4.102   3.514  1.00  0.00     0.103 C 
HETATM    8  N3  UNL     1      -0.326   3.176   3.313  1.00  0.00    -0.191 NA
HETATM    9  C19 UNL     1      -2.668   5.746   2.907  1.00  0.00     0.128 A 
HETATM   10  N5  UNL     1      -3.384   6.883   3.233  1.00  0.00    -0.327 N 
ATOM     11  H5  UNL     1      -4.081   7.230   2.575  1.00  0.00     0.169 HD
HETATM   12  C22 UNL     1      -3.196   7.539   4.371  1.00  0.00     0.119 A 
ENDROOT
BRANCH   9  13
HETATM   13  N4  UNL     1      -2.952   5.248   1.820  1.00  0.00    -0.345 N 
ATOM     14  H4  UNL     1      -2.300   4.478   1.671  1.00  0.00     0.167 HD
BRANCH  13  15
HETATM   15  C20 UNL     1      -3.773   5.287   0.724  1.00  0.00     0.174 C 
BRANCH  15  16
HETATM   16  C21 UNL     1      -5.088   4.580   0.884  1.00  0.00     0.214 C 
HETATM   17  O2  UNL     1      -5.153   3.394   0.565  1.00  0.00    -0.643 OA
HETATM   18  O3  UNL     1      -6.170   5.264   1.375  1.00  0.00    -0.643 OA
ENDBRANCH  15  16
ENDBRANCH  13  15
ENDBRANCH   9  13
BRANCH   2  19
HETATM   19  C6  UNL     1      -3.589  10.060   6.974  1.00  0.00     0.077 C 
BRANCH  19  20
HETATM   20  C7  UNL     1      -2.918  11.359   6.560  1.00  0.00     0.135 C 
BRANCH  20  21
HETATM   21  N2  UNL     1      -1.495  11.235   6.414  1.00  0.00    -0.345 N 
HETATM   22  C8  UNL     1      -0.798  11.439   5.262  1.00  0.00     0.235 A 
HETATM   23  O1  UNL     1       0.484  11.248   5.471  1.00  0.00    -0.309 OA
HETATM   24  C9  UNL     1       0.703  10.919   6.727  1.00  0.00     0.070 A 
HETATM   25  C13 UNL     1      -0.541  10.912   7.316  1.00  0.00     0.124 A 
BRANCH  24  26
HETATM   26  C10 UNL     1       2.020  10.635   7.300  1.00  0.00     0.066 C 
BRANCH  26  27
HETATM   27  C11 UNL     1       3.136  11.384   6.597  1.00  0.00     0.002 C 
HETATM   28  C12 UNL     1       3.419  12.705   7.263  1.00  0.00     0.005 C 
ENDBRANCH  26  27
ENDBRANCH  24  26
ENDBRANCH  20  21
ENDBRANCH  19  20
ENDBRANCH   2  19
BRANCH   1  29
HETATM   29  C4  UNL     1      -4.822   9.403   4.187  1.00  0.00     0.130 C 
BRANCH  29  30
HETATM   30  C3  UNL     1      -4.250  10.451   3.259  1.00  0.00     0.020 C 
BRANCH  30  31
HETATM   31  C2  UNL     1      -4.556  10.118   1.806  1.00  0.00    -0.003 C 
HETATM   32  C1  UNL     1      -5.714   9.120   1.723  1.00  0.00     0.005 C 
ENDBRANCH  30  31
ENDBRANCH  29  30
ENDBRANCH   1  29
TORSDOF 11
ENDMDL
