MODEL 1
REMARK VINA RESULT: -6.238654294      0.000      0.000
REMARK  10 active torsions:
REMARK  status: ('A' for Active; 'I' for Inactive)
REMARK    1  A    between atoms: O1_2  and  C2_3 
REMARK    2  A    between atoms: C2_3  and  C3_4 
REMARK    3  A    between atoms: C3_4  and  C4_5 
REMARK    4  A    between atoms: C4_5  and  S1_6 
REMARK    5  A    between atoms: S1_6  and  N1_9 
REMARK    6  A    between atoms: N1_9  and  C5_11 
REMARK    7  A    between atoms: C5_11  and  C6_12 
REMARK    8  A    between atoms: C10_16  and  O4_17 
REMARK    9  A    between atoms: N3_24  and  C14_25 
REMARK   10  A    between atoms: C14_25  and  C15_26 
ROOT
HETATM    1  C6  UNL     1      -0.796  11.839   5.657  1.00  0.00     0.010 C 
HETATM    2  C7  UNL     1      -0.804  13.207   6.229  1.00  0.00     0.042 C 
HETATM    3  C8  UNL     1       0.507  13.904   6.308  1.00  0.00     0.230 C 
HETATM    4  C9  UNL     1       1.326  13.513   7.514  1.00  0.00     0.097 C 
HETATM    5  C10 UNL     1       2.734  13.237   7.018  1.00  0.00     0.325 C 
HETATM    6  N2  UNL     1       2.651  12.065   6.182  1.00  0.00    -0.017 N 
ATOM      7  H21 UNL     1       2.464  11.223   6.727  1.00  0.00     0.282 HD
ATOM      8  H22 UNL     1       3.562  11.803   5.804  1.00  0.00     0.282 HD
HETATM    9  C12 UNL     1       1.648  12.262   5.113  1.00  0.00     0.423 C 
HETATM   10  C13 UNL     1       0.520  11.285   5.285  1.00  0.00     0.072 C 
HETATM   11  N3  UNL     1       1.286  13.628   5.121  1.00  0.00     0.124 N 
ENDROOT
BRANCH   1  12
HETATM   12  C5  UNL     1      -1.497  10.917   6.653  1.00  0.00     0.136 C 
BRANCH  12  13
HETATM   13  N1  UNL     1      -0.649  10.565   7.746  1.00  0.00    -0.319 N 
ATOM     14  H1  UNL     1      -0.293  11.230   8.433  1.00  0.00     0.172 HD
BRANCH  13  15
HETATM   15  S1  UNL     1      -0.301   8.878   7.762  1.00  0.00     0.226 S 
HETATM   16  O2  UNL     1      -0.677   8.269   9.077  1.00  0.00    -0.206 OA
HETATM   17  O3  UNL     1       1.176   8.667   7.573  1.00  0.00    -0.206 OA
BRANCH  15  18
HETATM   18  C4  UNL     1      -1.197   8.064   6.462  1.00  0.00     0.165 C 
BRANCH  18  19
HETATM   19  C3  UNL     1      -0.279   7.142   5.701  1.00  0.00     0.043 C 
BRANCH  19  20
HETATM   20  C2  UNL     1      -1.014   6.055   4.987  1.00  0.00     0.168 C 
BRANCH  20  21
HETATM   21  O1  UNL     1      -0.271   5.481   3.969  1.00  0.00    -0.396 OA
HETATM   22  C1  UNL     1      -0.994   4.594   3.200  1.00  0.00     0.201 C 
ENDBRANCH  20  21
ENDBRANCH  19  20
ENDBRANCH  18  19
ENDBRANCH  15  18
ENDBRANCH  13  15
ENDBRANCH  12  13
ENDBRANCH   1  12
BRANCH  11  23
HETATM   23  C14 UNL     1       0.722  14.184   3.943  1.00  0.00     0.280 C 
BRANCH  23  24
HETATM   24  C15 UNL     1       1.136  13.409   2.721  1.00  0.00     0.014 C 
HETATM   25  C16 UNL     1      -0.156  12.988   1.979  1.00  0.00     0.006 C 
HETATM   26  C17 UNL     1       0.313  12.071   0.865  1.00  0.00     0.000 C 
HETATM   27  C18 UNL     1       1.087  12.896  -0.112  1.00  0.00     0.000 C 
HETATM   28  C19 UNL     1       2.222  13.660   0.475  1.00  0.00     0.000 C 
HETATM   29  C20 UNL     1       1.922  14.288   1.805  1.00  0.00     0.006 C 
ENDBRANCH  23  24
ENDBRANCH  11  23
BRANCH   5  30
HETATM   30  O4  UNL     1       3.608  12.985   8.050  1.00  0.00    -0.364 OA
HETATM   31  C11 UNL     1       4.890  13.417   7.756  1.00  0.00     0.204 C 
ENDBRANCH   5  30
TORSDOF 10
ENDMDL
MODEL 2
REMARK VINA RESULT: -5.914335633      5.114      9.143
REMARK  10 active torsions:
REMARK  status: ('A' for Active; 'I' for Inactive)
REMARK    1  A    between atoms: O1_2  and  C2_3 
REMARK    2  A    between atoms: C2_3  and  C3_4 
REMARK    3  A    between atoms: C3_4  and  C4_5 
REMARK    4  A    between atoms: C4_5  and  S1_6 
REMARK    5  A    between atoms: S1_6  and  N1_9 
REMARK    6  A    between atoms: N1_9  and  C5_11 
REMARK    7  A    between atoms: C5_11  and  C6_12 
REMARK    8  A    between atoms: C10_16  and  O4_17 
REMARK    9  A    between atoms: N3_24  and  C14_25 
REMARK   10  A    between atoms: C14_25  and  C15_26 
ROOT
HETATM    1  C6  UNL     1       5.390  14.262   9.325  1.00  0.00     0.010 C 
HETATM    2  C7  UNL     1       5.325  15.257  10.422  1.00  0.00     0.042 C 
HETATM    3  C8  UNL     1       5.501  14.739  11.804  1.00  0.00     0.230 C 
HETATM    4  C9  UNL     1       4.240  14.156  12.394  1.00  0.00     0.097 C 
HETATM    5  C10 UNL     1       4.621  12.822  13.013  1.00  0.00     0.325 C 
HETATM    6  N2  UNL     1       5.000  11.958  11.922  1.00  0.00    -0.017 N 
ATOM      7  H21 UNL     1       4.196  11.691  11.354  1.00  0.00     0.282 HD
ATOM      8  H22 UNL     1       5.270  11.030  12.250  1.00  0.00     0.282 HD
HETATM    9  C12 UNL     1       6.064  12.587  11.110  1.00  0.00     0.423 C 
HETATM   10  C13 UNL     1       5.556  12.850   9.721  1.00  0.00     0.072 C 
HETATM   11  N3  UNL     1       6.526  13.717  11.822  1.00  0.00     0.124 N 
ENDROOT
BRANCH   1  12
HETATM   12  C5  UNL     1       4.132  14.428   8.475  1.00  0.00     0.136 C 
BRANCH  12  13
HETATM   13  N1  UNL     1       3.113  13.494   8.835  1.00  0.00    -0.319 N 
ATOM     14  H1  UNL     1       2.927  13.190   9.790  1.00  0.00     0.172 HD
BRANCH  13  15
HETATM   15  S1  UNL     1       2.239  12.945   7.456  1.00  0.00     0.226 S 
HETATM   16  O2  UNL     1       2.468  13.850   6.286  1.00  0.00    -0.206 OA
HETATM   17  O3  UNL     1       0.766  12.959   7.756  1.00  0.00    -0.206 OA
BRANCH  15  18
HETATM   18  C4  UNL     1       2.752  11.297   7.032  1.00  0.00     0.165 C 
BRANCH  18  19
HETATM   19  C3  UNL     1       1.546  10.428   6.789  1.00  0.00     0.043 C 
BRANCH  19  20
HETATM   20  C2  UNL     1       1.668   9.080   7.424  1.00  0.00     0.168 C 
BRANCH  20  21
HETATM   21  O1  UNL     1       0.551   8.730   8.163  1.00  0.00    -0.396 OA
HETATM   22  C1  UNL     1      -0.594   9.386   7.765  1.00  0.00     0.201 C 
ENDBRANCH  20  21
ENDBRANCH  19  20
ENDBRANCH  18  19
ENDBRANCH  15  18
ENDBRANCH  13  15
ENDBRANCH  12  13
ENDBRANCH   1  12
BRANCH  11  23
HETATM   23  C14 UNL     1       7.819  14.220  11.524  1.00  0.00     0.280 C 
BRANCH  23  24
HETATM   24  C15 UNL     1       8.624  14.432  12.778  1.00  0.00     0.014 C 
HETATM   25  C16 UNL     1       8.583  13.113  13.585  1.00  0.00     0.006 C 
HETATM   26  C17 UNL     1       9.255  13.440  14.905  1.00  0.00     0.000 C 
HETATM   27  C18 UNL     1      10.701  13.697  14.630  1.00  0.00     0.000 C 
HETATM   28  C19 UNL     1      10.967  14.750  13.611  1.00  0.00     0.000 C 
HETATM   29  C20 UNL     1      10.049  14.707  12.425  1.00  0.00     0.006 C 
ENDBRANCH  23  24
ENDBRANCH  11  23
BRANCH   5  30
HETATM   30  O4  UNL     1       3.571  12.246  13.692  1.00  0.00    -0.364 OA
HETATM   31  C11 UNL     1       3.487  12.705  14.995  1.00  0.00     0.204 C 
ENDBRANCH   5  30
TORSDOF 10
ENDMDL
MODEL 3
REMARK VINA RESULT: -5.851933696      3.260      7.362
REMARK  10 active torsions:
REMARK  status: ('A' for Active; 'I' for Inactive)
REMARK    1  A    between atoms: O1_2  and  C2_3 
REMARK    2  A    between atoms: C2_3  and  C3_4 
REMARK    3  A    between atoms: C3_4  and  C4_5 
REMARK    4  A    between atoms: C4_5  and  S1_6 
REMARK    5  A    between atoms: S1_6  and  N1_9 
REMARK    6  A    between atoms: N1_9  and  C5_11 
REMARK    7  A    between atoms: C5_11  and  C6_12 
REMARK    8  A    between atoms: C10_16  and  O4_17 
REMARK    9  A    between atoms: N3_24  and  C14_25 
REMARK   10  A    between atoms: C14_25  and  C15_26 
ROOT
HETATM    1  C6  UNL     1       1.216  13.123   7.995  1.00  0.00     0.010 C 
HETATM    2  C7  UNL     1       0.032  13.724   7.336  1.00  0.00     0.042 C 
HETATM    3  C8  UNL     1      -0.400  13.111   6.052  1.00  0.00     0.230 C 
HETATM    4  C9  UNL     1       0.385  13.595   4.858  1.00  0.00     0.097 C 
HETATM    5  C10 UNL     1       0.773  12.364   4.059  1.00  0.00     0.325 C 
HETATM    6  N2  UNL     1       1.695  11.617   4.879  1.00  0.00    -0.017 N 
ATOM      7  H21 UNL     1       2.595  12.089   4.965  1.00  0.00     0.282 HD
ATOM      8  H22 UNL     1       2.013  10.766   4.415  1.00  0.00     0.282 HD
HETATM    9  C12 UNL     1       1.096  11.331   6.201  1.00  0.00     0.423 C 
HETATM   10  C13 UNL     1       1.884  12.020   7.278  1.00  0.00     0.072 C 
HETATM   11  N3  UNL     1      -0.274  11.671   6.126  1.00  0.00     0.124 N 
ENDROOT
BRANCH   1  12
HETATM   12  C5  UNL     1       2.209  14.249   8.278  1.00  0.00     0.136 C 
BRANCH  12  13
HETATM   13  N1  UNL     1       3.064  13.945   9.381  1.00  0.00    -0.319 N 
ATOM     14  H1  UNL     1       2.738  13.580  10.275  1.00  0.00     0.172 HD
BRANCH  13  15
HETATM   15  S1  UNL     1       4.715  14.275   9.013  1.00  0.00     0.226 S 
HETATM   16  O2  UNL     1       4.866  15.645   8.429  1.00  0.00    -0.206 OA
HETATM   17  O3  UNL     1       5.208  13.290   7.989  1.00  0.00    -0.206 OA
BRANCH  15  18
HETATM   18  C4  UNL     1       5.698  14.154  10.488  1.00  0.00     0.165 C 
BRANCH  18  19
HETATM   19  C3  UNL     1       6.456  12.851  10.497  1.00  0.00     0.043 C 
BRANCH  19  20
HETATM   20  C2  UNL     1       6.047  11.954  11.620  1.00  0.00     0.168 C 
BRANCH  20  21
HETATM   21  O1  UNL     1       7.127  11.412  12.297  1.00  0.00    -0.396 OA
HETATM   22  C1  UNL     1       7.576  12.206  13.330  1.00  0.00     0.201 C 
ENDBRANCH  20  21
ENDBRANCH  19  20
ENDBRANCH  18  19
ENDBRANCH  15  18
ENDBRANCH  13  15
ENDBRANCH  12  13
ENDBRANCH   1  12
BRANCH  11  23
HETATM   23  C14 UNL     1      -1.168  11.080   7.056  1.00  0.00     0.280 C 
BRANCH  23  24
HETATM   24  C15 UNL     1      -2.070  10.079   6.386  1.00  0.00     0.014 C 
HETATM   25  C16 UNL     1      -1.749   8.690   6.988  1.00  0.00     0.006 C 
HETATM   26  C17 UNL     1      -2.555   7.707   6.159  1.00  0.00     0.000 C 
HETATM   27  C18 UNL     1      -4.002   7.945   6.446  1.00  0.00     0.000 C 
HETATM   28  C19 UNL     1      -4.462   9.344   6.227  1.00  0.00     0.000 C 
HETATM   29  C20 UNL     1      -3.496  10.393   6.698  1.00  0.00     0.006 C 
ENDBRANCH  23  24
ENDBRANCH  11  23
BRANCH   5  30
HETATM   30  O4  UNL     1       1.395  12.688   2.875  1.00  0.00    -0.364 OA
HETATM   31  C11 UNL     1       0.653  12.289   1.777  1.00  0.00     0.204 C 
ENDBRANCH   5  30
TORSDOF 10
ENDMDL
MODEL 4
REMARK VINA RESULT: -5.850373753      3.173      7.240
REMARK  10 active torsions:
REMARK  status: ('A' for Active; 'I' for Inactive)
REMARK    1  A    between atoms: O1_2  and  C2_3 
REMARK    2  A    between atoms: C2_3  and  C3_4 
REMARK    3  A    between atoms: C3_4  and  C4_5 
REMARK    4  A    between atoms: C4_5  and  S1_6 
REMARK    5  A    between atoms: S1_6  and  N1_9 
REMARK    6  A    between atoms: N1_9  and  C5_11 
REMARK    7  A    between atoms: C5_11  and  C6_12 
REMARK    8  A    between atoms: C10_16  and  O4_17 
REMARK    9  A    between atoms: N3_24  and  C14_25 
REMARK   10  A    between atoms: C14_25  and  C15_26 
ROOT
HETATM    1  C6  UNL     1       1.872  12.674   7.563  1.00  0.00     0.010 C 
HETATM    2  C7  UNL     1       0.416  12.833   7.791  1.00  0.00     0.042 C 
HETATM    3  C8  UNL     1      -0.489  12.171   6.816  1.00  0.00     0.230 C 
HETATM    4  C9  UNL     1      -0.702  12.969   5.553  1.00  0.00     0.097 C 
HETATM    5  C10 UNL     1      -0.527  12.007   4.391  1.00  0.00     0.325 C 
HETATM    6  N2  UNL     1       0.858  11.608   4.394  1.00  0.00    -0.017 N 
ATOM      7  H21 UNL     1       1.473  12.372   4.113  1.00  0.00     0.282 HD
ATOM      8  H22 UNL     1       1.067  10.957   3.637  1.00  0.00     0.282 HD
HETATM    9  C12 UNL     1       1.234  11.056   5.713  1.00  0.00     0.423 C 
HETATM   10  C13 UNL     1       2.274  11.929   6.355  1.00  0.00     0.072 C 
HETATM   11  N3  UNL     1       0.042  10.875   6.450  1.00  0.00     0.124 N 
ENDROOT
BRANCH   1  12
HETATM   12  C5  UNL     1       2.495  14.068   7.558  1.00  0.00     0.136 C 
BRANCH  12  13
HETATM   13  N1  UNL     1       3.889  14.032   7.250  1.00  0.00    -0.319 N 
ATOM     14  H1  UNL     1       4.268  13.758   6.344  1.00  0.00     0.172 HD
BRANCH  13  15
HETATM   15  S1  UNL     1       4.849  14.509   8.598  1.00  0.00     0.226 S 
HETATM   16  O2  UNL     1       4.021  15.237   9.610  1.00  0.00    -0.206 OA
HETATM   17  O3  UNL     1       5.930  15.448   8.138  1.00  0.00    -0.206 OA
BRANCH  15  18
HETATM   18  C4  UNL     1       5.578  13.077   9.357  1.00  0.00     0.165 C 
BRANCH  18  19
HETATM   19  C3  UNL     1       6.169  13.446  10.693  1.00  0.00     0.043 C 
BRANCH  19  20
HETATM   20  C2  UNL     1       6.496  12.251  11.529  1.00  0.00     0.168 C 
BRANCH  20  21
HETATM   21  O1  UNL     1       5.369  11.597  11.998  1.00  0.00    -0.396 OA
HETATM   22  C1  UNL     1       4.998  11.992  13.265  1.00  0.00     0.201 C 
ENDBRANCH  20  21
ENDBRANCH  19  20
ENDBRANCH  18  19
ENDBRANCH  15  18
ENDBRANCH  13  15
ENDBRANCH  12  13
ENDBRANCH   1  12
BRANCH  11  23
HETATM   23  C14 UNL     1       0.047   9.951   7.527  1.00  0.00     0.280 C 
BRANCH  23  24
HETATM   24  C15 UNL     1      -0.720   8.703   7.181  1.00  0.00     0.014 C 
HETATM   25  C16 UNL     1      -2.076   9.144   6.580  1.00  0.00     0.006 C 
HETATM   26  C17 UNL     1      -2.868   7.860   6.417  1.00  0.00     0.000 C 
HETATM   27  C18 UNL     1      -2.203   7.045   5.355  1.00  0.00     0.000 C 
HETATM   28  C19 UNL     1      -0.760   6.765   5.592  1.00  0.00     0.000 C 
HETATM   29  C20 UNL     1       0.014   7.931   6.136  1.00  0.00     0.006 C 
ENDBRANCH  23  24
ENDBRANCH  11  23
BRANCH   5  30
HETATM   30  O4  UNL     1      -0.817  12.596   3.181  1.00  0.00    -0.364 OA
HETATM   31  C11 UNL     1       0.310  12.721   2.386  1.00  0.00     0.204 C 
ENDBRANCH   5  30
TORSDOF 10
ENDMDL
MODEL 5
REMARK VINA RESULT: -5.836182726      6.737     10.537
REMARK  10 active torsions:
REMARK  status: ('A' for Active; 'I' for Inactive)
REMARK    1  A    between atoms: O1_2  and  C2_3 
REMARK    2  A    between atoms: C2_3  and  C3_4 
REMARK    3  A    between atoms: C3_4  and  C4_5 
REMARK    4  A    between atoms: C4_5  and  S1_6 
REMARK    5  A    between atoms: S1_6  and  N1_9 
REMARK    6  A    between atoms: N1_9  and  C5_11 
REMARK    7  A    between atoms: C5_11  and  C6_12 
REMARK    8  A    between atoms: C10_16  and  O4_17 
REMARK    9  A    between atoms: N3_24  and  C14_25 
REMARK   10  A    between atoms: C14_25  and  C15_26 
ROOT
HETATM    1  C6  UNL     1       4.553  13.868  12.312  1.00  0.00     0.010 C 
HETATM    2  C7  UNL     1       4.831  12.413  12.384  1.00  0.00     0.042 C 
HETATM    3  C8  UNL     1       5.898  11.983  13.326  1.00  0.00     0.230 C 
HETATM    4  C9  UNL     1       7.291  12.120  12.762  1.00  0.00     0.097 C 
HETATM    5  C10 UNL     1       8.132  12.795  13.830  1.00  0.00     0.325 C 
HETATM    6  N2  UNL     1       7.615  14.134  13.973  1.00  0.00    -0.017 N 
ATOM      7  H21 UNL     1       7.828  14.711  13.159  1.00  0.00     0.282 HD
ATOM      8  H22 UNL     1       8.129  14.667  14.675  1.00  0.00     0.282 HD
HETATM    9  C12 UNL     1       6.165  14.101  14.260  1.00  0.00     0.423 C 
HETATM   10  C13 UNL     1       5.407  14.745  13.135  1.00  0.00     0.072 C 
HETATM   11  N3  UNL     1       5.823  12.760  14.545  1.00  0.00     0.124 N 
ENDROOT
BRANCH   1  12
HETATM   12  C5  UNL     1       4.627  14.281  10.844  1.00  0.00     0.136 C 
BRANCH  12  13
HETATM   13  N1  UNL     1       4.443  13.172   9.964  1.00  0.00    -0.319 N 
ATOM     14  H1  UNL     1       4.514  12.196  10.250  1.00  0.00     0.172 HD
BRANCH  13  15
HETATM   15  S1  UNL     1       4.086  13.687   8.359  1.00  0.00     0.226 S 
HETATM   16  O2  UNL     1       5.203  13.337   7.427  1.00  0.00    -0.206 OA
HETATM   17  O3  UNL     1       3.930  15.183   8.335  1.00  0.00    -0.206 OA
BRANCH  15  18
HETATM   18  C4  UNL     1       2.588  12.915   7.796  1.00  0.00     0.165 C 
BRANCH  18  19
HETATM   19  C3  UNL     1       2.907  11.622   7.091  1.00  0.00     0.043 C 
BRANCH  19  20
HETATM   20  C2  UNL     1       1.751  10.675   7.071  1.00  0.00     0.168 C 
BRANCH  20  21
HETATM   21  O1  UNL     1       1.969   9.543   7.838  1.00  0.00    -0.396 OA
HETATM   22  C1  UNL     1       2.315   8.437   7.092  1.00  0.00     0.201 C 
ENDBRANCH  20  21
ENDBRANCH  19  20
ENDBRANCH  18  19
ENDBRANCH  15  18
ENDBRANCH  13  15
ENDBRANCH  12  13
ENDBRANCH   1  12
BRANCH  11  23
HETATM   23  C14 UNL     1       4.643  12.508  15.293  1.00  0.00     0.280 C 
BRANCH  23  24
HETATM   24  C15 UNL     1       4.289  13.682  16.166  1.00  0.00     0.014 C 
HETATM   25  C16 UNL     1       2.751  13.852  16.114  1.00  0.00     0.006 C 
HETATM   26  C17 UNL     1       2.474  15.143  16.861  1.00  0.00     0.000 C 
HETATM   27  C18 UNL     1       2.805  14.917  18.301  1.00  0.00     0.000 C 
HETATM   28  C19 UNL     1       4.188  14.429  18.557  1.00  0.00     0.000 C 
HETATM   29  C20 UNL     1       4.668  13.395  17.581  1.00  0.00     0.006 C 
ENDBRANCH  23  24
ENDBRANCH  11  23
BRANCH   5  30
HETATM   30  O4  UNL     1       9.460  12.868  13.477  1.00  0.00    -0.364 OA
HETATM   31  C11 UNL     1      10.291  12.837  14.584  1.00  0.00     0.204 C 
ENDBRANCH   5  30
TORSDOF 10
ENDMDL
