MODEL 1
REMARK VINA RESULT: -6.264128336      0.000      0.000
REMARK  12 active torsions:
REMARK  status: ('A' for Active; 'I' for Inactive)
REMARK    1  A    between atoms: C2_2  and  N1_3 
REMARK    2  A    between atoms: N1_3  and  C3_5 
REMARK    3  A    between atoms: C3_5  and  C4_6 
REMARK    4  A    between atoms: C3_5  and  C16_25 
REMARK    5  A    between atoms: C4_6  and  C5_7 
REMARK    6  A    between atoms: C5_7  and  C6_8 
REMARK    7  A    between atoms: C6_8  and  C7_9 
REMARK    8  A    between atoms: C7_9  and  C8_10 
REMARK    9  A    between atoms: C8_10  and  C9_11 
REMARK   10  A    between atoms: C9_11  and  N2_12 
REMARK       I    between atoms: C10_14  and  N3_15 
REMARK       I    between atoms: C10_14  and  N5_19 
REMARK   11  A    between atoms: C16_25  and  N6_27 
REMARK   12  A    between atoms: N6_27  and  C18_30 
ROOT
HETATM    1  N2  UNL     1       0.921  12.502   7.788  1.00  0.00    -0.205 N 
ATOM      2  H2  UNL     1       1.224  11.909   8.560  1.00  0.00     0.183 HD
HETATM    3  C10 UNL     1       0.535  11.732   6.955  1.00  0.00     0.689 C 
HETATM    4  N3  UNL     1       0.009  12.104   5.676  1.00  0.00    -0.126 N 
ATOM      5  H3  UNL     1      -1.003  12.134   5.553  1.00  0.00     0.197 HD
HETATM    6  C11 UNL     1       0.824  12.425   4.598  1.00  0.00     0.196 C 
HETATM    7  N4  UNL     1       1.492  12.710   3.697  1.00  0.00    -0.171 NA
HETATM    8  N5  UNL     1       0.603  10.315   7.227  1.00  0.00    -0.213 N 
HETATM    9  C12 UNL     1       1.892   9.642   7.282  1.00  0.00     0.167 C 
HETATM   10  C13 UNL     1       1.671   8.213   6.849  1.00  0.00     0.188 C 
HETATM   11  O1  UNL     1       0.793   7.534   7.658  1.00  0.00    -0.388 OA
HETATM   12  C14 UNL     1      -0.137   8.328   8.277  1.00  0.00     0.188 C 
HETATM   13  C15 UNL     1      -0.580   9.523   7.458  1.00  0.00     0.167 C 
ENDROOT
BRANCH   1  14
HETATM   14  C9  UNL     1       1.160  13.779   8.224  1.00  0.00     0.079 C 
BRANCH  14  15
HETATM   15  C8  UNL     1       2.236  14.501   7.458  1.00  0.00     0.045 C 
BRANCH  15  16
HETATM   16  C7  UNL     1       3.587  14.030   7.861  1.00  0.00     0.005 C 
BRANCH  16  17
HETATM   17  C6  UNL     1       3.833  14.466   9.298  1.00  0.00     0.001 C 
BRANCH  17  18
HETATM   18  C5  UNL     1       5.278  14.639   9.640  1.00  0.00     0.006 C 
BRANCH  18  19
HETATM   19  C4  UNL     1       6.012  13.348   9.723  1.00  0.00     0.054 C 
BRANCH  19  20
HETATM   20  C3  UNL     1       6.749  13.212  11.044  1.00  0.00     0.016 C 
BRANCH  20  21
HETATM   21  N1  UNL     1       7.578  13.951  11.438  1.00  0.00    -0.375 N 
ATOM     22  H1  UNL     1       7.567  13.749  12.438  1.00  0.00     0.164 HD
BRANCH  21  23
HETATM   23  C2  UNL     1       8.532  14.902  11.370  1.00  0.00     0.056 C 
HETATM   24  C1  UNL     1       9.901  14.503  11.909  1.00  0.00     0.054 C 
ENDBRANCH  21  23
ENDBRANCH  20  21
BRANCH  20  25
HETATM   25  C16 UNL     1       6.299  11.993  11.820  1.00  0.00     0.227 C 
HETATM   26  C17 UNL     1       7.153  11.771  13.039  1.00  0.00     0.046 C 
BRANCH  25  27
HETATM   27  N6  UNL     1       4.907  11.987  12.097  1.00  0.00    -0.062 N 
ATOM     28  H62 UNL     1       4.365  12.284  11.286  1.00  0.00     0.278 HD
ATOM     29  H61 UNL     1       4.550  11.035  12.187  1.00  0.00     0.278 HD
BRANCH  27  30
HETATM   30  C18 UNL     1       4.595  12.767  13.243  1.00  0.00     0.186 C 
HETATM   31  C19 UNL     1       3.830  11.992  14.317  1.00  0.00     0.033 C 
HETATM   32  C20 UNL     1       3.307  13.097  15.213  1.00  0.00     0.002 C 
HETATM   33  C21 UNL     1       3.341  14.373  14.380  1.00  0.00     0.002 C 
HETATM   34  C22 UNL     1       3.572  13.877  12.967  1.00  0.00     0.033 C 
ENDBRANCH  27  30
ENDBRANCH  25  27
ENDBRANCH  20  25
ENDBRANCH  19  20
ENDBRANCH  18  19
ENDBRANCH  17  18
ENDBRANCH  16  17
ENDBRANCH  15  16
ENDBRANCH  14  15
ENDBRANCH   1  14
TORSDOF 12
ENDMDL
MODEL 2
REMARK VINA RESULT: -6.035007128      2.928      7.942
REMARK  12 active torsions:
REMARK  status: ('A' for Active; 'I' for Inactive)
REMARK    1  A    between atoms: C2_2  and  N1_3 
REMARK    2  A    between atoms: N1_3  and  C3_5 
REMARK    3  A    between atoms: C3_5  and  C4_6 
REMARK    4  A    between atoms: C3_5  and  C16_25 
REMARK    5  A    between atoms: C4_6  and  C5_7 
REMARK    6  A    between atoms: C5_7  and  C6_8 
REMARK    7  A    between atoms: C6_8  and  C7_9 
REMARK    8  A    between atoms: C7_9  and  C8_10 
REMARK    9  A    between atoms: C8_10  and  C9_11 
REMARK   10  A    between atoms: C9_11  and  N2_12 
REMARK       I    between atoms: C10_14  and  N3_15 
REMARK       I    between atoms: C10_14  and  N5_19 
REMARK   11  A    between atoms: C16_25  and  N6_27 
REMARK   12  A    between atoms: N6_27  and  C18_30 
ROOT
HETATM    1  N2  UNL     1       4.167  14.620  12.542  1.00  0.00    -0.205 N 
ATOM      2  H2  UNL     1       4.066  15.340  13.257  1.00  0.00     0.183 HD
HETATM    3  C10 UNL     1       4.315  13.605  13.161  1.00  0.00     0.689 C 
HETATM    4  N3  UNL     1       4.500  12.309  12.579  1.00  0.00    -0.126 N 
ATOM      5  H3  UNL     1       3.696  11.685  12.507  1.00  0.00     0.197 HD
HETATM    6  C11 UNL     1       5.731  11.871  12.108  1.00  0.00     0.196 C 
HETATM    7  N4  UNL     1       6.748  11.501  11.699  1.00  0.00    -0.171 NA
HETATM    8  N5  UNL     1       4.323  13.660  14.604  1.00  0.00    -0.213 N 
HETATM    9  C12 UNL     1       5.439  14.275  15.306  1.00  0.00     0.167 C 
HETATM   10  C13 UNL     1       5.565  13.585  16.642  1.00  0.00     0.188 C 
HETATM   11  O1  UNL     1       4.441  13.711  17.422  1.00  0.00    -0.388 OA
HETATM   12  C14 UNL     1       3.277  13.868  16.716  1.00  0.00     0.188 C 
HETATM   13  C15 UNL     1       3.243  13.125  15.396  1.00  0.00     0.167 C 
ENDROOT
BRANCH   1  14
HETATM   14  C9  UNL     1       4.065  15.300  11.356  1.00  0.00     0.079 C 
BRANCH  14  15
HETATM   15  C8  UNL     1       5.304  15.240  10.504  1.00  0.00     0.045 C 
BRANCH  15  16
HETATM   16  C7  UNL     1       5.016  15.672   9.111  1.00  0.00     0.005 C 
BRANCH  16  17
HETATM   17  C6  UNL     1       5.501  14.582   8.165  1.00  0.00     0.001 C 
BRANCH  17  18
HETATM   18  C5  UNL     1       4.947  13.227   8.466  1.00  0.00     0.006 C 
BRANCH  18  19
HETATM   19  C4  UNL     1       4.176  12.652   7.332  1.00  0.00     0.054 C 
BRANCH  19  20
HETATM   20  C3  UNL     1       2.679  12.755   7.569  1.00  0.00     0.016 C 
BRANCH  20  21
HETATM   21  N1  UNL     1       2.168  13.407   8.407  1.00  0.00    -0.375 N 
ATOM     22  H1  UNL     1       2.671  13.095   9.237  1.00  0.00     0.164 HD
BRANCH  21  23
HETATM   23  C2  UNL     1       1.322  14.316   8.936  1.00  0.00     0.056 C 
HETATM   24  C1  UNL     1       1.411  15.720   8.349  1.00  0.00     0.054 C 
ENDBRANCH  21  23
ENDBRANCH  20  21
BRANCH  20  25
HETATM   25  C16 UNL     1       1.893  11.907   6.593  1.00  0.00     0.227 C 
HETATM   26  C17 UNL     1       1.687  12.623   5.285  1.00  0.00     0.046 C 
BRANCH  25  27
HETATM   27  N6  UNL     1       2.414  10.596   6.443  1.00  0.00    -0.062 N 
ATOM     28  H62 UNL     1       2.412  10.304   5.465  1.00  0.00     0.278 HD
ATOM     29  H61 UNL     1       3.420  10.574   6.613  1.00  0.00     0.278 HD
BRANCH  27  30
HETATM   30  C18 UNL     1       1.729   9.660   7.264  1.00  0.00     0.186 C 
HETATM   31  C19 UNL     1       1.802   8.224   6.742  1.00  0.00     0.033 C 
HETATM   32  C20 UNL     1       0.723   7.524   7.542  1.00  0.00     0.002 C 
HETATM   33  C21 UNL     1      -0.204   8.620   8.056  1.00  0.00     0.002 C 
HETATM   34  C22 UNL     1       0.205   9.844   7.261  1.00  0.00     0.033 C 
ENDBRANCH  27  30
ENDBRANCH  25  27
ENDBRANCH  20  25
ENDBRANCH  19  20
ENDBRANCH  18  19
ENDBRANCH  17  18
ENDBRANCH  16  17
ENDBRANCH  15  16
ENDBRANCH  14  15
ENDBRANCH   1  14
TORSDOF 12
ENDMDL
MODEL 3
REMARK VINA RESULT: -5.979561087      2.806      8.745
REMARK  12 active torsions:
REMARK  status: ('A' for Active; 'I' for Inactive)
REMARK    1  A    between atoms: C2_2  and  N1_3 
REMARK    2  A    between atoms: N1_3  and  C3_5 
REMARK    3  A    between atoms: C3_5  and  C4_6 
REMARK    4  A    between atoms: C3_5  and  C16_25 
REMARK    5  A    between atoms: C4_6  and  C5_7 
REMARK    6  A    between atoms: C5_7  and  C6_8 
REMARK    7  A    between atoms: C6_8  and  C7_9 
REMARK    8  A    between atoms: C7_9  and  C8_10 
REMARK    9  A    between atoms: C8_10  and  C9_11 
REMARK   10  A    between atoms: C9_11  and  N2_12 
REMARK       I    between atoms: C10_14  and  N3_15 
REMARK       I    between atoms: C10_14  and  N5_19 
REMARK   11  A    between atoms: C16_25  and  N6_27 
REMARK   12  A    between atoms: N6_27  and  C18_30 
ROOT
HETATM    1  N2  UNL     1       3.776  14.079  11.429  1.00  0.00    -0.205 N 
ATOM      2  H2  UNL     1       3.356  14.719  12.103  1.00  0.00     0.183 HD
HETATM    3  C10 UNL     1       4.334  13.261  12.103  1.00  0.00     0.689 C 
HETATM    4  N3  UNL     1       5.076  12.147  11.594  1.00  0.00    -0.126 N 
ATOM      5  H3  UNL     1       4.624  11.234  11.555  1.00  0.00     0.197 HD
HETATM    6  C11 UNL     1       6.387  12.263  11.149  1.00  0.00     0.196 C 
HETATM    7  N4  UNL     1       7.473  12.351  10.762  1.00  0.00    -0.171 NA
HETATM    8  N5  UNL     1       4.282  13.385  13.541  1.00  0.00    -0.213 N 
HETATM    9  C12 UNL     1       5.003  14.458  14.209  1.00  0.00     0.167 C 
HETATM   10  C13 UNL     1       5.382  13.957  15.581  1.00  0.00     0.188 C 
HETATM   11  O1  UNL     1       4.295  13.621  16.352  1.00  0.00    -0.388 OA
HETATM   12  C14 UNL     1       3.196  13.223  15.637  1.00  0.00     0.188 C 
HETATM   13  C15 UNL     1       3.521  12.474  14.360  1.00  0.00     0.167 C 
ENDROOT
BRANCH   1  14
HETATM   14  C9  UNL     1       3.419  14.588  10.207  1.00  0.00     0.079 C 
BRANCH  14  15
HETATM   15  C8  UNL     1       4.544  14.637   9.208  1.00  0.00     0.045 C 
BRANCH  15  16
HETATM   16  C7  UNL     1       4.451  13.510   8.243  1.00  0.00     0.005 C 
BRANCH  16  17
HETATM   17  C6  UNL     1       2.992  13.346   7.842  1.00  0.00     0.001 C 
BRANCH  17  18
HETATM   18  C5  UNL     1       2.763  12.294   6.806  1.00  0.00     0.006 C 
BRANCH  18  19
HETATM   19  C4  UNL     1       2.601  10.934   7.387  1.00  0.00     0.054 C 
BRANCH  19  20
HETATM   20  C3  UNL     1       1.192  10.406   7.179  1.00  0.00     0.016 C 
BRANCH  20  21
HETATM   21  N1  UNL     1       0.204  11.025   7.347  1.00  0.00    -0.375 N 
ATOM     22  H1  UNL     1       0.185  11.100   8.364  1.00  0.00     0.164 HD
BRANCH  21  23
HETATM   23  C2  UNL     1      -0.918  11.695   7.012  1.00  0.00     0.056 C 
HETATM   24  C1  UNL     1      -1.309  11.633   5.540  1.00  0.00     0.054 C 
ENDBRANCH  21  23
ENDBRANCH  20  21
BRANCH  20  25
HETATM   25  C16 UNL     1       1.191   8.962   6.726  1.00  0.00     0.227 C 
HETATM   26  C17 UNL     1       2.511   8.297   7.012  1.00  0.00     0.046 C 
BRANCH  25  27
HETATM   27  N6  UNL     1       0.074   8.226   7.200  1.00  0.00    -0.062 N 
ATOM     28  H62 UNL     1       0.364   7.355   7.645  1.00  0.00     0.278 HD
ATOM     29  H61 UNL     1      -0.357   8.681   8.005  1.00  0.00     0.278 HD
BRANCH  27  30
HETATM   30  C18 UNL     1      -0.875   7.989   6.169  1.00  0.00     0.186 C 
HETATM   31  C19 UNL     1      -2.325   8.127   6.634  1.00  0.00     0.033 C 
HETATM   32  C20 UNL     1      -3.099   7.476   5.505  1.00  0.00     0.002 C 
HETATM   33  C21 UNL     1      -2.105   6.591   4.762  1.00  0.00     0.002 C 
HETATM   34  C22 UNL     1      -0.909   6.531   5.691  1.00  0.00     0.033 C 
ENDBRANCH  27  30
ENDBRANCH  25  27
ENDBRANCH  20  25
ENDBRANCH  19  20
ENDBRANCH  18  19
ENDBRANCH  17  18
ENDBRANCH  16  17
ENDBRANCH  15  16
ENDBRANCH  14  15
ENDBRANCH   1  14
TORSDOF 12
ENDMDL
MODEL 4
REMARK VINA RESULT: -5.974938035      4.241      9.880
REMARK  12 active torsions:
REMARK  status: ('A' for Active; 'I' for Inactive)
REMARK    1  A    between atoms: C2_2  and  N1_3 
REMARK    2  A    between atoms: N1_3  and  C3_5 
REMARK    3  A    between atoms: C3_5  and  C4_6 
REMARK    4  A    between atoms: C3_5  and  C16_25 
REMARK    5  A    between atoms: C4_6  and  C5_7 
REMARK    6  A    between atoms: C5_7  and  C6_8 
REMARK    7  A    between atoms: C6_8  and  C7_9 
REMARK    8  A    between atoms: C7_9  and  C8_10 
REMARK    9  A    between atoms: C8_10  and  C9_11 
REMARK   10  A    between atoms: C9_11  and  N2_12 
REMARK       I    between atoms: C10_14  and  N3_15 
REMARK       I    between atoms: C10_14  and  N5_19 
REMARK   11  A    between atoms: C16_25  and  N6_27 
REMARK   12  A    between atoms: N6_27  and  C18_30 
ROOT
HETATM    1  N2  UNL     1       2.144  10.790   6.421  1.00  0.00    -0.205 N 
ATOM      2  H2  UNL     1       1.526  10.706   5.614  1.00  0.00     0.183 HD
HETATM    3  C10 UNL     1       1.990  11.917   6.798  1.00  0.00     0.689 C 
HETATM    4  N3  UNL     1       2.659  12.504   7.920  1.00  0.00    -0.126 N 
ATOM      5  H3  UNL     1       2.167  12.556   8.812  1.00  0.00     0.197 HD
HETATM    6  C11 UNL     1       3.952  13.006   7.840  1.00  0.00     0.196 C 
HETATM    7  N4  UNL     1       5.034  13.413   7.790  1.00  0.00    -0.171 NA
HETATM    8  N5  UNL     1       1.077  12.776   6.082  1.00  0.00    -0.213 N 
HETATM    9  C12 UNL     1       1.410  13.246   4.746  1.00  0.00     0.167 C 
HETATM   10  C13 UNL     1       0.745  14.588   4.564  1.00  0.00     0.188 C 
HETATM   11  O1  UNL     1      -0.623  14.532   4.674  1.00  0.00    -0.388 OA
HETATM   12  C14 UNL     1      -1.086  13.519   5.473  1.00  0.00     0.188 C 
HETATM   13  C15 UNL     1      -0.185  13.190   6.646  1.00  0.00     0.167 C 
ENDROOT
BRANCH   1  14
HETATM   14  C9  UNL     1       2.733   9.557   6.530  1.00  0.00     0.079 C 
BRANCH  14  15
HETATM   15  C8  UNL     1       1.960   8.577   7.370  1.00  0.00     0.045 C 
BRANCH  15  16
HETATM   16  C7  UNL     1       0.608   8.334   6.800  1.00  0.00     0.005 C 
BRANCH  16  17
HETATM   17  C6  UNL     1      -0.427   8.743   7.838  1.00  0.00     0.001 C 
BRANCH  17  18
HETATM   18  C5  UNL     1      -1.391   9.780   7.356  1.00  0.00     0.006 C 
BRANCH  18  19
HETATM   19  C4  UNL     1      -1.541   9.787   5.877  1.00  0.00     0.054 C 
BRANCH  19  20
HETATM   20  C3  UNL     1      -2.993   9.614   5.466  1.00  0.00     0.016 C 
BRANCH  20  21
HETATM   21  N1  UNL     1      -3.702  10.479   5.097  1.00  0.00    -0.375 N 
ATOM     22  H1  UNL     1      -3.925  10.167   4.152  1.00  0.00     0.164 HD
BRANCH  21  23
HETATM   23  C2  UNL     1      -4.399  11.633   5.166  1.00  0.00     0.056 C 
HETATM   24  C1  UNL     1      -4.627  12.184   6.568  1.00  0.00     0.054 C 
ENDBRANCH  21  23
ENDBRANCH  20  21
BRANCH  20  25
HETATM   25  C16 UNL     1      -3.446   8.174   5.587  1.00  0.00     0.227 C 
HETATM   26  C17 UNL     1      -4.621   8.046   6.519  1.00  0.00     0.046 C 
BRANCH  25  27
HETATM   27  N6  UNL     1      -3.649   7.542   4.333  1.00  0.00    -0.062 N 
ATOM     28  H62 UNL     1      -4.446   6.907   4.361  1.00  0.00     0.278 HD
ATOM     29  H61 UNL     1      -3.995   8.202   3.636  1.00  0.00     0.278 HD
BRANCH  27  30
HETATM   30  C18 UNL     1      -2.475   6.880   3.882  1.00  0.00     0.186 C 
HETATM   31  C19 UNL     1      -2.746   5.820   2.814  1.00  0.00     0.033 C 
HETATM   32  C20 UNL     1      -1.450   5.034   2.789  1.00  0.00     0.002 C 
HETATM   33  C21 UNL     1      -0.752   5.323   4.114  1.00  0.00     0.002 C 
HETATM   34  C22 UNL     1      -1.825   5.991   4.950  1.00  0.00     0.033 C 
ENDBRANCH  27  30
ENDBRANCH  25  27
ENDBRANCH  20  25
ENDBRANCH  19  20
ENDBRANCH  18  19
ENDBRANCH  17  18
ENDBRANCH  16  17
ENDBRANCH  15  16
ENDBRANCH  14  15
ENDBRANCH   1  14
TORSDOF 12
ENDMDL
MODEL 5
REMARK VINA RESULT: -5.947305284      1.189      1.963
REMARK  12 active torsions:
REMARK  status: ('A' for Active; 'I' for Inactive)
REMARK    1  A    between atoms: C2_2  and  N1_3 
REMARK    2  A    between atoms: N1_3  and  C3_5 
REMARK    3  A    between atoms: C3_5  and  C4_6 
REMARK    4  A    between atoms: C3_5  and  C16_25 
REMARK    5  A    between atoms: C4_6  and  C5_7 
REMARK    6  A    between atoms: C5_7  and  C6_8 
REMARK    7  A    between atoms: C6_8  and  C7_9 
REMARK    8  A    between atoms: C7_9  and  C8_10 
REMARK    9  A    between atoms: C8_10  and  C9_11 
REMARK   10  A    between atoms: C9_11  and  N2_12 
REMARK       I    between atoms: C10_14  and  N3_15 
REMARK       I    between atoms: C10_14  and  N5_19 
REMARK   11  A    between atoms: C16_25  and  N6_27 
REMARK   12  A    between atoms: N6_27  and  C18_30 
ROOT
HETATM    1  N2  UNL     1       0.102  12.233   7.611  1.00  0.00    -0.205 N 
ATOM      2  H2  UNL     1       0.375  11.704   8.439  1.00  0.00     0.183 HD
HETATM    3  C10 UNL     1       0.218  11.454   6.708  1.00  0.00     0.689 C 
HETATM    4  N3  UNL     1      -0.056  11.745   5.333  1.00  0.00    -0.126 N 
ATOM      5  H3  UNL     1      -0.955  11.463   4.942  1.00  0.00     0.197 HD
HETATM    6  C11 UNL     1       0.854  12.399   4.513  1.00  0.00     0.196 C 
HETATM    7  N4  UNL     1       1.599  12.956   3.824  1.00  0.00    -0.171 NA
HETATM    8  N5  UNL     1       0.675  10.114   6.995  1.00  0.00    -0.213 N 
HETATM    9  C12 UNL     1       2.054   9.883   7.398  1.00  0.00     0.167 C 
HETATM   10  C13 UNL     1       2.433   8.500   6.927  1.00  0.00     0.188 C 
HETATM   11  O1  UNL     1       1.652   7.511   7.473  1.00  0.00    -0.388 OA
HETATM   12  C14 UNL     1       0.387   7.914   7.816  1.00  0.00     0.188 C 
HETATM   13  C15 UNL     1      -0.199   8.971   6.903  1.00  0.00     0.167 C 
ENDROOT
BRANCH   1  14
HETATM   14  C9  UNL     1      -0.212  13.478   8.090  1.00  0.00     0.079 C 
BRANCH  14  15
HETATM   15  C8  UNL     1       0.973  14.265   8.583  1.00  0.00     0.045 C 
BRANCH  15  16
HETATM   16  C7  UNL     1       1.664  14.952   7.461  1.00  0.00     0.005 C 
BRANCH  16  17
HETATM   17  C6  UNL     1       3.005  14.269   7.239  1.00  0.00     0.001 C 
BRANCH  17  18
HETATM   18  C5  UNL     1       3.451  13.421   8.385  1.00  0.00     0.006 C 
BRANCH  18  19
HETATM   19  C4  UNL     1       4.925  13.231   8.427  1.00  0.00     0.054 C 
BRANCH  19  20
HETATM   20  C3  UNL     1       5.545  13.955   9.610  1.00  0.00     0.016 C 
BRANCH  20  21
HETATM   21  N1  UNL     1       5.638  15.124   9.717  1.00  0.00    -0.375 N 
ATOM     22  H1  UNL     1       6.583  15.216  10.091  1.00  0.00     0.164 HD
BRANCH  21  23
HETATM   23  C2  UNL     1       5.255  16.415   9.645  1.00  0.00     0.056 C 
HETATM   24  C1  UNL     1       3.839  16.711  10.127  1.00  0.00     0.054 C 
ENDBRANCH  21  23
ENDBRANCH  20  21
BRANCH  20  25
HETATM   25  C16 UNL     1       6.048  12.989  10.662  1.00  0.00     0.227 C 
HETATM   26  C17 UNL     1       7.076  13.635  11.552  1.00  0.00     0.046 C 
BRANCH  25  27
HETATM   27  N6  UNL     1       5.006  12.346  11.377  1.00  0.00    -0.062 N 
ATOM     28  H62 UNL     1       4.156  12.281  10.818  1.00  0.00     0.278 HD
ATOM     29  H61 UNL     1       5.195  11.350  11.496  1.00  0.00     0.278 HD
BRANCH  27  30
HETATM   30  C18 UNL     1       4.756  12.978  12.626  1.00  0.00     0.186 C 
HETATM   31  C19 UNL     1       4.351  12.002  13.731  1.00  0.00     0.033 C 
HETATM   32  C20 UNL     1       3.792  12.922  14.798  1.00  0.00     0.002 C 
HETATM   33  C21 UNL     1       3.439  14.227  14.092  1.00  0.00     0.002 C 
HETATM   34  C22 UNL     1       3.510  13.873  12.620  1.00  0.00     0.033 C 
ENDBRANCH  27  30
ENDBRANCH  25  27
ENDBRANCH  20  25
ENDBRANCH  19  20
ENDBRANCH  18  19
ENDBRANCH  17  18
ENDBRANCH  16  17
ENDBRANCH  15  16
ENDBRANCH  14  15
ENDBRANCH   1  14
TORSDOF 12
ENDMDL
