MODEL 1
REMARK VINA RESULT: -6.440876593      0.000      0.000
REMARK  11 active torsions:
REMARK  status: ('A' for Active; 'I' for Inactive)
REMARK    1  A    between atoms: O1_2  and  C2_3 
REMARK    2  A    between atoms: C7_8  and  O2_9 
REMARK    3  A    between atoms: O2_9  and  C8_10 
REMARK    4  A    between atoms: C8_10  and  C9_11 
REMARK    5  A    between atoms: C9_11  and  C10_12 
REMARK    6  A    between atoms: C10_12  and  N1_13 
REMARK       I    between atoms: N1_13  and  C11_15 
REMARK       I    between atoms: C11_15  and  N3_24 
REMARK    7  A    between atoms: N2_16  and  C12_18 
REMARK    8  A    between atoms: C12_18  and  C13_19 
REMARK    9  A    between atoms: C13_19  and  C14_20 
REMARK   10  A    between atoms: C14_20  and  C15_21 
REMARK   11  A    between atoms: C15_21  and  O3_22 
ROOT
HETATM    1  C10 UNL     1       2.227  10.054   7.340  1.00  0.00     0.140 C 
ENDROOT
BRANCH   1   2
HETATM    2  C9  UNL     1       2.233   8.545   7.164  1.00  0.00     0.047 C 
BRANCH   2   3
HETATM    3  C8  UNL     1       0.918   7.904   7.502  1.00  0.00     0.177 C 
BRANCH   3   4
HETATM    4  O2  UNL     1       0.437   7.060   6.502  1.00  0.00    -0.348 OA
BRANCH   4   5
HETATM    5  C7  UNL     1      -0.829   7.284   5.970  1.00  0.00     0.102 A 
HETATM    6  C2  UNL     1      -1.187   6.583   4.837  1.00  0.00     0.102 A 
HETATM    7  C3  UNL     1      -2.443   6.813   4.316  1.00  0.00     0.055 A 
HETATM    8  C4  UNL     1      -3.326   7.717   4.906  1.00  0.00     0.019 A 
HETATM    9  C5  UNL     1      -2.964   8.416   6.039  1.00  0.00    -0.041 A 
HETATM   10  C22 UNL     1      -4.672   8.134   4.568  1.00  0.00     0.160 C 
HETATM   11  C6  UNL     1      -1.712   8.186   6.557  1.00  0.00     0.047 A 
HETATM   12  C20 UNL     1      -4.069   9.313   6.477  1.00  0.00     0.047 C 
HETATM   13  C21 UNL     1      -5.282   8.797   5.751  1.00  0.00     0.088 C 
HETATM   14  O4  UNL     1      -5.225   7.955   3.441  1.00  0.00    -0.292 OA
BRANCH   6  15
HETATM   15  O1  UNL     1      -0.312   5.671   4.232  1.00  0.00    -0.353 OA
HETATM   16  C1  UNL     1      -0.857   4.663   3.406  1.00  0.00     0.210 C 
ENDBRANCH   6  15
ENDBRANCH   4   5
ENDBRANCH   3   4
ENDBRANCH   2   3
ENDBRANCH   1   2
BRANCH   1  17
HETATM   17  N1  UNL     1       2.189  10.778   6.101  1.00  0.00    -0.226 N 
HETATM   18  C11 UNL     1       2.259  12.193   6.033  1.00  0.00     0.671 C 
HETATM   19  N2  UNL     1       1.624  12.855   5.140  1.00  0.00    -0.226 N 
HETATM   20  N3  UNL     1       3.035  12.957   6.945  1.00  0.00    -0.218 N 
ATOM     21  H2  UNL     1       1.693  13.873   5.115  1.00  0.00     0.177 HD
HETATM   22  C16 UNL     1       2.487  14.062   7.705  1.00  0.00     0.141 C 
HETATM   23  C19 UNL     1       4.427  12.859   7.325  1.00  0.00     0.141 C 
HETATM   24  C17 UNL     1       3.410  14.288   8.870  1.00  0.00     0.022 C 
HETATM   25  C18 UNL     1       4.348  13.098   8.818  1.00  0.00     0.022 C 
ATOM     26  H1  UNL     1       2.108  10.250   5.232  1.00  0.00     0.177 HD
BRANCH  19  27
HETATM   27  C12 UNL     1       0.802  12.158   4.163  1.00  0.00     0.138 C 
BRANCH  27  28
HETATM   28  C13 UNL     1      -0.628  12.589   4.334  1.00  0.00     0.022 C 
BRANCH  28  29
HETATM   29  C14 UNL     1      -1.352  11.622   5.226  1.00  0.00     0.028 C 
BRANCH  29  30
HETATM   30  C15 UNL     1      -1.660  12.290   6.542  1.00  0.00     0.164 C 
BRANCH  30  31
HETATM   31  O3  UNL     1      -1.032  11.499   7.531  1.00  0.00    -0.401 OA
ATOM     32  H3  UNL     1      -0.100  11.652   7.431  1.00  0.00     0.209 HD
ENDBRANCH  30  31
ENDBRANCH  29  30
ENDBRANCH  28  29
ENDBRANCH  27  28
ENDBRANCH  19  27
ENDBRANCH   1  17
TORSDOF 11
ENDMDL
MODEL 2
REMARK VINA RESULT: -6.390059182      2.757      8.070
REMARK  11 active torsions:
REMARK  status: ('A' for Active; 'I' for Inactive)
REMARK    1  A    between atoms: O1_2  and  C2_3 
REMARK    2  A    between atoms: C7_8  and  O2_9 
REMARK    3  A    between atoms: O2_9  and  C8_10 
REMARK    4  A    between atoms: C8_10  and  C9_11 
REMARK    5  A    between atoms: C9_11  and  C10_12 
REMARK    6  A    between atoms: C10_12  and  N1_13 
REMARK       I    between atoms: N1_13  and  C11_15 
REMARK       I    between atoms: C11_15  and  N3_24 
REMARK    7  A    between atoms: N2_16  and  C12_18 
REMARK    8  A    between atoms: C12_18  and  C13_19 
REMARK    9  A    between atoms: C13_19  and  C14_20 
REMARK   10  A    between atoms: C14_20  and  C15_21 
REMARK   11  A    between atoms: C15_21  and  O3_22 
ROOT
HETATM    1  C10 UNL     1      -1.055   8.767   7.557  1.00  0.00     0.140 C 
ENDROOT
BRANCH   1   2
HETATM    2  C9  UNL     1       0.370   8.624   8.065  1.00  0.00     0.047 C 
BRANCH   2   3
HETATM    3  C8  UNL     1       1.402   9.045   7.058  1.00  0.00     0.177 C 
BRANCH   3   4
HETATM    4  O2  UNL     1       1.119  10.266   6.448  1.00  0.00    -0.348 OA
BRANCH   4   5
HETATM    5  C7  UNL     1       1.646  11.436   6.985  1.00  0.00     0.102 A 
HETATM    6  C2  UNL     1       0.765  12.367   7.495  1.00  0.00     0.102 A 
HETATM    7  C3  UNL     1       1.297  13.524   8.024  1.00  0.00     0.055 A 
HETATM    8  C4  UNL     1       2.672  13.753   8.050  1.00  0.00     0.019 A 
HETATM    9  C5  UNL     1       3.550  12.819   7.539  1.00  0.00    -0.041 A 
HETATM   10  C22 UNL     1       3.473  14.858   8.538  1.00  0.00     0.160 C 
HETATM   11  C6  UNL     1       3.019  11.666   7.012  1.00  0.00     0.047 A 
HETATM   12  C20 UNL     1       4.956  13.289   7.682  1.00  0.00     0.047 C 
HETATM   13  C21 UNL     1       4.880  14.403   8.689  1.00  0.00     0.088 C 
HETATM   14  O4  UNL     1       3.029  16.019   8.789  1.00  0.00    -0.292 OA
BRANCH   6  15
HETATM   15  O1  UNL     1      -0.619  12.153   7.477  1.00  0.00    -0.353 OA
HETATM   16  C1  UNL     1      -1.471  13.271   7.337  1.00  0.00     0.210 C 
ENDBRANCH   6  15
ENDBRANCH   4   5
ENDBRANCH   3   4
ENDBRANCH   2   3
ENDBRANCH   1   2
BRANCH   1  17
HETATM   17  N1  UNL     1      -1.263   8.193   6.259  1.00  0.00    -0.226 N 
HETATM   18  C11 UNL     1      -2.550   8.045   5.679  1.00  0.00     0.671 C 
HETATM   19  N2  UNL     1      -2.837   7.050   4.926  1.00  0.00    -0.226 N 
HETATM   20  N3  UNL     1      -3.591   8.986   5.897  1.00  0.00    -0.218 N 
ATOM     21  H2  UNL     1      -3.771   6.969   4.522  1.00  0.00     0.177 HD
HETATM   22  C16 UNL     1      -4.905   8.603   6.371  1.00  0.00     0.141 C 
HETATM   23  C19 UNL     1      -3.627  10.421   5.725  1.00  0.00     0.141 C 
HETATM   24  C17 UNL     1      -5.541   9.843   6.937  1.00  0.00     0.022 C 
HETATM   25  C18 UNL     1      -4.408  10.850   6.950  1.00  0.00     0.022 C 
ATOM     26  H1  UNL     1      -0.450   7.877   5.729  1.00  0.00     0.177 HD
BRANCH  19  27
HETATM   27  C12 UNL     1      -1.835   6.033   4.646  1.00  0.00     0.138 C 
BRANCH  27  28
HETATM   28  C13 UNL     1      -1.983   5.583   3.220  1.00  0.00     0.022 C 
BRANCH  28  29
HETATM   29  C14 UNL     1      -1.003   4.483   2.925  1.00  0.00     0.028 C 
BRANCH  29  30
HETATM   30  C15 UNL     1      -1.160   3.387   3.948  1.00  0.00     0.164 C 
BRANCH  30  31
HETATM   31  O3  UNL     1      -0.426   2.287   3.447  1.00  0.00    -0.401 OA
ATOM     32  H3  UNL     1      -0.195   1.764   4.205  1.00  0.00     0.209 HD
ENDBRANCH  30  31
ENDBRANCH  29  30
ENDBRANCH  28  29
ENDBRANCH  27  28
ENDBRANCH  19  27
ENDBRANCH   1  17
TORSDOF 11
ENDMDL
MODEL 3
REMARK VINA RESULT: -6.288023271      4.394      7.650
REMARK  11 active torsions:
REMARK  status: ('A' for Active; 'I' for Inactive)
REMARK    1  A    between atoms: O1_2  and  C2_3 
REMARK    2  A    between atoms: C7_8  and  O2_9 
REMARK    3  A    between atoms: O2_9  and  C8_10 
REMARK    4  A    between atoms: C8_10  and  C9_11 
REMARK    5  A    between atoms: C9_11  and  C10_12 
REMARK    6  A    between atoms: C10_12  and  N1_13 
REMARK       I    between atoms: N1_13  and  C11_15 
REMARK       I    between atoms: C11_15  and  N3_24 
REMARK    7  A    between atoms: N2_16  and  C12_18 
REMARK    8  A    between atoms: C12_18  and  C13_19 
REMARK    9  A    between atoms: C13_19  and  C14_20 
REMARK   10  A    between atoms: C14_20  and  C15_21 
REMARK   11  A    between atoms: C15_21  and  O3_22 
ROOT
HETATM    1  C10 UNL     1       5.380  13.171   9.840  1.00  0.00     0.140 C 
ENDROOT
BRANCH   1   2
HETATM    2  C9  UNL     1       4.350  13.810   8.924  1.00  0.00     0.047 C 
BRANCH   2   3
HETATM    3  C8  UNL     1       4.533  13.442   7.479  1.00  0.00     0.177 C 
BRANCH   3   4
HETATM    4  O2  UNL     1       3.335  13.349   6.772  1.00  0.00    -0.348 OA
BRANCH   4   5
HETATM    5  C7  UNL     1       2.485  12.273   7.008  1.00  0.00     0.102 A 
HETATM    6  C2  UNL     1       1.172  12.545   7.329  1.00  0.00     0.102 A 
HETATM    7  C3  UNL     1       0.337  11.473   7.562  1.00  0.00     0.055 A 
HETATM    8  C4  UNL     1       0.794  10.158   7.477  1.00  0.00     0.019 A 
HETATM    9  C5  UNL     1       2.108   9.890   7.155  1.00  0.00    -0.041 A 
HETATM   10  C22 UNL     1       0.140   8.879   7.669  1.00  0.00     0.160 C 
HETATM   11  C6  UNL     1       2.940  10.960   6.924  1.00  0.00     0.047 A 
HETATM   12  C20 UNL     1       2.351   8.421   7.126  1.00  0.00     0.047 C 
HETATM   13  C21 UNL     1       0.977   7.813   7.057  1.00  0.00     0.088 C 
HETATM   14  O4  UNL     1      -0.967   8.713   8.265  1.00  0.00    -0.292 OA
BRANCH   6  15
HETATM   15  O1  UNL     1       0.697  13.860   7.418  1.00  0.00    -0.353 OA
HETATM   16  C1  UNL     1       0.553  14.438   8.700  1.00  0.00     0.210 C 
ENDBRANCH   6  15
ENDBRANCH   4   5
ENDBRANCH   3   4
ENDBRANCH   2   3
ENDBRANCH   1   2
BRANCH   1  17
HETATM   17  N1  UNL     1       4.989  13.154  11.221  1.00  0.00    -0.226 N 
HETATM   18  C11 UNL     1       5.888  13.448  12.279  1.00  0.00     0.671 C 
HETATM   19  N2  UNL     1       5.804  12.860  13.414  1.00  0.00    -0.226 N 
HETATM   20  N3  UNL     1       6.928  14.405  12.146  1.00  0.00    -0.218 N 
ATOM     21  H2  UNL     1       6.463  13.091  14.157  1.00  0.00     0.177 HD
HETATM   22  C16 UNL     1       8.313  14.104  12.445  1.00  0.00     0.141 C 
HETATM   23  C19 UNL     1       6.899  15.789  11.724  1.00  0.00     0.141 C 
HETATM   24  C17 UNL     1       9.145  15.140  11.741  1.00  0.00     0.022 C 
HETATM   25  C18 UNL     1       8.143  15.865  10.865  1.00  0.00     0.022 C 
ATOM     26  H1  UNL     1       4.023  12.922  11.452  1.00  0.00     0.177 HD
BRANCH  19  27
HETATM   27  C12 UNL     1       4.770  11.863  13.644  1.00  0.00     0.138 C 
BRANCH  27  28
HETATM   28  C13 UNL     1       3.682  12.474  14.481  1.00  0.00     0.022 C 
BRANCH  28  29
HETATM   29  C14 UNL     1       4.230  12.880  15.819  1.00  0.00     0.028 C 
BRANCH  29  30
HETATM   30  C15 UNL     1       3.314  13.900  16.446  1.00  0.00     0.164 C 
BRANCH  30  31
HETATM   31  O3  UNL     1       2.002  13.428  16.218  1.00  0.00    -0.401 OA
ATOM     32  H3  UNL     1       1.458  13.854  16.870  1.00  0.00     0.209 HD
ENDBRANCH  30  31
ENDBRANCH  29  30
ENDBRANCH  28  29
ENDBRANCH  27  28
ENDBRANCH  19  27
ENDBRANCH   1  17
TORSDOF 11
ENDMDL
MODEL 4
REMARK VINA RESULT: -6.271663567      2.034      2.475
REMARK  11 active torsions:
REMARK  status: ('A' for Active; 'I' for Inactive)
REMARK    1  A    between atoms: O1_2  and  C2_3 
REMARK    2  A    between atoms: C7_8  and  O2_9 
REMARK    3  A    between atoms: O2_9  and  C8_10 
REMARK    4  A    between atoms: C8_10  and  C9_11 
REMARK    5  A    between atoms: C9_11  and  C10_12 
REMARK    6  A    between atoms: C10_12  and  N1_13 
REMARK       I    between atoms: N1_13  and  C11_15 
REMARK       I    between atoms: C11_15  and  N3_24 
REMARK    7  A    between atoms: N2_16  and  C12_18 
REMARK    8  A    between atoms: C12_18  and  C13_19 
REMARK    9  A    between atoms: C13_19  and  C14_20 
REMARK   10  A    between atoms: C14_20  and  C15_21 
REMARK   11  A    between atoms: C15_21  and  O3_22 
ROOT
HETATM    1  C10 UNL     1       2.253  10.142   7.239  1.00  0.00     0.140 C 
ENDROOT
BRANCH   1   2
HETATM    2  C9  UNL     1       2.470   8.649   7.061  1.00  0.00     0.047 C 
BRANCH   2   3
HETATM    3  C8  UNL     1       1.213   7.844   7.228  1.00  0.00     0.177 C 
BRANCH   3   4
HETATM    4  O2  UNL     1       0.461   7.737   6.058  1.00  0.00    -0.348 OA
BRANCH   4   5
HETATM    5  C7  UNL     1      -0.891   8.060   6.085  1.00  0.00     0.102 A 
HETATM    6  C2  UNL     1      -1.798   7.075   5.754  1.00  0.00     0.102 A 
HETATM    7  C3  UNL     1      -3.137   7.406   5.782  1.00  0.00     0.055 A 
HETATM    8  C4  UNL     1      -3.568   8.685   6.131  1.00  0.00     0.019 A 
HETATM    9  C5  UNL     1      -2.657   9.668   6.461  1.00  0.00    -0.041 A 
HETATM   10  C22 UNL     1      -4.885   9.281   6.237  1.00  0.00     0.160 C 
HETATM   11  C6  UNL     1      -1.323   9.338   6.433  1.00  0.00     0.047 A 
HETATM   12  C20 UNL     1      -3.357  10.939   6.795  1.00  0.00     0.047 C 
HETATM   13  C21 UNL     1      -4.785  10.532   7.036  1.00  0.00     0.088 C 
HETATM   14  O4  UNL     1      -5.941   8.801   5.725  1.00  0.00    -0.292 OA
BRANCH   6  15
HETATM   15  O1  UNL     1      -1.382   5.785   5.401  1.00  0.00    -0.353 OA
HETATM   16  C1  UNL     1      -1.339   5.444   4.031  1.00  0.00     0.210 C 
ENDBRANCH   6  15
ENDBRANCH   4   5
ENDBRANCH   3   4
ENDBRANCH   2   3
ENDBRANCH   1   2
BRANCH   1  17
HETATM   17  N1  UNL     1       2.241  10.873   6.004  1.00  0.00    -0.226 N 
HETATM   18  C11 UNL     1       2.267  12.291   5.948  1.00  0.00     0.671 C 
HETATM   19  N2  UNL     1       1.646  12.938   5.034  1.00  0.00    -0.226 N 
HETATM   20  N3  UNL     1       2.978  13.073   6.895  1.00  0.00    -0.218 N 
ATOM     21  H2  UNL     1       1.682  13.957   5.017  1.00  0.00     0.177 HD
HETATM   22  C16 UNL     1       2.363  14.153   7.639  1.00  0.00     0.141 C 
HETATM   23  C19 UNL     1       4.357  13.019   7.331  1.00  0.00     0.141 C 
HETATM   24  C17 UNL     1       3.230  14.402   8.842  1.00  0.00     0.022 C 
HETATM   25  C18 UNL     1       4.208  13.244   8.821  1.00  0.00     0.022 C 
ATOM     26  H1  UNL     1       2.213  10.350   5.129  1.00  0.00     0.177 HD
BRANCH  19  27
HETATM   27  C12 UNL     1       0.888  12.221   4.019  1.00  0.00     0.138 C 
BRANCH  27  28
HETATM   28  C13 UNL     1       0.573  13.163   2.892  1.00  0.00     0.022 C 
BRANCH  28  29
HETATM   29  C14 UNL     1       1.162  12.645   1.610  1.00  0.00     0.028 C 
BRANCH  29  30
HETATM   30  C15 UNL     1       1.951  13.743   0.944  1.00  0.00     0.164 C 
BRANCH  30  31
HETATM   31  O3  UNL     1       2.956  13.091   0.193  1.00  0.00    -0.401 OA
ATOM     32  H3  UNL     1       3.671  12.937   0.798  1.00  0.00     0.209 HD
ENDBRANCH  30  31
ENDBRANCH  29  30
ENDBRANCH  28  29
ENDBRANCH  27  28
ENDBRANCH  19  27
ENDBRANCH   1  17
TORSDOF 11
ENDMDL
MODEL 5
REMARK VINA RESULT: -6.257583625      2.502      4.624
REMARK  11 active torsions:
REMARK  status: ('A' for Active; 'I' for Inactive)
REMARK    1  A    between atoms: O1_2  and  C2_3 
REMARK    2  A    between atoms: C7_8  and  O2_9 
REMARK    3  A    between atoms: O2_9  and  C8_10 
REMARK    4  A    between atoms: C8_10  and  C9_11 
REMARK    5  A    between atoms: C9_11  and  C10_12 
REMARK    6  A    between atoms: C10_12  and  N1_13 
REMARK       I    between atoms: N1_13  and  C11_15 
REMARK       I    between atoms: C11_15  and  N3_24 
REMARK    7  A    between atoms: N2_16  and  C12_18 
REMARK    8  A    between atoms: C12_18  and  C13_19 
REMARK    9  A    between atoms: C13_19  and  C14_20 
REMARK   10  A    between atoms: C14_20  and  C15_21 
REMARK   11  A    between atoms: C15_21  and  O3_22 
ROOT
HETATM    1  C10 UNL     1      -1.649  12.025   6.339  1.00  0.00     0.140 C 
ENDROOT
BRANCH   1   2
HETATM    2  C9  UNL     1      -2.991  11.313   6.365  1.00  0.00     0.047 C 
BRANCH   2   3
HETATM    3  C8  UNL     1      -2.893   9.880   6.804  1.00  0.00     0.177 C 
BRANCH   3   4
HETATM    4  O2  UNL     1      -3.880   9.062   6.257  1.00  0.00    -0.348 OA
BRANCH   4   5
HETATM    5  C7  UNL     1      -3.539   8.152   5.262  1.00  0.00     0.102 A 
HETATM    6  C2  UNL     1      -4.183   8.251   4.047  1.00  0.00     0.102 A 
HETATM    7  C3  UNL     1      -3.839   7.344   3.067  1.00  0.00     0.055 A 
HETATM    8  C4  UNL     1      -2.875   6.361   3.286  1.00  0.00     0.019 A 
HETATM    9  C5  UNL     1      -2.231   6.265   4.503  1.00  0.00    -0.041 A 
HETATM   10  C22 UNL     1      -2.338   5.309   2.445  1.00  0.00     0.160 C 
HETATM   11  C6  UNL     1      -2.576   7.169   5.479  1.00  0.00     0.047 A 
HETATM   12  C20 UNL     1      -1.251   5.144   4.491  1.00  0.00     0.047 C 
HETATM   13  C21 UNL     1      -1.060   4.826   3.033  1.00  0.00     0.088 C 
HETATM   14  O4  UNL     1      -2.883   4.881   1.382  1.00  0.00    -0.292 OA
BRANCH   6  15
HETATM   15  O1  UNL     1      -5.154   9.232   3.810  1.00  0.00    -0.353 OA
HETATM   16  C1  UNL     1      -4.777  10.394   3.100  1.00  0.00     0.210 C 
ENDBRANCH   6  15
ENDBRANCH   4   5
ENDBRANCH   3   4
ENDBRANCH   2   3
ENDBRANCH   1   2
BRANCH   1  17
HETATM   17  N1  UNL     1      -0.971  11.928   5.078  1.00  0.00    -0.226 N 
HETATM   18  C11 UNL     1       0.367  11.472   4.956  1.00  0.00     0.671 C 
HETATM   19  N2  UNL     1       1.161  11.946   4.070  1.00  0.00    -0.226 N 
HETATM   20  N3  UNL     1       0.904  10.465   5.802  1.00  0.00    -0.218 N 
ATOM     21  H2  UNL     1       2.117  11.598   4.004  1.00  0.00     0.177 HD
HETATM   22  C16 UNL     1       2.134  10.643   6.547  1.00  0.00     0.141 C 
HETATM   23  C19 UNL     1       0.430   9.136   6.120  1.00  0.00     0.141 C 
HETATM   24  C17 UNL     1       2.119   9.630   7.658  1.00  0.00     0.022 C 
HETATM   25  C18 UNL     1       0.713   9.065   7.605  1.00  0.00     0.022 C 
ATOM     26  H1  UNL     1      -1.473  12.200   4.233  1.00  0.00     0.177 HD
BRANCH  19  27
HETATM   27  C12 UNL     1       0.700  12.982   3.158  1.00  0.00     0.138 C 
BRANCH  27  28
HETATM   28  C13 UNL     1       0.426  12.362   1.817  1.00  0.00     0.022 C 
BRANCH  28  29
HETATM   29  C14 UNL     1       0.791  13.324   0.723  1.00  0.00     0.028 C 
BRANCH  29  30
HETATM   30  C15 UNL     1       2.182  13.851   0.964  1.00  0.00     0.164 C 
BRANCH  30  31
HETATM   31  O3  UNL     1       3.031  13.089   0.130  1.00  0.00    -0.401 OA
ATOM     32  H3  UNL     1       3.693  13.692  -0.186  1.00  0.00     0.209 HD
ENDBRANCH  30  31
ENDBRANCH  29  30
ENDBRANCH  28  29
ENDBRANCH  27  28
ENDBRANCH  19  27
ENDBRANCH   1  17
TORSDOF 11
ENDMDL
