MODEL 1
REMARK VINA RESULT: -6.549729006      0.000      0.000
REMARK  11 active torsions:
REMARK  status: ('A' for Active; 'I' for Inactive)
REMARK    1  A    between atoms: C2_2  and  C3_3 
REMARK    2  A    between atoms: C3_3  and  C4_4 
REMARK    3  A    between atoms: C4_4  and  N1_5 
REMARK    4  A    between atoms: N1_5  and  C5_6 
REMARK    5  A    between atoms: C6_9  and  N3_10 
REMARK    6  A    between atoms: N3_10  and  C8_12 
REMARK    7  A    between atoms: C8_12  and  C9_13 
REMARK    8  A    between atoms: C9_13  and  N4_14 
REMARK    9  A    between atoms: N5_19  and  C14_21 
REMARK   10  A    between atoms: C14_21  and  C17_24 
REMARK   11  A    between atoms: C17_24  and  C18_25 
ROOT
HETATM    1  C5  UNL     1       1.379  12.887   4.499  1.00  0.00     0.261 A 
HETATM    2  N2  UNL     1       2.084  13.422   5.542  1.00  0.00    -0.302 N 
ATOM      3  H2  UNL     1       2.434  14.377   5.465  1.00  0.00     0.171 HD
HETATM    4  C6  UNL     1       2.328  12.734   6.650  1.00  0.00     0.109 A 
HETATM    5  C12 UNL     1       1.856  11.450   6.746  1.00  0.00     0.096 A 
HETATM    6  C13 UNL     1       1.136  10.879   5.703  1.00  0.00     0.108 A 
HETATM    7  N5  UNL     1       0.658   9.700   5.700  1.00  0.00    -0.367 N 
ATOM      8  H5  UNL     1       0.159   9.457   4.844  1.00  0.00     0.162 HD
HETATM    9  N7  UNL     1       0.921  11.618   4.613  1.00  0.00    -0.302 N 
ATOM     10  H7  UNL     1       0.395  11.214   3.839  1.00  0.00     0.171 HD
ENDROOT
BRANCH   7  11
HETATM   11  C14 UNL     1       0.689   8.667   6.658  1.00  0.00     0.029 C 
HETATM   12  C15 UNL     1       0.367   7.340   6.007  1.00  0.00     0.038 C 
HETATM   13  C16 UNL     1       2.055   8.590   7.337  1.00  0.00     0.038 C 
BRANCH  11  14
HETATM   14  C17 UNL     1      -0.314   8.968   7.761  1.00  0.00     0.087 C 
BRANCH  14  15
HETATM   15  C18 UNL     1      -1.682   9.207   7.258  1.00  0.00     0.011 A 
HETATM   16  C19 UNL     1      -2.459   8.150   6.765  1.00  0.00     0.025 A 
HETATM   17  C20 UNL     1      -3.724   8.323   6.283  1.00  0.00     0.004 A 
HETATM   18  C21 UNL     1      -4.295   9.578   6.266  1.00  0.00     0.024 A 
HETATM   19  C22 UNL     1      -3.527  10.617   6.753  1.00  0.00     0.005 A 
HETATM   20  C23 UNL     1      -4.125  11.977   6.742  1.00  0.00     0.068 C 
HETATM   21  N6  UNL     1      -2.284  10.408   7.220  1.00  0.00    -0.363 N 
ATOM     22  H6  UNL     1      -1.763  11.214   7.567  1.00  0.00     0.165 HD
ENDBRANCH  14  15
ENDBRANCH  11  14
ENDBRANCH   7  11
BRANCH   4  23
HETATM   23  N3  UNL     1       3.069  13.327   7.746  1.00  0.00    -0.370 N 
HETATM   24  C7  UNL     1       2.262  14.193   8.623  1.00  0.00     0.151 C 
BRANCH  23  25
HETATM   25  C8  UNL     1       4.459  13.080   7.950  1.00  0.00     0.154 C 
BRANCH  25  26
HETATM   26  C9  UNL     1       5.111  13.739   9.098  1.00  0.00     0.291 C 
BRANCH  26  27
HETATM   27  N4  UNL     1       5.230  13.147  10.341  1.00  0.00     0.081 N 
HETATM   28  C10 UNL     1       4.770  13.860  11.491  1.00  0.00     0.309 C 
HETATM   29  C11 UNL     1       6.622  12.785  10.578  1.00  0.00     0.309 C 
ENDBRANCH  26  27
ENDBRANCH  25  26
ENDBRANCH  23  25
ENDBRANCH   4  23
BRANCH   1  30
HETATM   30  N1  UNL     1       1.180  13.546   3.511  1.00  0.00    -0.388 NA
BRANCH  30  31
HETATM   31  C4  UNL     1       0.997  14.214   2.379  1.00  0.00     0.159 C 
BRANCH  31  32
HETATM   32  C3  UNL     1       1.610  13.576   1.110  1.00  0.00     0.059 C 
BRANCH  32  33
HETATM   33  C2  UNL     1       0.860  12.264   0.943  1.00  0.00     0.002 C 
HETATM   34  C1  UNL     1       1.228  11.604  -0.375  1.00  0.00     0.005 C 
ENDBRANCH  32  33
ENDBRANCH  31  32
ENDBRANCH  30  31
ENDBRANCH   1  30
TORSDOF 11
ENDMDL
MODEL 2
REMARK VINA RESULT: -6.483861013      1.455      2.256
REMARK  11 active torsions:
REMARK  status: ('A' for Active; 'I' for Inactive)
REMARK    1  A    between atoms: C2_2  and  C3_3 
REMARK    2  A    between atoms: C3_3  and  C4_4 
REMARK    3  A    between atoms: C4_4  and  N1_5 
REMARK    4  A    between atoms: N1_5  and  C5_6 
REMARK    5  A    between atoms: C6_9  and  N3_10 
REMARK    6  A    between atoms: N3_10  and  C8_12 
REMARK    7  A    between atoms: C8_12  and  C9_13 
REMARK    8  A    between atoms: C9_13  and  N4_14 
REMARK    9  A    between atoms: N5_19  and  C14_21 
REMARK   10  A    between atoms: C14_21  and  C17_24 
REMARK   11  A    between atoms: C17_24  and  C18_25 
ROOT
HETATM    1  C5  UNL     1       1.176  12.576   3.877  1.00  0.00     0.261 A 
HETATM    2  N2  UNL     1       1.627  13.461   4.818  1.00  0.00    -0.302 N 
ATOM      3  H2  UNL     1       1.847  14.415   4.535  1.00  0.00     0.171 HD
HETATM    4  C6  UNL     1       1.788  13.112   6.088  1.00  0.00     0.109 A 
HETATM    5  C12 UNL     1       1.492  11.825   6.461  1.00  0.00     0.096 A 
HETATM    6  C13 UNL     1       1.032  10.904   5.528  1.00  0.00     0.108 A 
HETATM    7  N5  UNL     1       0.731   9.693   5.778  1.00  0.00    -0.367 N 
ATOM      8  H5  UNL     1       0.412   9.169   4.963  1.00  0.00     0.162 HD
HETATM    9  N7  UNL     1       0.889  11.311   4.264  1.00  0.00    -0.302 N 
ATOM     10  H7  UNL     1       0.553  10.647   3.568  1.00  0.00     0.171 HD
ENDROOT
BRANCH   7  11
HETATM   11  C14 UNL     1       0.756   8.942   6.969  1.00  0.00     0.029 C 
HETATM   12  C15 UNL     1       2.056   9.173   7.706  1.00  0.00     0.038 C 
HETATM   13  C16 UNL     1      -0.421   9.308   7.872  1.00  0.00     0.038 C 
BRANCH  11  14
HETATM   14  C17 UNL     1       0.593   7.466   6.642  1.00  0.00     0.087 C 
BRANCH  14  15
HETATM   15  C18 UNL     1      -0.592   7.179   5.808  1.00  0.00     0.011 A 
HETATM   16  C19 UNL     1      -0.516   6.270   4.744  1.00  0.00     0.025 A 
HETATM   17  C20 UNL     1      -1.581   5.979   3.942  1.00  0.00     0.004 A 
HETATM   18  C21 UNL     1      -2.800   6.586   4.158  1.00  0.00     0.024 A 
HETATM   19  C22 UNL     1      -2.871   7.481   5.207  1.00  0.00     0.005 A 
HETATM   20  C23 UNL     1      -4.176   8.146   5.455  1.00  0.00     0.068 C 
HETATM   21  N6  UNL     1      -1.800   7.743   5.976  1.00  0.00    -0.363 N 
ATOM     22  H6  UNL     1      -1.912   8.413   6.737  1.00  0.00     0.165 HD
ENDBRANCH  14  15
ENDBRANCH  11  14
ENDBRANCH   7  11
BRANCH   4  23
HETATM   23  N3  UNL     1       2.257  14.070   7.069  1.00  0.00    -0.370 N 
HETATM   24  C7  UNL     1       1.735  15.435   6.879  1.00  0.00     0.151 C 
BRANCH  23  25
HETATM   25  C8  UNL     1       3.143  13.709   8.127  1.00  0.00     0.154 C 
BRANCH  25  26
HETATM   26  C9  UNL     1       4.566  13.510   7.791  1.00  0.00     0.291 C 
BRANCH  26  27
HETATM   27  N4  UNL     1       5.600  14.006   8.563  1.00  0.00     0.081 N 
HETATM   28  C10 UNL     1       5.657  13.653   9.946  1.00  0.00     0.309 C 
HETATM   29  C11 UNL     1       5.618  15.460   8.480  1.00  0.00     0.309 C 
ENDBRANCH  26  27
ENDBRANCH  25  26
ENDBRANCH  23  25
ENDBRANCH   4  23
BRANCH   1  30
HETATM   30  N1  UNL     1       1.044  12.933   2.735  1.00  0.00    -0.388 NA
BRANCH  30  31
HETATM   31  C4  UNL     1       0.965  13.285   1.457  1.00  0.00     0.159 C 
BRANCH  31  32
HETATM   32  C3  UNL     1       0.177  12.321   0.538  1.00  0.00     0.059 C 
BRANCH  32  33
HETATM   33  C2  UNL     1       1.245  11.633  -0.297  1.00  0.00     0.002 C 
HETATM   34  C1  UNL     1       2.363  12.603  -0.637  1.00  0.00     0.005 C 
ENDBRANCH  32  33
ENDBRANCH  31  32
ENDBRANCH  30  31
ENDBRANCH   1  30
TORSDOF 11
ENDMDL
MODEL 3
REMARK VINA RESULT: -6.461554637      1.212      2.347
REMARK  11 active torsions:
REMARK  status: ('A' for Active; 'I' for Inactive)
REMARK    1  A    between atoms: C2_2  and  C3_3 
REMARK    2  A    between atoms: C3_3  and  C4_4 
REMARK    3  A    between atoms: C4_4  and  N1_5 
REMARK    4  A    between atoms: N1_5  and  C5_6 
REMARK    5  A    between atoms: C6_9  and  N3_10 
REMARK    6  A    between atoms: N3_10  and  C8_12 
REMARK    7  A    between atoms: C8_12  and  C9_13 
REMARK    8  A    between atoms: C9_13  and  N4_14 
REMARK    9  A    between atoms: N5_19  and  C14_21 
REMARK   10  A    between atoms: C14_21  and  C17_24 
REMARK   11  A    between atoms: C17_24  and  C18_25 
ROOT
HETATM    1  C5  UNL     1       1.313  12.987   4.373  1.00  0.00     0.261 A 
HETATM    2  N2  UNL     1       2.022  13.582   5.380  1.00  0.00    -0.302 N 
ATOM      3  H2  UNL     1       2.341  14.544   5.261  1.00  0.00     0.171 HD
HETATM    4  C6  UNL     1       2.309  12.944   6.509  1.00  0.00     0.109 A 
HETATM    5  C12 UNL     1       1.878  11.650   6.662  1.00  0.00     0.096 A 
HETATM    6  C13 UNL     1       1.157  11.019   5.655  1.00  0.00     0.108 A 
HETATM    7  N5  UNL     1       0.716   9.827   5.706  1.00  0.00    -0.367 N 
ATOM      8  H5  UNL     1       0.208   9.537   4.870  1.00  0.00     0.162 HD
HETATM    9  N7  UNL     1       0.898  11.710   4.543  1.00  0.00    -0.302 N 
ATOM     10  H7  UNL     1       0.369  11.261   3.795  1.00  0.00     0.171 HD
ENDROOT
BRANCH   7  11
HETATM   11  C14 UNL     1       0.797   8.832   6.700  1.00  0.00     0.029 C 
HETATM   12  C15 UNL     1       0.549   7.468   6.096  1.00  0.00     0.038 C 
HETATM   13  C16 UNL     1       2.162   8.853   7.385  1.00  0.00     0.038 C 
BRANCH  11  14
HETATM   14  C17 UNL     1      -0.226   9.118   7.789  1.00  0.00     0.087 C 
BRANCH  14  15
HETATM   15  C18 UNL     1      -1.595   9.312   7.269  1.00  0.00     0.011 A 
HETATM   16  C19 UNL     1      -2.345   8.223   6.802  1.00  0.00     0.025 A 
HETATM   17  C20 UNL     1      -3.609   8.354   6.306  1.00  0.00     0.004 A 
HETATM   18  C21 UNL     1      -4.207   9.595   6.247  1.00  0.00     0.024 A 
HETATM   19  C22 UNL     1      -3.466  10.665   6.707  1.00  0.00     0.005 A 
HETATM   20  C23 UNL     1      -4.093  12.010   6.650  1.00  0.00     0.068 C 
HETATM   21  N6  UNL     1      -2.222  10.498   7.189  1.00  0.00    -0.363 N 
ATOM     22  H6  UNL     1      -1.722  11.324   7.516  1.00  0.00     0.165 HD
ENDBRANCH  14  15
ENDBRANCH  11  14
ENDBRANCH   7  11
BRANCH   4  23
HETATM   23  N3  UNL     1       3.052  13.600   7.566  1.00  0.00    -0.370 N 
HETATM   24  C7  UNL     1       4.409  13.067   7.772  1.00  0.00     0.151 C 
BRANCH  23  25
HETATM   25  C8  UNL     1       2.506  14.673   8.331  1.00  0.00     0.154 C 
BRANCH  25  26
HETATM   26  C9  UNL     1       1.261  14.416   9.081  1.00  0.00     0.291 C 
BRANCH  26  27
HETATM   27  N4  UNL     1       0.014  14.811   8.634  1.00  0.00     0.081 N 
HETATM   28  C10 UNL     1      -0.875  13.822   8.113  1.00  0.00     0.309 C 
HETATM   29  C11 UNL     1       0.165  15.844   7.618  1.00  0.00     0.309 C 
ENDBRANCH  26  27
ENDBRANCH  25  26
ENDBRANCH  23  25
ENDBRANCH   4  23
BRANCH   1  30
HETATM   30  N1  UNL     1       1.075  13.602   3.366  1.00  0.00    -0.388 NA
BRANCH  30  31
HETATM   31  C4  UNL     1       0.838  14.216   2.213  1.00  0.00     0.159 C 
BRANCH  31  32
HETATM   32  C3  UNL     1       1.488  13.580   0.962  1.00  0.00     0.059 C 
BRANCH  32  33
HETATM   33  C2  UNL     1       0.766  12.253   0.790  1.00  0.00     0.002 C 
HETATM   34  C1  UNL     1       1.256  11.537  -0.457  1.00  0.00     0.005 C 
ENDBRANCH  32  33
ENDBRANCH  31  32
ENDBRANCH  30  31
ENDBRANCH   1  30
TORSDOF 11
ENDMDL
MODEL 4
REMARK VINA RESULT: -6.421034254      1.844      8.055
REMARK  11 active torsions:
REMARK  status: ('A' for Active; 'I' for Inactive)
REMARK    1  A    between atoms: C2_2  and  C3_3 
REMARK    2  A    between atoms: C3_3  and  C4_4 
REMARK    3  A    between atoms: C4_4  and  N1_5 
REMARK    4  A    between atoms: N1_5  and  C5_6 
REMARK    5  A    between atoms: C6_9  and  N3_10 
REMARK    6  A    between atoms: N3_10  and  C8_12 
REMARK    7  A    between atoms: C8_12  and  C9_13 
REMARK    8  A    between atoms: C9_13  and  N4_14 
REMARK    9  A    between atoms: N5_19  and  C14_21 
REMARK   10  A    between atoms: C14_21  and  C17_24 
REMARK   11  A    between atoms: C17_24  and  C18_25 
ROOT
HETATM    1  C5  UNL     1       1.816  10.456   6.930  1.00  0.00     0.261 A 
HETATM    2  N2  UNL     1       1.434  11.043   5.754  1.00  0.00    -0.302 N 
ATOM      3  H2  UNL     1       0.914  10.492   5.071  1.00  0.00     0.171 HD
HETATM    4  C6  UNL     1       1.721  12.309   5.477  1.00  0.00     0.109 A 
HETATM    5  C12 UNL     1       2.421  13.044   6.400  1.00  0.00     0.096 A 
HETATM    6  C13 UNL     1       2.823  12.475   7.603  1.00  0.00     0.108 A 
HETATM    7  N5  UNL     1       3.472  13.074   8.518  1.00  0.00    -0.367 N 
ATOM      8  H5  UNL     1       3.678  12.492   9.330  1.00  0.00     0.162 HD
HETATM    9  N7  UNL     1       2.506  11.197   7.827  1.00  0.00    -0.302 N 
ATOM     10  H7  UNL     1       2.793  10.765   8.705  1.00  0.00     0.171 HD
ENDROOT
BRANCH   7  11
HETATM   11  C14 UNL     1       3.960  14.392   8.620  1.00  0.00     0.029 C 
HETATM   12  C15 UNL     1       5.329  14.493   7.985  1.00  0.00     0.038 C 
HETATM   13  C16 UNL     1       3.007  15.381   7.952  1.00  0.00     0.038 C 
BRANCH  11  14
HETATM   14  C17 UNL     1       4.029  14.795  10.085  1.00  0.00     0.087 C 
BRANCH  14  15
HETATM   15  C18 UNL     1       4.765  13.828  10.924  1.00  0.00     0.011 A 
HETATM   16  C19 UNL     1       6.052  13.404  10.568  1.00  0.00     0.025 A 
HETATM   17  C20 UNL     1       6.767  12.507  11.306  1.00  0.00     0.004 A 
HETATM   18  C21 UNL     1       6.231  11.973  12.460  1.00  0.00     0.024 A 
HETATM   19  C22 UNL     1       4.963  12.393  12.808  1.00  0.00     0.005 A 
HETATM   20  C23 UNL     1       4.369  11.829  14.047  1.00  0.00     0.068 C 
HETATM   21  N6  UNL     1       4.289  13.279  12.055  1.00  0.00    -0.363 N 
ATOM     22  H6  UNL     1       3.355  13.553  12.361  1.00  0.00     0.165 HD
ENDBRANCH  14  15
ENDBRANCH  11  14
ENDBRANCH   7  11
BRANCH   4  23
HETATM   23  N3  UNL     1       1.295  12.913   4.230  1.00  0.00    -0.370 N 
HETATM   24  C7  UNL     1       1.656  14.334   4.091  1.00  0.00     0.151 C 
BRANCH  23  25
HETATM   25  C8  UNL     1       0.593  12.179   3.227  1.00  0.00     0.154 C 
BRANCH  25  26
HETATM   26  C9  UNL     1       0.492  12.780   1.884  1.00  0.00     0.291 C 
BRANCH  26  27
HETATM   27  N4  UNL     1       1.242  12.349   0.805  1.00  0.00     0.081 N 
HETATM   28  C10 UNL     1       2.214  13.233   0.245  1.00  0.00     0.309 C 
HETATM   29  C11 UNL     1       0.353  11.935  -0.273  1.00  0.00     0.309 C 
ENDBRANCH  26  27
ENDBRANCH  25  26
ENDBRANCH  23  25
ENDBRANCH   4  23
BRANCH   1  30
HETATM   30  N1  UNL     1       1.535   9.305   7.141  1.00  0.00    -0.388 NA
BRANCH  30  31
HETATM   31  C4  UNL     1       1.154   8.049   7.340  1.00  0.00     0.159 C 
BRANCH  31  32
HETATM   32  C3  UNL     1       0.183   7.462   6.289  1.00  0.00     0.059 C 
BRANCH  32  33
HETATM   33  C2  UNL     1      -1.138   8.169   6.554  1.00  0.00     0.002 C 
HETATM   34  C1  UNL     1      -2.294   7.369   5.979  1.00  0.00     0.005 C 
ENDBRANCH  32  33
ENDBRANCH  31  32
ENDBRANCH  30  31
ENDBRANCH   1  30
TORSDOF 11
ENDMDL
MODEL 5
REMARK VINA RESULT: -6.276986517      1.933      8.392
REMARK  11 active torsions:
REMARK  status: ('A' for Active; 'I' for Inactive)
REMARK    1  A    between atoms: C2_2  and  C3_3 
REMARK    2  A    between atoms: C3_3  and  C4_4 
REMARK    3  A    between atoms: C4_4  and  N1_5 
REMARK    4  A    between atoms: N1_5  and  C5_6 
REMARK    5  A    between atoms: C6_9  and  N3_10 
REMARK    6  A    between atoms: N3_10  and  C8_12 
REMARK    7  A    between atoms: C8_12  and  C9_13 
REMARK    8  A    between atoms: C9_13  and  N4_14 
REMARK    9  A    between atoms: N5_19  and  C14_21 
REMARK   10  A    between atoms: C14_21  and  C17_24 
REMARK   11  A    between atoms: C17_24  and  C18_25 
ROOT
HETATM    1  C5  UNL     1       1.728  10.338   6.800  1.00  0.00     0.261 A 
HETATM    2  N2  UNL     1       1.356  10.975   5.648  1.00  0.00    -0.302 N 
ATOM      3  H2  UNL     1       0.824  10.460   4.947  1.00  0.00     0.171 HD
HETATM    4  C6  UNL     1       1.668  12.245   5.417  1.00  0.00     0.109 A 
HETATM    5  C12 UNL     1       2.385  12.931   6.365  1.00  0.00     0.096 A 
HETATM    6  C13 UNL     1       2.777  12.310   7.544  1.00  0.00     0.108 A 
HETATM    7  N5  UNL     1       3.441  12.862   8.479  1.00  0.00    -0.367 N 
ATOM      8  H5  UNL     1       3.637  12.246   9.268  1.00  0.00     0.162 HD
HETATM    9  N7  UNL     1       2.435  11.032   7.723  1.00  0.00    -0.302 N 
ATOM     10  H7  UNL     1       2.716  10.562   8.583  1.00  0.00     0.171 HD
ENDROOT
BRANCH   7  11
HETATM   11  C14 UNL     1       3.955  14.165   8.628  1.00  0.00     0.029 C 
HETATM   12  C15 UNL     1       5.328  14.260   8.000  1.00  0.00     0.038 C 
HETATM   13  C16 UNL     1       3.025  15.197   7.994  1.00  0.00     0.038 C 
BRANCH  11  14
HETATM   14  C17 UNL     1       4.029  14.515  10.106  1.00  0.00     0.087 C 
BRANCH  14  15
HETATM   15  C18 UNL     1       5.278  14.064  10.753  1.00  0.00     0.011 A 
HETATM   16  C19 UNL     1       5.356  12.804  11.362  1.00  0.00     0.025 A 
HETATM   17  C20 UNL     1       6.485  12.348  11.978  1.00  0.00     0.004 A 
HETATM   18  C21 UNL     1       7.617  13.134  12.022  1.00  0.00     0.024 A 
HETATM   19  C22 UNL     1       7.537  14.374  11.421  1.00  0.00     0.005 A 
HETATM   20  C23 UNL     1       8.748  15.235  11.459  1.00  0.00     0.068 C 
HETATM   21  N6  UNL     1       6.407  14.790  10.823  1.00  0.00    -0.363 N 
ATOM     22  H6  UNL     1       6.406  15.716  10.396  1.00  0.00     0.165 HD
ENDBRANCH  14  15
ENDBRANCH  11  14
ENDBRANCH   7  11
BRANCH   4  23
HETATM   23  N3  UNL     1       1.253  12.902   4.194  1.00  0.00    -0.370 N 
HETATM   24  C7  UNL     1       1.626  14.324   4.114  1.00  0.00     0.151 C 
BRANCH  23  25
HETATM   25  C8  UNL     1       0.548  12.216   3.160  1.00  0.00     0.154 C 
BRANCH  25  26
HETATM   26  C9  UNL     1       0.527  12.832   1.820  1.00  0.00     0.291 C 
BRANCH  26  27
HETATM   27  N4  UNL     1       1.252  12.340   0.751  1.00  0.00     0.081 N 
HETATM   28  C10 UNL     1       2.256  13.167   0.160  1.00  0.00     0.309 C 
HETATM   29  C11 UNL     1       0.341  11.931  -0.310  1.00  0.00     0.309 C 
ENDBRANCH  26  27
ENDBRANCH  25  26
ENDBRANCH  23  25
ENDBRANCH   4  23
BRANCH   1  30
HETATM   30  N1  UNL     1       1.425   9.185   6.970  1.00  0.00    -0.388 NA
BRANCH  30  31
HETATM   31  C4  UNL     1       1.026   7.927   7.111  1.00  0.00     0.159 C 
BRANCH  31  32
HETATM   32  C3  UNL     1       0.177   7.353   5.952  1.00  0.00     0.059 C 
BRANCH  32  33
HETATM   33  C2  UNL     1      -1.229   7.869   6.218  1.00  0.00     0.002 C 
HETATM   34  C1  UNL     1      -2.253   7.034   5.469  1.00  0.00     0.005 C 
ENDBRANCH  32  33
ENDBRANCH  31  32
ENDBRANCH  30  31
ENDBRANCH   1  30
TORSDOF 11
ENDMDL
