MODEL 1
REMARK VINA RESULT: -8.533747513      0.000      0.000
REMARK  8 active torsions:
REMARK  status: ('A' for Active; 'I' for Inactive)
REMARK    1  A    between atoms: C3_6  and  C4_7 
REMARK    2  A    between atoms: C5_10  and  O2_11 
REMARK    3  A    between atoms: N4_13  and  C6_14 
REMARK    4  A    between atoms: C6_14  and  C7_15 
REMARK       I    between atoms: C7_15  and  N5_17 
REMARK    5  A    between atoms: N5_17  and  N6_19 
REMARK    6  A    between atoms: C8_20  and  N7_21 
REMARK    7  A    between atoms: N7_21  and  N8_23 
REMARK    8  A    between atoms: C9_29  and  N10_30 
ROOT
HETATM    1  N1  UNL     1      21.595  15.727   7.947  1.00  0.00    -0.188 NA
HETATM    2  C1  UNL     1      20.790  16.546   7.701  1.00  0.00     0.137 C 
HETATM    3  C2  UNL     1      19.803  17.550   7.422  1.00  0.00     0.193 A 
HETATM    4  N2  UNL     1      19.384  18.524   8.280  1.00  0.00    -0.326 N 
ATOM      5  H2  UNL     1      19.722  18.662   9.232  1.00  0.00     0.168 HD
HETATM    6  C3  UNL     1      18.451  19.272   7.664  1.00  0.00     0.151 A 
HETATM    7  C5  UNL     1      18.312  18.727   6.406  1.00  0.00     0.177 A 
HETATM    8  N4  UNL     1      19.139  17.673   6.259  1.00  0.00    -0.294 N 
ENDROOT
BRANCH   8   9
HETATM    9  C6  UNL     1      19.286  16.843   5.093  1.00  0.00     0.238 C 
BRANCH   9  10
HETATM   10  C7  UNL     1      18.273  15.691   5.189  1.00  0.00     0.255 C 
HETATM   11  O3  UNL     1      17.092  15.987   5.125  1.00  0.00    -0.270 OA
HETATM   12  N5  UNL     1      18.871  14.442   5.340  1.00  0.00    -0.245 N 
ATOM     13  H5  UNL     1      19.891  14.454   5.375  1.00  0.00     0.191 HD
BRANCH  12  14
HETATM   14  N6  UNL     1      18.280  13.155   5.452  1.00  0.00    -0.058 N 
HETATM   15  C8  UNL     1      18.636  12.346   6.456  1.00  0.00     0.726 A 
HETATM   16  N9  UNL     1      18.067  11.107   6.448  1.00  0.00    -0.154 N 
HETATM   17  S1  UNL     1      17.098  11.093   5.118  1.00  0.00     0.041 SA
ATOM     18  H9  UNL     1      18.211  10.353   7.120  1.00  0.00     0.193 HD
HETATM   19  C9  UNL     1      17.422  12.696   4.554  1.00  0.00     0.198 A 
BRANCH  15  20
HETATM   20  N7  UNL     1      19.413  12.557   7.462  1.00  0.00    -0.136 N 
ATOM     21  H7  UNL     1      20.267  12.003   7.387  1.00  0.00     0.205 HD
BRANCH  20  22
HETATM   22  N8  UNL     1      19.416  13.286   8.560  1.00  0.00    -0.331 N 
ATOM     23  H82 UNL     1      19.853  12.763   9.318  1.00  0.00     0.177 HD
ATOM     24  H81 UNL     1      19.106  14.212   8.854  1.00  0.00     0.177 HD
ENDBRANCH  20  22
ENDBRANCH  15  20
BRANCH  19  25
HETATM   25  N10 UNL     1      16.893  13.214   3.467  1.00  0.00    -0.377 N 
ATOM     26 2H10 UNL     1      16.685  14.206   3.350  1.00  0.00     0.158 HD
ATOM     27 1H10 UNL     1      16.581  12.813   2.583  1.00  0.00     0.158 HD
ENDBRANCH  19  25
ENDBRANCH  12  14
ENDBRANCH   9  10
ENDBRANCH   8   9
BRANCH   6  28
HETATM   28  C4  UNL     1      17.724  20.436   8.215  1.00  0.00     0.285 C 
HETATM   29  N3  UNL     1      16.311  20.415   8.191  1.00  0.00    -0.056 NA
HETATM   30  O1  UNL     1      18.384  21.393   8.680  1.00  0.00    -0.269 OA
ENDBRANCH   6  28
BRANCH   7  31
HETATM   31  O2  UNL     1      17.435  19.199   5.417  1.00  0.00    -0.344 OA
ATOM     32  H2  UNL     1      17.670  19.353   4.509  1.00  0.00     0.219 HD
ENDBRANCH   7  31
TORSDOF 8
ENDMDL
MODEL 2
REMARK VINA RESULT: -8.476845353      1.456      1.647
REMARK  8 active torsions:
REMARK  status: ('A' for Active; 'I' for Inactive)
REMARK    1  A    between atoms: C3_6  and  C4_7 
REMARK    2  A    between atoms: C5_10  and  O2_11 
REMARK    3  A    between atoms: N4_13  and  C6_14 
REMARK    4  A    between atoms: C6_14  and  C7_15 
REMARK       I    between atoms: C7_15  and  N5_17 
REMARK    5  A    between atoms: N5_17  and  N6_19 
REMARK    6  A    between atoms: C8_20  and  N7_21 
REMARK    7  A    between atoms: N7_21  and  N8_23 
REMARK    8  A    between atoms: C9_29  and  N10_30 
ROOT
HETATM    1  N1  UNL     1      21.714  17.855   5.831  1.00  0.00    -0.188 NA
HETATM    2  C1  UNL     1      20.709  18.294   6.252  1.00  0.00     0.137 C 
HETATM    3  C2  UNL     1      19.492  18.838   6.785  1.00  0.00     0.193 A 
HETATM    4  N2  UNL     1      19.392  19.895   7.640  1.00  0.00    -0.326 N 
ATOM      5  H2  UNL     1      20.175  20.435   8.010  1.00  0.00     0.168 HD
HETATM    6  C3  UNL     1      18.094  20.109   7.915  1.00  0.00     0.151 A 
HETATM    7  C5  UNL     1      17.402  19.152   7.204  1.00  0.00     0.177 A 
HETATM    8  N4  UNL     1      18.259  18.374   6.512  1.00  0.00    -0.294 N 
ENDROOT
BRANCH   8   9
HETATM    9  C6  UNL     1      17.926  17.270   5.654  1.00  0.00     0.238 C 
BRANCH   9  10
HETATM   10  C7  UNL     1      17.862  15.994   6.511  1.00  0.00     0.255 C 
HETATM   11  O3  UNL     1      17.474  16.120   7.660  1.00  0.00    -0.270 OA
HETATM   12  N5  UNL     1      18.269  14.851   5.828  1.00  0.00    -0.245 N 
ATOM     13  H5  UNL     1      18.561  15.006   4.863  1.00  0.00     0.191 HD
BRANCH  12  14
HETATM   14  N6  UNL     1      18.340  13.502   6.269  1.00  0.00    -0.058 N 
HETATM   15  C8  UNL     1      19.163  13.173   7.270  1.00  0.00     0.726 A 
HETATM   16  N9  UNL     1      19.214  11.847   7.583  1.00  0.00    -0.154 N 
HETATM   17  S1  UNL     1      18.170  11.123   6.539  1.00  0.00     0.041 SA
ATOM     18  H9  UNL     1      19.778  11.401   8.308  1.00  0.00     0.193 HD
HETATM   19  C9  UNL     1      17.655  12.534   5.679  1.00  0.00     0.198 A 
BRANCH  15  20
HETATM   20  N7  UNL     1      19.904  13.915   8.019  1.00  0.00    -0.136 N 
ATOM     21  H7  UNL     1      19.664  13.796   9.004  1.00  0.00     0.205 HD
BRANCH  20  22
HETATM   22  N8  UNL     1      20.884  14.785   7.871  1.00  0.00    -0.331 N 
ATOM     23  H82 UNL     1      21.726  14.302   7.558  1.00  0.00     0.177 HD
ATOM     24  H81 UNL     1      21.028  15.789   7.981  1.00  0.00     0.177 HD
ENDBRANCH  20  22
ENDBRANCH  15  20
BRANCH  19  25
HETATM   25  N10 UNL     1      16.796  12.516   4.683  1.00  0.00    -0.377 N 
ATOM     26 2H10 UNL     1      16.216  13.311   4.416  1.00  0.00     0.158 HD
ATOM     27 1H10 UNL     1      16.513  11.796   4.018  1.00  0.00     0.158 HD
ENDBRANCH  19  25
ENDBRANCH  12  14
ENDBRANCH   9  10
ENDBRANCH   8   9
BRANCH   6  28
HETATM   28  C4  UNL     1      17.520  21.151   8.795  1.00  0.00     0.285 C 
HETATM   29  N3  UNL     1      16.323  20.857   9.488  1.00  0.00    -0.056 NA
HETATM   30  O1  UNL     1      18.112  22.249   8.893  1.00  0.00    -0.269 OA
ENDBRANCH   6  28
BRANCH   7  31
HETATM   31  O2  UNL     1      16.006  19.006   7.198  1.00  0.00    -0.344 OA
ATOM     32  H2  UNL     1      15.453  19.025   7.970  1.00  0.00     0.219 HD
ENDBRANCH   7  31
TORSDOF 8
ENDMDL
MODEL 3
REMARK VINA RESULT: -8.452007896      1.522      2.491
REMARK  8 active torsions:
REMARK  status: ('A' for Active; 'I' for Inactive)
REMARK    1  A    between atoms: C3_6  and  C4_7 
REMARK    2  A    between atoms: C5_10  and  O2_11 
REMARK    3  A    between atoms: N4_13  and  C6_14 
REMARK    4  A    between atoms: C6_14  and  C7_15 
REMARK       I    between atoms: C7_15  and  N5_17 
REMARK    5  A    between atoms: N5_17  and  N6_19 
REMARK    6  A    between atoms: C8_20  and  N7_21 
REMARK    7  A    between atoms: N7_21  and  N8_23 
REMARK    8  A    between atoms: C9_29  and  N10_30 
ROOT
HETATM    1  N1  UNL     1      21.723  17.837   5.783  1.00  0.00    -0.188 NA
HETATM    2  C1  UNL     1      20.719  18.268   6.216  1.00  0.00     0.137 C 
HETATM    3  C2  UNL     1      19.504  18.800   6.763  1.00  0.00     0.193 A 
HETATM    4  N2  UNL     1      19.407  19.844   7.635  1.00  0.00    -0.326 N 
ATOM      5  H2  UNL     1      20.190  20.380   8.010  1.00  0.00     0.168 HD
HETATM    6  C3  UNL     1      18.109  20.051   7.921  1.00  0.00     0.151 A 
HETATM    7  C5  UNL     1      17.416  19.103   7.199  1.00  0.00     0.177 A 
HETATM    8  N4  UNL     1      18.270  18.338   6.491  1.00  0.00    -0.294 N 
ENDROOT
BRANCH   8   9
HETATM    9  C6  UNL     1      17.935  17.246   5.618  1.00  0.00     0.238 C 
BRANCH   9  10
HETATM   10  C7  UNL     1      17.850  15.962   6.460  1.00  0.00     0.255 C 
HETATM   11  O3  UNL     1      17.473  16.083   7.613  1.00  0.00    -0.270 OA
HETATM   12  N5  UNL     1      18.227  14.818   5.761  1.00  0.00    -0.245 N 
ATOM     13  H5  UNL     1      18.515  14.978   4.796  1.00  0.00     0.191 HD
BRANCH  12  14
HETATM   14  N6  UNL     1      18.271  13.463   6.186  1.00  0.00    -0.058 N 
HETATM   15  C8  UNL     1      17.557  12.539   5.534  1.00  0.00     0.726 A 
HETATM   16  N9  UNL     1      17.609  11.278   6.050  1.00  0.00    -0.154 N 
HETATM   17  S1  UNL     1      18.599  11.394   7.359  1.00  0.00     0.041 SA
ATOM     18  H9  UNL     1      17.136  10.444   5.701  1.00  0.00     0.193 HD
HETATM   19  C9  UNL     1      18.957  13.084   7.254  1.00  0.00     0.198 A 
BRANCH  15  20
HETATM   20  N7  UNL     1      16.843  12.637   4.466  1.00  0.00    -0.136 N 
ATOM     21  H7  UNL     1      15.849  12.693   4.693  1.00  0.00     0.205 HD
BRANCH  20  22
HETATM   22  N8  UNL     1      17.035  12.685   3.162  1.00  0.00    -0.331 N 
ATOM     23  H82 UNL     1      17.639  13.474   2.934  1.00  0.00     0.177 HD
ATOM     24  H81 UNL     1      16.749  12.160   2.336  1.00  0.00     0.177 HD
ENDBRANCH  20  22
ENDBRANCH  15  20
BRANCH  19  25
HETATM   25  N10 UNL     1      19.726  13.728   8.105  1.00  0.00    -0.377 N 
ATOM     26 2H10 UNL     1      20.039  13.342   8.996  1.00  0.00     0.158 HD
ATOM     27 1H10 UNL     1      20.142  14.659   8.104  1.00  0.00     0.158 HD
ENDBRANCH  19  25
ENDBRANCH  12  14
ENDBRANCH   9  10
ENDBRANCH   8   9
BRANCH   6  28
HETATM   28  C4  UNL     1      17.538  21.078   8.819  1.00  0.00     0.285 C 
HETATM   29  N3  UNL     1      16.306  20.801   9.454  1.00  0.00    -0.056 NA
HETATM   30  O1  UNL     1      18.164  22.149   8.985  1.00  0.00    -0.269 OA
ENDBRANCH   6  28
BRANCH   7  31
HETATM   31  O2  UNL     1      16.020  18.954   7.199  1.00  0.00    -0.344 OA
ATOM     32  H2  UNL     1      15.506  18.636   6.465  1.00  0.00     0.219 HD
ENDBRANCH   7  31
TORSDOF 8
ENDMDL
MODEL 4
REMARK VINA RESULT: -8.425758587      1.769      3.030
REMARK  8 active torsions:
REMARK  status: ('A' for Active; 'I' for Inactive)
REMARK    1  A    between atoms: C3_6  and  C4_7 
REMARK    2  A    between atoms: C5_10  and  O2_11 
REMARK    3  A    between atoms: N4_13  and  C6_14 
REMARK    4  A    between atoms: C6_14  and  C7_15 
REMARK       I    between atoms: C7_15  and  N5_17 
REMARK    5  A    between atoms: N5_17  and  N6_19 
REMARK    6  A    between atoms: C8_20  and  N7_21 
REMARK    7  A    between atoms: N7_21  and  N8_23 
REMARK    8  A    between atoms: C9_29  and  N10_30 
ROOT
HETATM    1  N1  UNL     1      19.469  16.204   3.394  1.00  0.00    -0.188 NA
HETATM    2  C1  UNL     1      19.114  16.786   4.351  1.00  0.00     0.137 C 
HETATM    3  C2  UNL     1      18.679  17.517   5.508  1.00  0.00     0.193 A 
HETATM    4  N2  UNL     1      17.885  18.625   5.505  1.00  0.00    -0.326 N 
ATOM      5  H2  UNL     1      17.499  19.077   4.676  1.00  0.00     0.168 HD
HETATM    6  C3  UNL     1      17.695  19.026   6.774  1.00  0.00     0.151 A 
HETATM    7  C5  UNL     1      18.396  18.130   7.553  1.00  0.00     0.177 A 
HETATM    8  N4  UNL     1      18.998  17.207   6.778  1.00  0.00    -0.294 N 
ENDROOT
BRANCH   8   9
HETATM    9  C6  UNL     1      19.818  16.109   7.215  1.00  0.00     0.238 C 
BRANCH   9  10
HETATM   10  C7  UNL     1      18.900  14.920   7.542  1.00  0.00     0.255 C 
HETATM   11  O3  UNL     1      18.309  14.955   8.608  1.00  0.00    -0.270 OA
HETATM   12  N5  UNL     1      18.877  13.950   6.542  1.00  0.00    -0.245 N 
ATOM     13  H5  UNL     1      19.472  14.147   5.737  1.00  0.00     0.191 HD
BRANCH  12  14
HETATM   14  N6  UNL     1      18.154  12.729   6.472  1.00  0.00    -0.058 N 
HETATM   15  C8  UNL     1      17.346  12.495   5.433  1.00  0.00     0.726 A 
HETATM   16  N9  UNL     1      16.642  11.328   5.481  1.00  0.00    -0.154 N 
HETATM   17  S1  UNL     1      17.097  10.616   6.892  1.00  0.00     0.041 SA
ATOM     18  H9  UNL     1      15.978  10.974   4.791  1.00  0.00     0.193 HD
HETATM   19  C9  UNL     1      18.205  11.827   7.440  1.00  0.00     0.198 A 
BRANCH  15  20
HETATM   20  N7  UNL     1      17.141  13.184   4.363  1.00  0.00    -0.136 N 
ATOM     21  H7  UNL     1      16.244  13.668   4.405  1.00  0.00     0.205 HD
BRANCH  20  22
HETATM   22  N8  UNL     1      17.766  13.439   3.230  1.00  0.00    -0.331 N 
ATOM     23  H82 UNL     1      18.363  14.258   3.345  1.00  0.00     0.177 HD
ATOM     24  H81 UNL     1      17.814  13.050   2.289  1.00  0.00     0.177 HD
ENDBRANCH  20  22
ENDBRANCH  15  20
BRANCH  19  25
HETATM   25  N10 UNL     1      18.866  11.760   8.575  1.00  0.00    -0.377 N 
ATOM     26 2H10 UNL     1      19.559  12.446   8.873  1.00  0.00     0.158 HD
ATOM     27 1H10 UNL     1      18.870  11.087   9.342  1.00  0.00     0.158 HD
ENDBRANCH  19  25
ENDBRANCH  12  14
ENDBRANCH   9  10
ENDBRANCH   8   9
BRANCH   6  28
HETATM   28  C4  UNL     1      16.902  20.182   7.244  1.00  0.00     0.285 C 
HETATM   29  N3  UNL     1      16.818  20.416   8.636  1.00  0.00    -0.056 NA
HETATM   30  O1  UNL     1      16.336  20.909   6.396  1.00  0.00    -0.269 OA
ENDBRANCH   6  28
BRANCH   7  31
HETATM   31  O2  UNL     1      18.474  18.170   8.954  1.00  0.00    -0.344 OA
ATOM     32  H2  UNL     1      18.492  17.408   9.522  1.00  0.00     0.219 HD
ENDBRANCH   7  31
TORSDOF 8
ENDMDL
MODEL 5
REMARK VINA RESULT: -8.413672676      2.278      3.663
REMARK  8 active torsions:
REMARK  status: ('A' for Active; 'I' for Inactive)
REMARK    1  A    between atoms: C3_6  and  C4_7 
REMARK    2  A    between atoms: C5_10  and  O2_11 
REMARK    3  A    between atoms: N4_13  and  C6_14 
REMARK    4  A    between atoms: C6_14  and  C7_15 
REMARK       I    between atoms: C7_15  and  N5_17 
REMARK    5  A    between atoms: N5_17  and  N6_19 
REMARK    6  A    between atoms: C8_20  and  N7_21 
REMARK    7  A    between atoms: N7_21  and  N8_23 
REMARK    8  A    between atoms: C9_29  and  N10_30 
ROOT
HETATM    1  N1  UNL     1      17.842  13.492   3.157  1.00  0.00    -0.188 NA
HETATM    2  C1  UNL     1      18.276  14.257   3.936  1.00  0.00     0.137 C 
HETATM    3  C2  UNL     1      18.809  15.206   4.872  1.00  0.00     0.193 A 
HETATM    4  N2  UNL     1      18.733  16.563   4.769  1.00  0.00    -0.326 N 
ATOM      5  H2  UNL     1      18.285  17.077   4.010  1.00  0.00     0.168 HD
HETATM    6  C3  UNL     1      19.345  17.114   5.832  1.00  0.00     0.151 A 
HETATM    7  C5  UNL     1      19.798  16.054   6.588  1.00  0.00     0.177 A 
HETATM    8  N4  UNL     1      19.470  14.887   6.000  1.00  0.00    -0.294 N 
ENDROOT
BRANCH   8   9
HETATM    9  C6  UNL     1      19.764  13.563   6.478  1.00  0.00     0.238 C 
BRANCH   9  10
HETATM   10  C7  UNL     1      18.456  12.924   6.971  1.00  0.00     0.255 C 
HETATM   11  O3  UNL     1      17.910  13.451   7.926  1.00  0.00    -0.270 OA
HETATM   12  N5  UNL     1      18.076  11.806   6.233  1.00  0.00    -0.245 N 
ATOM     13  H5  UNL     1      18.711  11.553   5.476  1.00  0.00     0.191 HD
BRANCH  12  14
HETATM   14  N6  UNL     1      16.940  10.964   6.373  1.00  0.00    -0.058 N 
HETATM   15  C8  UNL     1      16.887  10.082   7.377  1.00  0.00     0.726 A 
HETATM   16  N9  UNL     1      15.790   9.272   7.396  1.00  0.00    -0.154 N 
HETATM   17  S1  UNL     1      14.901   9.729   6.090  1.00  0.00     0.041 SA
ATOM     18  H9  UNL     1      15.570   8.540   8.073  1.00  0.00     0.193 HD
HETATM   19  C9  UNL     1      15.944  10.978   5.501  1.00  0.00     0.198 A 
BRANCH  15  20
HETATM   20  N7  UNL     1      17.696   9.889   8.362  1.00  0.00    -0.136 N 
ATOM     21  H7  UNL     1      17.194   9.876   9.251  1.00  0.00     0.205 HD
BRANCH  20  22
HETATM   22  N8  UNL     1      18.989   9.704   8.543  1.00  0.00    -0.331 N 
ATOM     23  H82 UNL     1      19.492   9.945   7.690  1.00  0.00     0.177 HD
ATOM     24  H81 UNL     1      19.611   9.391   9.288  1.00  0.00     0.177 HD
ENDBRANCH  20  22
ENDBRANCH  15  20
BRANCH  19  25
HETATM   25  N10 UNL     1      15.703  11.689   4.421  1.00  0.00    -0.377 N 
ATOM     26 2H10 UNL     1      15.828  12.700   4.363  1.00  0.00     0.158 HD
ATOM     27 1H10 UNL     1      15.358  11.451   3.491  1.00  0.00     0.158 HD
ENDBRANCH  19  25
ENDBRANCH  12  14
ENDBRANCH   9  10
ENDBRANCH   8   9
BRANCH   6  28
HETATM   28  C4  UNL     1      19.503  18.553   6.134  1.00  0.00     0.285 C 
HETATM   29  N3  UNL     1      20.440  18.931   7.123  1.00  0.00    -0.056 NA
HETATM   30  O1  UNL     1      18.805  19.381   5.506  1.00  0.00    -0.269 OA
ENDBRANCH   6  28
BRANCH   7  31
HETATM   31  O2  UNL     1      20.501  16.170   7.798  1.00  0.00    -0.344 OA
ATOM     32  H2  UNL     1      20.821  15.439   8.314  1.00  0.00     0.219 HD
ENDBRANCH   7  31
TORSDOF 8
ENDMDL
