MODEL 1
REMARK VINA RESULT: -9.427445270      0.000      0.000
REMARK  8 active torsions:
REMARK  status: ('A' for Active; 'I' for Inactive)
REMARK    1  A    between atoms: N1_1  and  C1_4 
REMARK    2  A    between atoms: C4_10  and  S1_11 
REMARK    3  A    between atoms: S1_11  and  C5_12 
REMARK    4  A    between atoms: C6_13  and  C7_14 
REMARK    5  A    between atoms: N6_21  and  C8_22 
REMARK    6  A    between atoms: C8_22  and  N7_23 
REMARK    7  A    between atoms: N7_23  and  O3_25 
REMARK    8  A    between atoms: N9_29  and  N10_30 
ROOT
HETATM    1  C1  UNL     1      18.971  15.997   4.330  1.00  0.00     0.680 A 
HETATM    2  N2  UNL     1      19.166  17.323   4.143  1.00  0.00    -0.155 N 
ATOM      3  H2  UNL     1      19.269  17.702   3.202  1.00  0.00     0.187 HD
HETATM    4  C2  UNL     1      19.222  18.126   5.203  1.00  0.00     0.276 A 
HETATM    5  O1  UNL     1      19.396  19.347   5.041  1.00  0.00    -0.267 OA
HETATM    6  C3  UNL     1      19.090  17.671   6.502  1.00  0.00     0.116 A 
HETATM    7  C4  UNL     1      19.086  18.223   7.759  1.00  0.00     0.112 A 
HETATM    8  N8  UNL     1      18.881  17.170   8.588  1.00  0.00    -0.270 N 
ATOM      9  H8  UNL     1      18.823  17.248   9.604  1.00  0.00     0.190 HD
HETATM   10  N9  UNL     1      18.766  16.040   7.932  1.00  0.00    -0.184 N 
HETATM   11  C9  UNL     1      18.891  16.292   6.611  1.00  0.00     0.178 A 
HETATM   12  N11 UNL     1      18.831  15.468   5.557  1.00  0.00    -0.172 N 
ATOM     13  H11 UNL     1      18.683  14.467   5.682  1.00  0.00     0.186 HD
ENDROOT
BRANCH   7  14
HETATM   14  S1  UNL     1      19.374  19.921   8.178  1.00  0.00    -0.048 SA
BRANCH  14  15
HETATM   15  C5  UNL     1      18.228  20.583   9.366  1.00  0.00     0.135 A 
HETATM   16  C6  UNL     1      16.896  20.862   9.018  1.00  0.00     0.150 A 
HETATM   17  N4  UNL     1      16.325  21.320  10.142  1.00  0.00    -0.278 N 
HETATM   18  N5  UNL     1      17.216  21.328  11.103  1.00  0.00    -0.234 N 
ATOM     19  H4  UNL     1      15.353  21.614  10.234  1.00  0.00     0.189 HD
HETATM   20  N6  UNL     1      18.392  20.881  10.654  1.00  0.00    -0.227 N 
ATOM     21  H5  UNL     1      17.036  21.632  12.059  1.00  0.00     0.209 HD
BRANCH  16  22
HETATM   22  C7  UNL     1      16.269  20.728   7.699  1.00  0.00     0.285 C 
HETATM   23  N3  UNL     1      15.967  21.828   6.866  1.00  0.00    -0.056 NA
HETATM   24  O2  UNL     1      15.971  19.565   7.264  1.00  0.00    -0.269 OA
ENDBRANCH  16  22
BRANCH  20  25
HETATM   25  C8  UNL     1      19.564  20.779  11.438  1.00  0.00     0.232 C 
BRANCH  25  26
HETATM   26  N7  UNL     1      19.664  21.445  12.539  1.00  0.00    -0.263 N 
ATOM     27  H7  UNL     1      19.216  22.359  12.604  1.00  0.00     0.195 HD
BRANCH  26  28
HETATM   28  O3  UNL     1      20.353  20.968  13.628  1.00  0.00    -0.289 OA
ATOM     29  H3  UNL     1      21.059  21.456  14.038  1.00  0.00     0.244 HD
ENDBRANCH  26  28
ENDBRANCH  25  26
ENDBRANCH  20  25
ENDBRANCH  14  15
ENDBRANCH   7  14
BRANCH  10  30
HETATM   30  N10 UNL     1      18.548  14.744   8.460  1.00  0.00    -0.322 N 
ATOM     31 2H10 UNL     1      18.053  14.571   9.336  1.00  0.00     0.179 HD
ATOM     32 1H10 UNL     1      18.836  13.849   8.066  1.00  0.00     0.179 HD
ENDBRANCH  10  30
BRANCH   1  33
HETATM   33  N1  UNL     1      18.920  15.235   3.298  1.00  0.00    -0.234 N 
ATOM     34  H12 UNL     1      18.015  14.924   2.945  1.00  0.00     0.174 HD
ATOM     35  H11 UNL     1      19.795  14.958   2.854  1.00  0.00     0.174 HD
ENDBRANCH   1  33
TORSDOF 8
ENDMDL
MODEL 2
REMARK VINA RESULT: -8.889565344      2.563      4.285
REMARK  8 active torsions:
REMARK  status: ('A' for Active; 'I' for Inactive)
REMARK    1  A    between atoms: N1_1  and  C1_4 
REMARK    2  A    between atoms: C4_10  and  S1_11 
REMARK    3  A    between atoms: S1_11  and  C5_12 
REMARK    4  A    between atoms: C6_13  and  C7_14 
REMARK    5  A    between atoms: N6_21  and  C8_22 
REMARK    6  A    between atoms: C8_22  and  N7_23 
REMARK    7  A    between atoms: N7_23  and  O3_25 
REMARK    8  A    between atoms: N9_29  and  N10_30 
ROOT
HETATM    1  C1  UNL     1      18.851  12.740   7.032  1.00  0.00     0.680 A 
HETATM    2  N2  UNL     1      18.357  13.554   7.992  1.00  0.00    -0.155 N 
ATOM      3  H2  UNL     1      18.237  13.213   8.946  1.00  0.00     0.187 HD
HETATM    4  C2  UNL     1      18.028  14.805   7.678  1.00  0.00     0.276 A 
HETATM    5  O1  UNL     1      17.578  15.562   8.556  1.00  0.00    -0.267 OA
HETATM    6  C3  UNL     1      18.167  15.323   6.404  1.00  0.00     0.116 A 
HETATM    7  C4  UNL     1      17.943  16.528   5.785  1.00  0.00     0.112 A 
HETATM    8  N8  UNL     1      18.332  16.325   4.502  1.00  0.00    -0.270 N 
ATOM      9  H8  UNL     1      18.293  17.040   3.775  1.00  0.00     0.190 HD
HETATM   10  N9  UNL     1      18.766  15.103   4.305  1.00  0.00    -0.184 N 
HETATM   11  C9  UNL     1      18.684  14.422   5.469  1.00  0.00     0.178 A 
HETATM   12  N11 UNL     1      19.021  13.161   5.766  1.00  0.00    -0.172 N 
ATOM     13  H11 UNL     1      19.396  12.536   5.053  1.00  0.00     0.186 HD
ENDROOT
BRANCH   7  14
HETATM   14  S1  UNL     1      17.223  17.978   6.506  1.00  0.00    -0.048 SA
BRANCH  14  15
HETATM   15  C5  UNL     1      18.327  18.895   7.556  1.00  0.00     0.135 A 
HETATM   16  C6  UNL     1      17.909  20.064   8.211  1.00  0.00     0.150 A 
HETATM   17  N4  UNL     1      18.972  20.472   8.921  1.00  0.00    -0.278 N 
HETATM   18  N5  UNL     1      19.963  19.638   8.726  1.00  0.00    -0.234 N 
ATOM     19  H4  UNL     1      19.004  21.300   9.516  1.00  0.00     0.189 HD
HETATM   20  N6  UNL     1      19.595  18.660   7.892  1.00  0.00    -0.227 N 
ATOM     21  H5  UNL     1      20.886  19.722   9.152  1.00  0.00     0.209 HD
BRANCH  16  22
HETATM   22  C7  UNL     1      16.606  20.729   8.111  1.00  0.00     0.285 C 
HETATM   23  N3  UNL     1      15.669  20.767   9.168  1.00  0.00    -0.056 NA
HETATM   24  O2  UNL     1      16.281  21.308   7.020  1.00  0.00    -0.269 OA
ENDBRANCH  16  22
BRANCH  20  25
HETATM   25  C8  UNL     1      20.438  17.608   7.468  1.00  0.00     0.232 C 
BRANCH  25  26
HETATM   26  N7  UNL     1      21.315  17.815   6.544  1.00  0.00    -0.263 N 
ATOM     27  H7  UNL     1      22.284  17.985   6.815  1.00  0.00     0.195 HD
BRANCH  26  28
HETATM   28  O3  UNL     1      20.992  17.816   5.209  1.00  0.00    -0.289 OA
ATOM     29  H3  UNL     1      20.898  18.618   4.708  1.00  0.00     0.244 HD
ENDBRANCH  26  28
ENDBRANCH  25  26
ENDBRANCH  20  25
ENDBRANCH  14  15
ENDBRANCH   7  14
BRANCH  10  30
HETATM   30  N10 UNL     1      19.249  14.533   3.102  1.00  0.00    -0.322 N 
ATOM     31 2H10 UNL     1      20.237  14.346   2.928  1.00  0.00     0.179 HD
ATOM     32 1H10 UNL     1      18.713  14.243   2.285  1.00  0.00     0.179 HD
ENDBRANCH  10  30
BRANCH   1  33
HETATM   33  N1  UNL     1      19.163  11.536   7.350  1.00  0.00    -0.234 N 
ATOM     34  H12 UNL     1      18.723  11.097   8.158  1.00  0.00     0.174 HD
ATOM     35  H11 UNL     1      19.850  11.045   6.779  1.00  0.00     0.174 HD
ENDBRANCH   1  33
TORSDOF 8
ENDMDL
MODEL 3
REMARK VINA RESULT: -8.870134553      3.769      5.917
REMARK  8 active torsions:
REMARK  status: ('A' for Active; 'I' for Inactive)
REMARK    1  A    between atoms: N1_1  and  C1_4 
REMARK    2  A    between atoms: C4_10  and  S1_11 
REMARK    3  A    between atoms: S1_11  and  C5_12 
REMARK    4  A    between atoms: C6_13  and  C7_14 
REMARK    5  A    between atoms: N6_21  and  C8_22 
REMARK    6  A    between atoms: C8_22  and  N7_23 
REMARK    7  A    between atoms: N7_23  and  O3_25 
REMARK    8  A    between atoms: N9_29  and  N10_30 
ROOT
HETATM    1  C1  UNL     1      16.190  10.957   3.550  1.00  0.00     0.680 A 
HETATM    2  N2  UNL     1      16.716  11.907   2.743  1.00  0.00    -0.155 N 
ATOM      3  H2  UNL     1      16.640  11.823   1.729  1.00  0.00     0.187 HD
HETATM    4  C2  UNL     1      17.335  12.952   3.288  1.00  0.00     0.276 A 
HETATM    5  O1  UNL     1      17.817  13.832   2.552  1.00  0.00    -0.267 OA
HETATM    6  C3  UNL     1      17.471  13.120   4.653  1.00  0.00     0.116 A 
HETATM    7  C4  UNL     1      18.017  14.056   5.495  1.00  0.00     0.112 A 
HETATM    8  N8  UNL     1      17.761  13.581   6.739  1.00  0.00    -0.270 N 
ATOM      9  H8  UNL     1      18.041  14.055   7.598  1.00  0.00     0.190 HD
HETATM   10  N9  UNL     1      17.111  12.442   6.708  1.00  0.00    -0.184 N 
HETATM   11  C9  UNL     1      16.900  12.099   5.418  1.00  0.00     0.178 A 
HETATM   12  N11 UNL     1      16.274  11.041   4.889  1.00  0.00    -0.172 N 
ATOM     13  H11 UNL     1      15.871  10.318   5.485  1.00  0.00     0.186 HD
ENDROOT
BRANCH   7  14
HETATM   14  S1  UNL     1      18.926  15.506   5.030  1.00  0.00    -0.048 SA
BRANCH  14  15
HETATM   15  C5  UNL     1      19.183  16.661   6.358  1.00  0.00     0.135 A 
HETATM   16  C6  UNL     1      20.037  16.361   7.431  1.00  0.00     0.150 A 
HETATM   17  N4  UNL     1      20.010  17.446   8.220  1.00  0.00    -0.278 N 
HETATM   18  N5  UNL     1      19.211  18.340   7.691  1.00  0.00    -0.234 N 
ATOM     19  H4  UNL     1      20.527  17.557   9.092  1.00  0.00     0.189 HD
HETATM   20  N6  UNL     1      18.690  17.884   6.549  1.00  0.00    -0.227 N 
ATOM     21  H5  UNL     1      19.015  19.255   8.095  1.00  0.00     0.209 HD
BRANCH  16  22
HETATM   22  C7  UNL     1      20.771  15.114   7.669  1.00  0.00     0.285 C 
HETATM   23  N3  UNL     1      22.099  14.898   7.238  1.00  0.00    -0.056 NA
HETATM   24  O2  UNL     1      20.198  14.160   8.296  1.00  0.00    -0.269 OA
ENDBRANCH  16  22
BRANCH  20  25
HETATM   25  C8  UNL     1      17.779  18.601   5.740  1.00  0.00     0.232 C 
BRANCH  25  26
HETATM   26  N7  UNL     1      17.010  19.494   6.269  1.00  0.00    -0.263 N 
ATOM     27  H7  UNL     1      17.099  20.463   5.963  1.00  0.00     0.195 HD
BRANCH  26  28
HETATM   28  O3  UNL     1      16.077  19.186   7.229  1.00  0.00    -0.289 OA
ATOM     29  H3  UNL     1      15.584  19.854   7.693  1.00  0.00     0.244 HD
ENDBRANCH  26  28
ENDBRANCH  25  26
ENDBRANCH  20  25
ENDBRANCH  14  15
ENDBRANCH   7  14
BRANCH  10  30
HETATM   30  N10 UNL     1      16.677  11.656   7.803  1.00  0.00    -0.322 N 
ATOM     31 2H10 UNL     1      16.551  12.028   8.745  1.00  0.00     0.179 HD
ATOM     32 1H10 UNL     1      16.442  10.664   7.809  1.00  0.00     0.179 HD
ENDBRANCH  10  30
BRANCH   1  33
HETATM   33  N1  UNL     1      15.597   9.955   3.011  1.00  0.00    -0.234 N 
ATOM     34  H12 UNL     1      14.806  10.112   2.387  1.00  0.00     0.174 HD
ATOM     35  H11 UNL     1      15.937   9.017   3.223  1.00  0.00     0.174 HD
ENDBRANCH   1  33
TORSDOF 8
ENDMDL
MODEL 4
REMARK VINA RESULT: -8.683259913      3.616      5.518
REMARK  8 active torsions:
REMARK  status: ('A' for Active; 'I' for Inactive)
REMARK    1  A    between atoms: N1_1  and  C1_4 
REMARK    2  A    between atoms: C4_10  and  S1_11 
REMARK    3  A    between atoms: S1_11  and  C5_12 
REMARK    4  A    between atoms: C6_13  and  C7_14 
REMARK    5  A    between atoms: N6_21  and  C8_22 
REMARK    6  A    between atoms: C8_22  and  N7_23 
REMARK    7  A    between atoms: N7_23  and  O3_25 
REMARK    8  A    between atoms: N9_29  and  N10_30 
ROOT
HETATM    1  C1  UNL     1      17.101  12.281   3.975  1.00  0.00     0.680 A 
HETATM    2  N2  UNL     1      16.878  13.613   3.902  1.00  0.00    -0.155 N 
ATOM      3  H2  UNL     1      16.480  14.025   3.058  1.00  0.00     0.187 HD
HETATM    4  C2  UNL     1      17.186  14.380   4.945  1.00  0.00     0.276 A 
HETATM    5  O1  UNL     1      16.980  15.606   4.889  1.00  0.00    -0.267 OA
HETATM    6  C3  UNL     1      17.728  13.882   6.115  1.00  0.00     0.116 A 
HETATM    7  C4  UNL     1      18.126  14.387   7.328  1.00  0.00     0.112 A 
HETATM    8  N8  UNL     1      18.547  13.302   8.023  1.00  0.00    -0.270 N 
ATOM      9  H8  UNL     1      18.908  13.341   8.977  1.00  0.00     0.190 HD
HETATM   10  N9  UNL     1      18.437  12.196   7.326  1.00  0.00    -0.184 N 
HETATM   11  C9  UNL     1      17.927  12.498   6.112  1.00  0.00     0.178 A 
HETATM   12  N11 UNL     1      17.624  11.710   5.073  1.00  0.00    -0.172 N 
ATOM     13  H11 UNL     1      17.785  10.703   5.114  1.00  0.00     0.186 HD
ENDROOT
BRANCH   7  14
HETATM   14  S1  UNL     1      18.152  16.091   7.815  1.00  0.00    -0.048 SA
BRANCH  14  15
HETATM   15  C5  UNL     1      19.240  17.109   6.843  1.00  0.00     0.135 A 
HETATM   16  C6  UNL     1      20.617  16.844   6.770  1.00  0.00     0.150 A 
HETATM   17  N4  UNL     1      21.115  17.780   5.948  1.00  0.00    -0.278 N 
HETATM   18  N5  UNL     1      20.142  18.559   5.546  1.00  0.00    -0.234 N 
ATOM     19  H4  UNL     1      22.095  17.871   5.680  1.00  0.00     0.189 HD
HETATM   20  N6  UNL     1      18.980  18.170   6.080  1.00  0.00    -0.227 N 
ATOM     21  H5  UNL     1      20.254  19.351   4.913  1.00  0.00     0.209 HD
BRANCH  16  22
HETATM   22  C7  UNL     1      21.365  15.798   7.475  1.00  0.00     0.285 C 
HETATM   23  N3  UNL     1      21.439  14.460   7.029  1.00  0.00    -0.056 NA
HETATM   24  O2  UNL     1      21.988  16.091   8.551  1.00  0.00    -0.269 OA
ENDBRANCH  16  22
BRANCH  20  25
HETATM   25  C8  UNL     1      17.740  18.810   5.856  1.00  0.00     0.232 C 
BRANCH  25  26
HETATM   26  N7  UNL     1      17.218  19.548   6.778  1.00  0.00    -0.263 N 
ATOM     27  H7  UNL     1      17.781  20.292   7.190  1.00  0.00     0.195 HD
BRANCH  26  28
HETATM   28  O3  UNL     1      15.931  19.367   7.225  1.00  0.00    -0.289 OA
ATOM     29  H3  UNL     1      15.404  20.082   7.562  1.00  0.00     0.244 HD
ENDBRANCH  26  28
ENDBRANCH  25  26
ENDBRANCH  20  25
ENDBRANCH  14  15
ENDBRANCH   7  14
BRANCH  10  30
HETATM   30  N10 UNL     1      18.777  10.879   7.722  1.00  0.00    -0.322 N 
ATOM     31 2H10 UNL     1      19.598  10.383   7.372  1.00  0.00     0.179 HD
ATOM     32 1H10 UNL     1      18.282  10.272   8.374  1.00  0.00     0.179 HD
ENDBRANCH  10  30
BRANCH   1  33
HETATM   33  N1  UNL     1      16.800  11.554   2.961  1.00  0.00    -0.234 N 
ATOM     34  H12 UNL     1      15.859  11.172   2.874  1.00  0.00     0.174 HD
ATOM     35  H11 UNL     1      17.520  11.374   2.260  1.00  0.00     0.174 HD
ENDBRANCH   1  33
TORSDOF 8
ENDMDL
MODEL 5
REMARK VINA RESULT: -8.631863314      3.455      5.192
REMARK  8 active torsions:
REMARK  status: ('A' for Active; 'I' for Inactive)
REMARK    1  A    between atoms: N1_1  and  C1_4 
REMARK    2  A    between atoms: C4_10  and  S1_11 
REMARK    3  A    between atoms: S1_11  and  C5_12 
REMARK    4  A    between atoms: C6_13  and  C7_14 
REMARK    5  A    between atoms: N6_21  and  C8_22 
REMARK    6  A    between atoms: C8_22  and  N7_23 
REMARK    7  A    between atoms: N7_23  and  O3_25 
REMARK    8  A    between atoms: N9_29  and  N10_30 
ROOT
HETATM    1  C1  UNL     1      16.988  11.467   6.287  1.00  0.00     0.680 A 
HETATM    2  N2  UNL     1      16.750  12.276   5.229  1.00  0.00    -0.155 N 
ATOM      3  H2  UNL     1      16.145  11.967   4.468  1.00  0.00     0.187 HD
HETATM    4  C2  UNL     1      17.317  13.480   5.193  1.00  0.00     0.276 A 
HETATM    5  O1  UNL     1      17.100  14.232   4.226  1.00  0.00    -0.267 OA
HETATM    6  C3  UNL     1      18.146  13.953   6.192  1.00  0.00     0.116 A 
HETATM    7  C4  UNL     1      18.845  15.107   6.448  1.00  0.00     0.112 A 
HETATM    8  N8  UNL     1      19.436  14.884   7.648  1.00  0.00    -0.270 N 
ATOM      9  H8  UNL     1      20.032  15.561   8.124  1.00  0.00     0.190 HD
HETATM   10  N9  UNL     1      19.150  13.696   8.125  1.00  0.00    -0.184 N 
HETATM   11  C9  UNL     1      18.341  13.061   7.249  1.00  0.00     0.178 A 
HETATM   12  N11 UNL     1      17.780  11.846   7.304  1.00  0.00    -0.172 N 
ATOM     13  H11 UNL     1      17.948  11.226   8.097  1.00  0.00     0.186 HD
ENDROOT
BRANCH   7  14
HETATM   14  S1  UNL     1      18.993  16.520   5.388  1.00  0.00    -0.048 SA
BRANCH  14  15
HETATM   15  C5  UNL     1      19.275  18.051   6.249  1.00  0.00     0.135 A 
HETATM   16  C6  UNL     1      20.572  18.472   6.583  1.00  0.00     0.150 A 
HETATM   17  N4  UNL     1      20.414  19.655   7.194  1.00  0.00    -0.278 N 
HETATM   18  N5  UNL     1      19.138  19.946   7.241  1.00  0.00    -0.234 N 
ATOM     19  H4  UNL     1      21.167  20.236   7.564  1.00  0.00     0.189 HD
HETATM   20  N6  UNL     1      18.416  18.978   6.668  1.00  0.00    -0.227 N 
ATOM     21  H5  UNL     1      18.749  20.793   7.656  1.00  0.00     0.209 HD
BRANCH  16  22
HETATM   22  C7  UNL     1      21.832  17.756   6.355  1.00  0.00     0.285 C 
HETATM   23  N3  UNL     1      22.768  18.125   5.363  1.00  0.00    -0.056 NA
HETATM   24  O2  UNL     1      22.116  16.744   7.080  1.00  0.00    -0.269 OA
ENDBRANCH  16  22
BRANCH  20  25
HETATM   25  C8  UNL     1      17.006  18.982   6.567  1.00  0.00     0.232 C 
BRANCH  25  26
HETATM   26  N7  UNL     1      16.315  19.870   7.200  1.00  0.00    -0.263 N 
ATOM     27  H7  UNL     1      15.763  19.581   8.007  1.00  0.00     0.195 HD
BRANCH  26  28
HETATM   28  O3  UNL     1      16.296  21.192   6.825  1.00  0.00    -0.289 OA
ATOM     29  H3  UNL     1      16.060  21.889   7.427  1.00  0.00     0.244 HD
ENDBRANCH  26  28
ENDBRANCH  25  26
ENDBRANCH  20  25
ENDBRANCH  14  15
ENDBRANCH   7  14
BRANCH  10  30
HETATM   30  N10 UNL     1      19.585  13.119   9.343  1.00  0.00    -0.322 N 
ATOM     31 2H10 UNL     1      20.535  12.780   9.495  1.00  0.00     0.179 HD
ATOM     32 1H10 UNL     1      19.044  12.967  10.194  1.00  0.00     0.179 HD
ENDBRANCH  10  30
BRANCH   1  33
HETATM   33  N1  UNL     1      16.435  10.309   6.308  1.00  0.00    -0.234 N 
ATOM     34  H12 UNL     1      15.782  10.047   5.570  1.00  0.00     0.174 HD
ATOM     35  H11 UNL     1      16.666   9.674   7.073  1.00  0.00     0.174 HD
ENDBRANCH   1  33
TORSDOF 8
ENDMDL
