MODEL 1
REMARK VINA RESULT: -9.957110572      0.000      0.000
REMARK  7 active torsions:
REMARK  status: ('A' for Active; 'I' for Inactive)
REMARK    1  A    between atoms: C2_2  and  O1_3 
REMARK    2  A    between atoms: O1_3  and  C3_4 
REMARK    3  A    between atoms: C3_4  and  C4_6 
REMARK    4  A    between atoms: C7_15  and  C8_16 
REMARK    5  A    between atoms: C9_21  and  C10_22 
REMARK    6  A    between atoms: C10_22  and  C11_26 
REMARK    7  A    between atoms: C12_32  and  N8_33 
ROOT
HETATM    1  C8  UNL     1      18.714  14.323   7.549  1.00  0.00     0.183 A 
HETATM    2  N3  UNL     1      19.495  13.985   8.546  1.00  0.00    -0.277 N 
ATOM      3  H3  UNL     1      20.108  14.627   9.049  1.00  0.00     0.189 HD
HETATM    4  N4  UNL     1      19.378  12.708   8.805  1.00  0.00    -0.276 N 
ATOM      5  H4  UNL     1      19.878  12.199   9.534  1.00  0.00     0.189 HD
HETATM    6  C9  UNL     1      18.498  12.185   7.958  1.00  0.00     0.193 A 
HETATM    7  O6  UNL     1      18.114  13.216   7.203  1.00  0.00    -0.271 OA
ENDROOT
BRANCH   1   8
HETATM    8  C7  UNL     1      18.453  15.565   6.868  1.00  0.00     0.118 A 
HETATM    9  C4  UNL     1      18.332  15.711   5.524  1.00  0.00     0.132 A 
HETATM   10  N1  UNL     1      18.085  16.990   5.034  1.00  0.00    -0.302 N 
HETATM   11  C5  UNL     1      17.966  18.048   5.812  1.00  0.00     0.327 A 
ATOM     12  H1  UNL     1      17.991  17.114   4.027  1.00  0.00     0.171 HD
HETATM   13  O3  UNL     1      17.743  19.192   5.347  1.00  0.00    -0.247 OA
HETATM   14  N2  UNL     1      18.081  17.943   7.155  1.00  0.00    -0.275 N 
HETATM   15  C6  UNL     1      18.319  16.727   7.654  1.00  0.00     0.266 A 
ATOM     16  H2  UNL     1      17.990  18.758   7.762  1.00  0.00     0.173 HD
HETATM   17  O4  UNL     1      18.423  16.648   8.906  1.00  0.00    -0.267 OA
BRANCH   9  18
HETATM   18  C3  UNL     1      18.439  14.652   4.551  1.00  0.00     0.311 C 
HETATM   19  O2  UNL     1      19.447  14.253   4.011  1.00  0.00    -0.258 OA
BRANCH  18  20
HETATM   20  O1  UNL     1      17.274  13.966   4.137  1.00  0.00    -0.317 OA
BRANCH  20  21
HETATM   21  C2  UNL     1      17.352  12.990   3.116  1.00  0.00     0.175 C 
HETATM   22  C1  UNL     1      16.062  12.362   2.739  1.00  0.00     0.034 C 
ENDBRANCH  20  21
ENDBRANCH  18  20
ENDBRANCH   9  18
ENDBRANCH   1   8
BRANCH   6  23
HETATM   23  C10 UNL     1      18.030  10.835   7.836  1.00  0.00     0.112 C 
HETATM   24  N5  UNL     1      18.866   9.901   8.275  1.00  0.00    -0.394 N 
ATOM     25  H52 UNL     1      19.753  10.236   8.653  1.00  0.00     0.156 HD
ATOM     26  H51 UNL     1      18.533   8.941   8.188  1.00  0.00     0.156 HD
BRANCH  23  27
HETATM   27  C11 UNL     1      16.789  10.368   7.308  1.00  0.00     0.132 A 
HETATM   28  N6  UNL     1      16.233  10.930   6.180  1.00  0.00    -0.236 N 
HETATM   29  O5  UNL     1      15.121  10.329   5.916  1.00  0.00    -0.155 OA
ATOM     30  H6  UNL     1      16.636  11.697   5.640  1.00  0.00     0.197 HD
HETATM   31  N7  UNL     1      14.856   9.412   6.747  1.00  0.00    -0.224 N 
HETATM   32  C12 UNL     1      15.889   9.401   7.650  1.00  0.00     0.152 A 
ATOM     33  H7  UNL     1      14.038   8.803   6.747  1.00  0.00     0.198 HD
BRANCH  32  34
HETATM   34  N8  UNL     1      15.982   8.606   8.649  1.00  0.00    -0.382 N 
ATOM     35  H82 UNL     1      16.110   7.597   8.582  1.00  0.00     0.157 HD
ATOM     36  H81 UNL     1      15.941   8.872   9.633  1.00  0.00     0.157 HD
ENDBRANCH  32  34
ENDBRANCH  23  27
ENDBRANCH   6  23
TORSDOF 7
ENDMDL
MODEL 2
REMARK VINA RESULT: -9.728568007      2.309      7.019
REMARK  7 active torsions:
REMARK  status: ('A' for Active; 'I' for Inactive)
REMARK    1  A    between atoms: C2_2  and  O1_3 
REMARK    2  A    between atoms: O1_3  and  C3_4 
REMARK    3  A    between atoms: C3_4  and  C4_6 
REMARK    4  A    between atoms: C7_15  and  C8_16 
REMARK    5  A    between atoms: C9_21  and  C10_22 
REMARK    6  A    between atoms: C10_22  and  C11_26 
REMARK    7  A    between atoms: C12_32  and  N8_33 
ROOT
HETATM    1  C8  UNL     1      18.010  13.833   3.975  1.00  0.00     0.183 A 
HETATM    2  N3  UNL     1      18.882  14.177   3.058  1.00  0.00    -0.277 N 
ATOM      3  H3  UNL     1      19.190  13.577   2.293  1.00  0.00     0.189 HD
HETATM    4  N4  UNL     1      19.300  15.400   3.263  1.00  0.00    -0.276 N 
ATOM      5  H4  UNL     1      19.979  15.902   2.690  1.00  0.00     0.189 HD
HETATM    6  C9  UNL     1      18.693  15.878   4.344  1.00  0.00     0.193 A 
HETATM    7  O6  UNL     1      17.907  14.880   4.749  1.00  0.00    -0.271 OA
ENDROOT
BRANCH   1   8
HETATM    8  C7  UNL     1      17.251  12.634   4.225  1.00  0.00     0.118 A 
HETATM    9  C4  UNL     1      17.399  11.825   5.305  1.00  0.00     0.132 A 
HETATM   10  N1  UNL     1      16.583  10.701   5.383  1.00  0.00    -0.302 N 
HETATM   11  C5  UNL     1      15.688  10.394   4.463  1.00  0.00     0.327 A 
ATOM     12  H1  UNL     1      16.682  10.084   6.188  1.00  0.00     0.171 HD
HETATM   13  O3  UNL     1      14.964   9.374   4.556  1.00  0.00    -0.247 OA
HETATM   14  N2  UNL     1      15.513  11.175   3.374  1.00  0.00    -0.275 N 
HETATM   15  C6  UNL     1      16.282  12.263   3.271  1.00  0.00     0.266 A 
ATOM     16  H2  UNL     1      14.822  10.944   2.660  1.00  0.00     0.173 HD
HETATM   17  O4  UNL     1      16.105  12.977   2.251  1.00  0.00    -0.267 OA
BRANCH   9  18
HETATM   18  C3  UNL     1      18.333  12.027   6.385  1.00  0.00     0.311 C 
HETATM   19  O2  UNL     1      19.277  11.327   6.677  1.00  0.00    -0.258 OA
BRANCH  18  20
HETATM   20  O1  UNL     1      18.181  13.146   7.236  1.00  0.00    -0.317 OA
BRANCH  20  21
HETATM   21  C2  UNL     1      19.258  13.565   8.052  1.00  0.00     0.175 C 
HETATM   22  C1  UNL     1      20.343  14.291   7.346  1.00  0.00     0.034 C 
ENDBRANCH  20  21
ENDBRANCH  18  20
ENDBRANCH   9  18
ENDBRANCH   1   8
BRANCH   6  23
HETATM   23  C10 UNL     1      18.813  17.161   4.973  1.00  0.00     0.112 C 
HETATM   24  N5  UNL     1      18.511  18.202   4.205  1.00  0.00    -0.394 N 
ATOM     25  H52 UNL     1      18.225  17.986   3.250  1.00  0.00     0.156 HD
ATOM     26  H51 UNL     1      18.596  19.114   4.653  1.00  0.00     0.156 HD
BRANCH  23  27
HETATM   27  C11 UNL     1      19.212  17.463   6.309  1.00  0.00     0.132 A 
HETATM   28  N6  UNL     1      18.330  17.358   7.361  1.00  0.00    -0.236 N 
HETATM   29  O5  UNL     1      18.937  17.685   8.454  1.00  0.00    -0.155 OA
ATOM     30  H6  UNL     1      17.354  17.069   7.290  1.00  0.00     0.197 HD
HETATM   31  N7  UNL     1      20.147  18.004   8.259  1.00  0.00    -0.224 N 
HETATM   32  C12 UNL     1      20.365  17.877   6.909  1.00  0.00     0.152 A 
ATOM     33  H7  UNL     1      20.824  18.297   8.963  1.00  0.00     0.198 HD
BRANCH  32  34
HETATM   34  N8  UNL     1      21.477  18.113   6.322  1.00  0.00    -0.382 N 
ATOM     35  H82 UNL     1      22.396  18.028   6.755  1.00  0.00     0.157 HD
ATOM     36  H81 UNL     1      21.592  18.412   5.353  1.00  0.00     0.157 HD
ENDBRANCH  32  34
ENDBRANCH  23  27
ENDBRANCH   6  23
TORSDOF 7
ENDMDL
MODEL 3
REMARK VINA RESULT: -9.709966165      2.157      6.937
REMARK  7 active torsions:
REMARK  status: ('A' for Active; 'I' for Inactive)
REMARK    1  A    between atoms: C2_2  and  O1_3 
REMARK    2  A    between atoms: O1_3  and  C3_4 
REMARK    3  A    between atoms: C3_4  and  C4_6 
REMARK    4  A    between atoms: C7_15  and  C8_16 
REMARK    5  A    between atoms: C9_21  and  C10_22 
REMARK    6  A    between atoms: C10_22  and  C11_26 
REMARK    7  A    between atoms: C12_32  and  N8_33 
ROOT
HETATM    1  C8  UNL     1      18.065  13.880   3.851  1.00  0.00     0.183 A 
HETATM    2  N3  UNL     1      18.877  14.252   2.890  1.00  0.00    -0.277 N 
ATOM      3  H3  UNL     1      19.119  13.682   2.080  1.00  0.00     0.189 HD
HETATM    4  N4  UNL     1      19.332  15.457   3.120  1.00  0.00    -0.276 N 
ATOM      5  H4  UNL     1      19.979  15.973   2.524  1.00  0.00     0.189 HD
HETATM    6  C9  UNL     1      18.811  15.895   4.261  1.00  0.00     0.193 A 
HETATM    7  O6  UNL     1      18.036  14.891   4.676  1.00  0.00    -0.271 OA
ENDROOT
BRANCH   1   8
HETATM    8  C7  UNL     1      17.303  12.682   4.099  1.00  0.00     0.118 A 
HETATM    9  C4  UNL     1      17.420  11.893   5.197  1.00  0.00     0.132 A 
HETATM   10  N1  UNL     1      16.607  10.767   5.271  1.00  0.00    -0.302 N 
HETATM   11  C5  UNL     1      15.740  10.442   4.331  1.00  0.00     0.327 A 
ATOM     12  H1  UNL     1      16.683  10.165   6.091  1.00  0.00     0.171 HD
HETATM   13  O3  UNL     1      15.016   9.421   4.421  1.00  0.00    -0.247 OA
HETATM   14  N2  UNL     1      15.594  11.202   3.224  1.00  0.00    -0.275 N 
HETATM   15  C6  UNL     1      16.363  12.291   3.125  1.00  0.00     0.266 A 
ATOM     16  H2  UNL     1      14.925  10.956   2.494  1.00  0.00     0.173 HD
HETATM   17  O4  UNL     1      16.214  12.986   2.086  1.00  0.00    -0.267 OA
BRANCH   9  18
HETATM   18  C3  UNL     1      18.321  12.118   6.301  1.00  0.00     0.311 C 
HETATM   19  O2  UNL     1      19.469  12.501   6.242  1.00  0.00    -0.258 OA
BRANCH  18  20
HETATM   20  O1  UNL     1      17.877  11.881   7.622  1.00  0.00    -0.317 OA
BRANCH  20  21
HETATM   21  C2  UNL     1      18.361  10.763   8.341  1.00  0.00     0.175 C 
HETATM   22  C1  UNL     1      17.480   9.570   8.325  1.00  0.00     0.034 C 
ENDBRANCH  20  21
ENDBRANCH  18  20
ENDBRANCH   9  18
ENDBRANCH   1   8
BRANCH   6  23
HETATM   23  C10 UNL     1      18.999  17.144   4.937  1.00  0.00     0.112 C 
HETATM   24  N5  UNL     1      18.506  18.209   4.313  1.00  0.00    -0.394 N 
ATOM     25  H52 UNL     1      18.046  18.031   3.420  1.00  0.00     0.156 HD
ATOM     26  H51 UNL     1      18.640  19.098   4.794  1.00  0.00     0.156 HD
BRANCH  23  27
HETATM   27  C11 UNL     1      19.642  17.393   6.186  1.00  0.00     0.132 A 
HETATM   28  N6  UNL     1      20.015  18.665   6.559  1.00  0.00    -0.236 N 
HETATM   29  O5  UNL     1      20.572  18.615   7.724  1.00  0.00    -0.155 OA
ATOM     30  H6  UNL     1      19.874  19.511   6.006  1.00  0.00     0.197 HD
HETATM   31  N7  UNL     1      20.620  17.438   8.189  1.00  0.00    -0.224 N 
HETATM   32  C12 UNL     1      20.041  16.629   7.244  1.00  0.00     0.152 A 
ATOM     33  H7  UNL     1      21.012  17.150   9.085  1.00  0.00     0.198 HD
BRANCH  32  34
HETATM   34  N8  UNL     1      19.902  15.361   7.351  1.00  0.00    -0.382 N 
ATOM     35  H82 UNL     1      19.811  14.716   6.567  1.00  0.00     0.157 HD
ATOM     36  H81 UNL     1      19.866  14.833   8.223  1.00  0.00     0.157 HD
ENDBRANCH  32  34
ENDBRANCH  23  27
ENDBRANCH   6  23
TORSDOF 7
ENDMDL
MODEL 4
REMARK VINA RESULT: -9.696286704      2.123      4.090
REMARK  7 active torsions:
REMARK  status: ('A' for Active; 'I' for Inactive)
REMARK    1  A    between atoms: C2_2  and  O1_3 
REMARK    2  A    between atoms: O1_3  and  C3_4 
REMARK    3  A    between atoms: C3_4  and  C4_6 
REMARK    4  A    between atoms: C7_15  and  C8_16 
REMARK    5  A    between atoms: C9_21  and  C10_22 
REMARK    6  A    between atoms: C10_22  and  C11_26 
REMARK    7  A    between atoms: C12_32  and  N8_33 
ROOT
HETATM    1  C8  UNL     1      18.777  15.298   4.685  1.00  0.00     0.183 A 
HETATM    2  N3  UNL     1      19.282  15.138   3.485  1.00  0.00    -0.277 N 
ATOM      3  H3  UNL     1      20.103  15.626   3.128  1.00  0.00     0.189 HD
HETATM    4  N4  UNL     1      18.581  14.263   2.810  1.00  0.00    -0.276 N 
ATOM      5  H4  UNL     1      18.767  13.961   1.853  1.00  0.00     0.189 HD
HETATM    6  C9  UNL     1      17.587  13.833   3.579  1.00  0.00     0.193 A 
HETATM    7  O6  UNL     1      17.747  14.497   4.725  1.00  0.00    -0.271 OA
ENDROOT
BRANCH   1   8
HETATM    8  C7  UNL     1      19.140  16.117   5.813  1.00  0.00     0.118 A 
HETATM    9  C4  UNL     1      19.771  15.674   6.930  1.00  0.00     0.132 A 
HETATM   10  N1  UNL     1      20.041  16.605   7.929  1.00  0.00    -0.302 N 
HETATM   11  C5  UNL     1      19.713  17.879   7.834  1.00  0.00     0.327 A 
ATOM     12  H1  UNL     1      20.515  16.287   8.774  1.00  0.00     0.171 HD
HETATM   13  O3  UNL     1      19.967  18.700   8.748  1.00  0.00    -0.247 OA
HETATM   14  N2  UNL     1      19.084  18.357   6.737  1.00  0.00    -0.275 N 
HETATM   15  C6  UNL     1      18.811  17.486   5.761  1.00  0.00     0.266 A 
ATOM     16  H2  UNL     1      18.827  19.342   6.658  1.00  0.00     0.173 HD
HETATM   17  O4  UNL     1      18.225  17.949   4.748  1.00  0.00    -0.267 OA
BRANCH   9  18
HETATM   18  C3  UNL     1      20.188  14.316   7.178  1.00  0.00     0.311 C 
HETATM   19  O2  UNL     1      21.081  13.712   6.626  1.00  0.00    -0.258 OA
BRANCH  18  20
HETATM   20  O1  UNL     1      19.518  13.550   8.159  1.00  0.00    -0.317 OA
BRANCH  20  21
HETATM   21  C2  UNL     1      18.341  12.841   7.822  1.00  0.00     0.175 C 
HETATM   22  C1  UNL     1      18.314  11.420   8.246  1.00  0.00     0.034 C 
ENDBRANCH  20  21
ENDBRANCH  18  20
ENDBRANCH   9  18
ENDBRANCH   1   8
BRANCH   6  23
HETATM   23  C10 UNL     1      16.555  12.879   3.299  1.00  0.00     0.112 C 
HETATM   24  N5  UNL     1      15.761  13.183   2.277  1.00  0.00    -0.394 N 
ATOM     25  H52 UNL     1      15.966  14.061   1.797  1.00  0.00     0.156 HD
ATOM     26  H51 UNL     1      15.026  12.505   2.078  1.00  0.00     0.156 HD
BRANCH  23  27
HETATM   27  C11 UNL     1      16.269  11.653   3.970  1.00  0.00     0.132 A 
HETATM   28  N6  UNL     1      16.055  11.614   5.330  1.00  0.00    -0.236 N 
HETATM   29  O5  UNL     1      15.819  10.394   5.683  1.00  0.00    -0.155 OA
ATOM     30  H6  UNL     1      16.077  12.418   5.957  1.00  0.00     0.197 HD
HETATM   31  N7  UNL     1      15.850   9.591   4.704  1.00  0.00    -0.224 N 
HETATM   32  C12 UNL     1      16.134  10.348   3.595  1.00  0.00     0.152 A 
ATOM     33  H7  UNL     1      15.696   8.583   4.734  1.00  0.00     0.198 HD
BRANCH  32  34
HETATM   34  N8  UNL     1      16.249   9.891   2.406  1.00  0.00    -0.382 N 
ATOM     35  H82 UNL     1      15.633  10.126   1.628  1.00  0.00     0.157 HD
ATOM     36  H81 UNL     1      16.964   9.240   2.080  1.00  0.00     0.157 HD
ENDBRANCH  32  34
ENDBRANCH  23  27
ENDBRANCH   6  23
TORSDOF 7
ENDMDL
MODEL 5
REMARK VINA RESULT: -9.587108122      4.088      6.940
REMARK  7 active torsions:
REMARK  status: ('A' for Active; 'I' for Inactive)
REMARK    1  A    between atoms: C2_2  and  O1_3 
REMARK    2  A    between atoms: O1_3  and  C3_4 
REMARK    3  A    between atoms: C3_4  and  C4_6 
REMARK    4  A    between atoms: C7_15  and  C8_16 
REMARK    5  A    between atoms: C9_21  and  C10_22 
REMARK    6  A    between atoms: C10_22  and  C11_26 
REMARK    7  A    between atoms: C12_32  and  N8_33 
ROOT
HETATM    1  C8  UNL     1      18.899  19.371   8.593  1.00  0.00     0.183 A 
HETATM    2  N3  UNL     1      19.709  19.319   7.563  1.00  0.00    -0.277 N 
ATOM      3  H3  UNL     1      20.293  20.092   7.242  1.00  0.00     0.189 HD
HETATM    4  N4  UNL     1      19.664  18.136   7.007  1.00  0.00    -0.276 N 
ATOM      5  H4  UNL     1      20.200  17.840   6.191  1.00  0.00     0.189 HD
HETATM    6  C9  UNL     1      18.801  17.385   7.683  1.00  0.00     0.193 A 
HETATM    7  O6  UNL     1      18.355  18.186   8.651  1.00  0.00    -0.271 OA
ENDROOT
BRANCH   1   8
HETATM    8  C7  UNL     1      18.563  20.402   9.542  1.00  0.00     0.118 A 
HETATM    9  C4  UNL     1      17.446  21.172   9.498  1.00  0.00     0.132 A 
HETATM   10  N1  UNL     1      17.283  22.128  10.496  1.00  0.00    -0.302 N 
HETATM   11  C5  UNL     1      18.158  22.312  11.466  1.00  0.00     0.327 A 
ATOM     12  H1  UNL     1      16.449  22.713  10.477  1.00  0.00     0.171 HD
HETATM   13  O3  UNL     1      17.989  23.181  12.356  1.00  0.00    -0.247 OA
HETATM   14  N2  UNL     1      19.282  21.566  11.543  1.00  0.00    -0.275 N 
HETATM   15  C6  UNL     1      19.466  20.639  10.597  1.00  0.00     0.266 A 
ATOM     16  H2  UNL     1      19.962  21.703  12.291  1.00  0.00     0.173 HD
HETATM   17  O4  UNL     1      20.518  19.954  10.685  1.00  0.00    -0.267 OA
BRANCH   9  18
HETATM   18  C3  UNL     1      16.406  21.089   8.502  1.00  0.00     0.311 C 
HETATM   19  O2  UNL     1      15.694  20.138   8.265  1.00  0.00    -0.258 OA
BRANCH  18  20
HETATM   20  O1  UNL     1      16.141  22.206   7.678  1.00  0.00    -0.317 OA
BRANCH  20  21
HETATM   21  C2  UNL     1      15.145  23.139   8.049  1.00  0.00     0.175 C 
HETATM   22  C1  UNL     1      15.601  24.548   8.141  1.00  0.00     0.034 C 
ENDBRANCH  20  21
ENDBRANCH  18  20
ENDBRANCH   9  18
ENDBRANCH   1   8
BRANCH   6  23
HETATM   23  C10 UNL     1      18.403  16.024   7.469  1.00  0.00     0.112 C 
HETATM   24  N5  UNL     1      17.947  15.389   8.543  1.00  0.00    -0.394 N 
ATOM     25  H52 UNL     1      17.926  15.931   9.408  1.00  0.00     0.156 HD
ATOM     26  H51 UNL     1      17.664  14.421   8.391  1.00  0.00     0.156 HD
BRANCH  23  27
HETATM   27  C11 UNL     1      18.433  15.267   6.259  1.00  0.00     0.132 A 
HETATM   28  N6  UNL     1      17.610  15.577   5.200  1.00  0.00    -0.236 N 
HETATM   29  O5  UNL     1      17.833  14.746   4.237  1.00  0.00    -0.155 OA
ATOM     30  H6  UNL     1      16.933  16.340   5.179  1.00  0.00     0.197 HD
HETATM   31  N7  UNL     1      18.726  13.897   4.527  1.00  0.00    -0.224 N 
HETATM   32  C12 UNL     1      19.135  14.190   5.804  1.00  0.00     0.152 A 
ATOM     33  H7  UNL     1      19.072  13.145   3.931  1.00  0.00     0.198 HD
BRANCH  32  34
HETATM   34  N8  UNL     1      20.033  13.548   6.451  1.00  0.00    -0.382 N 
ATOM     35  H82 UNL     1      20.885  13.960   6.832  1.00  0.00     0.157 HD
ATOM     36  H81 UNL     1      20.018  12.552   6.671  1.00  0.00     0.157 HD
ENDBRANCH  32  34
ENDBRANCH  23  27
ENDBRANCH   6  23
TORSDOF 7
ENDMDL
