MODEL 1
REMARK VINA RESULT: -10.288732016      0.000      0.000
REMARK  7 active torsions:
REMARK  status: ('A' for Active; 'I' for Inactive)
REMARK    1  A    between atoms: N1_1  and  C1_4 
REMARK    2  A    between atoms: C2_7  and  N3_8 
REMARK       I    between atoms: N3_8  and  C3_10 
REMARK    3  A    between atoms: C3_10  and  C4_12 
REMARK    4  A    between atoms: C4_12  and  C5_13 
REMARK    5  A    between atoms: C5_13  and  C6_14 
REMARK    6  A    between atoms: C7_28  and  N11_29 
REMARK    7  A    between atoms: N12_31  and  C8_33 
ROOT
HETATM    1  C1  UNL     1      18.865  15.433   4.418  1.00  0.00     0.713 A 
HETATM    2  N2  UNL     1      18.247  14.313   4.790  1.00  0.00    -0.017 N 
ATOM      3  H2  UNL     1      17.994  13.537   4.177  1.00  0.00     0.203 HD
HETATM    4  C2  UNL     1      18.017  14.380   6.102  1.00  0.00     0.738 A 
HETATM    5  N8  UNL     1      18.494  15.547   6.545  1.00  0.00     0.016 N 
HETATM    6  N9  UNL     1      18.494  16.058   7.780  1.00  0.00    -0.204 N 
ATOM      7  H9  UNL     1      18.084  15.528   8.550  1.00  0.00     0.211 HD
HETATM    8  N10 UNL     1      19.024  17.244   8.005  1.00  0.00    -0.267 N 
ATOM      9  H10 UNL     1      19.020  17.629   8.950  1.00  0.00     0.190 HD
HETATM   10  C7  UNL     1      19.561  17.941   7.015  1.00  0.00     0.154 A 
HETATM   11  C9  UNL     1      19.560  17.415   5.747  1.00  0.00     0.189 A 
HETATM   12  N16 UNL     1      19.009  16.185   5.520  1.00  0.00    -0.056 N 
ENDROOT
BRANCH   4  13
HETATM   13  N3  UNL     1      17.428  13.468   6.834  1.00  0.00    -0.156 N 
HETATM   14  C3  UNL     1      17.927  12.143   6.911  1.00  0.00     0.236 C 
HETATM   15  O1  UNL     1      18.204  11.466   5.892  1.00  0.00    -0.273 OA
ATOM     16  H3  UNL     1      16.591  13.717   7.361  1.00  0.00     0.187 HD
BRANCH  14  17
HETATM   17  C4  UNL     1      18.121  11.558   8.254  1.00  0.00     0.111 C 
BRANCH  17  18
HETATM   18  C5  UNL     1      18.217  10.062   8.119  1.00  0.00     0.088 C 
BRANCH  18  19
HETATM   19  C6  UNL     1      16.855   9.433   8.080  1.00  0.00     0.113 A 
HETATM   20  N4  UNL     1      15.979   9.447   7.064  1.00  0.00    -0.272 N 
HETATM   21  N5  UNL     1      14.921   8.775   7.465  1.00  0.00    -0.227 N 
ATOM     22  H4  UNL     1      16.109   9.893   6.156  1.00  0.00     0.190 HD
HETATM   23  N6  UNL     1      15.078   8.329   8.696  1.00  0.00    -0.227 N 
ATOM     24  H5  UNL     1      14.088   8.620   6.898  1.00  0.00     0.210 HD
HETATM   25  N7  UNL     1      16.275   8.739   9.071  1.00  0.00    -0.272 N 
ATOM     26  H6  UNL     1      14.413   7.782   9.244  1.00  0.00     0.210 HD
ATOM     27  H7  UNL     1      16.697   8.555   9.982  1.00  0.00     0.190 HD
ENDBRANCH  18  19
ENDBRANCH  17  18
ENDBRANCH  14  17
ENDBRANCH   4  13
BRANCH   1  28
HETATM   28  N1  UNL     1      19.279  15.805   3.253  1.00  0.00    -0.232 N 
ATOM     29  H12 UNL     1      18.693  15.779   2.419  1.00  0.00     0.174 HD
ATOM     30  H11 UNL     1      20.189  16.164   2.964  1.00  0.00     0.174 HD
ENDBRANCH   1  28
BRANCH  10  31
HETATM   31  N11 UNL     1      20.152  19.229   7.186  1.00  0.00    -0.269 N 
HETATM   32  N12 UNL     1      19.361  20.200   7.395  1.00  0.00    -0.128 N 
ATOM     33  H12 UNL     1      19.757  21.131   7.523  1.00  0.00     0.205 HD
ATOM     34  H11 UNL     1      21.162  19.363   7.141  1.00  0.00     0.189 HD
BRANCH  32  35
HETATM   35  C8  UNL     1      17.954  20.052   7.462  1.00  0.00     0.723 A 
HETATM   36  N13 UNL     1      16.974  19.689   6.623  1.00  0.00    -0.113 N 
HETATM   37  N14 UNL     1      16.052  19.853   7.560  1.00  0.00     0.007 NA
ATOM     38  H13 UNL     1      16.948  19.399   5.644  1.00  0.00     0.203 HD
HETATM   39  N15 UNL     1      17.025  20.216   8.401  1.00  0.00    -0.113 N 
ATOM     40  H15 UNL     1      17.047  20.505   9.379  1.00  0.00     0.203 HD
ENDBRANCH  32  35
ENDBRANCH  10  31
TORSDOF 7
ENDMDL
MODEL 2
REMARK VINA RESULT: -10.063222229      1.689      2.576
REMARK  7 active torsions:
REMARK  status: ('A' for Active; 'I' for Inactive)
REMARK    1  A    between atoms: N1_1  and  C1_4 
REMARK    2  A    between atoms: C2_7  and  N3_8 
REMARK       I    between atoms: N3_8  and  C3_10 
REMARK    3  A    between atoms: C3_10  and  C4_12 
REMARK    4  A    between atoms: C4_12  and  C5_13 
REMARK    5  A    between atoms: C5_13  and  C6_14 
REMARK    6  A    between atoms: C7_28  and  N11_29 
REMARK    7  A    between atoms: N12_31  and  C8_33 
ROOT
HETATM    1  C1  UNL     1      19.140  13.845   7.738  1.00  0.00     0.713 A 
HETATM    2  N2  UNL     1      18.191  12.926   7.568  1.00  0.00    -0.017 N 
ATOM      3  H2  UNL     1      18.054  12.093   8.141  1.00  0.00     0.203 HD
HETATM    4  C2  UNL     1      17.450  13.281   6.518  1.00  0.00     0.738 A 
HETATM    5  N8  UNL     1      17.942  14.426   6.035  1.00  0.00     0.016 N 
HETATM    6  N9  UNL     1      17.534  15.163   4.997  1.00  0.00    -0.204 N 
ATOM      7  H9  UNL     1      16.730  14.863   4.445  1.00  0.00     0.211 HD
HETATM    8  N10 UNL     1      18.170  16.276   4.685  1.00  0.00    -0.267 N 
ATOM      9  H10 UNL     1      17.855  16.832   3.891  1.00  0.00     0.190 HD
HETATM   10  C7  UNL     1      19.214  16.677   5.394  1.00  0.00     0.154 A 
HETATM   11  C9  UNL     1      19.631  15.919   6.461  1.00  0.00     0.189 A 
HETATM   12  N16 UNL     1      18.968  14.766   6.778  1.00  0.00    -0.056 N 
ENDROOT
BRANCH   4  13
HETATM   13  N3  UNL     1      16.420  12.630   6.037  1.00  0.00    -0.156 N 
HETATM   14  C3  UNL     1      16.552  11.733   4.947  1.00  0.00     0.236 C 
HETATM   15  O1  UNL     1      17.136  12.047   3.882  1.00  0.00    -0.273 OA
ATOM     16  H3  UNL     1      15.501  12.773   6.456  1.00  0.00     0.187 HD
BRANCH  14  17
HETATM   17  C4  UNL     1      15.976  10.380   5.096  1.00  0.00     0.111 C 
BRANCH  17  18
HETATM   18  C5  UNL     1      14.991  10.400   6.235  1.00  0.00     0.088 C 
BRANCH  18  19
HETATM   19  C6  UNL     1      15.511   9.631   7.414  1.00  0.00     0.113 A 
HETATM   20  N4  UNL     1      16.707   9.757   8.007  1.00  0.00    -0.272 N 
HETATM   21  N5  UNL     1      16.734   8.889   8.996  1.00  0.00    -0.227 N 
ATOM     22  H4  UNL     1      17.452  10.401   7.742  1.00  0.00     0.190 HD
HETATM   23  N6  UNL     1      15.607   8.209   9.065  1.00  0.00    -0.227 N 
ATOM     24  H5  UNL     1      17.525   8.759   9.627  1.00  0.00     0.210 HD
HETATM   25  N7  UNL     1      14.854   8.671   8.085  1.00  0.00    -0.272 N 
ATOM     26  H6  UNL     1      15.367   7.478   9.736  1.00  0.00     0.210 HD
ATOM     27  H7  UNL     1      13.911   8.347   7.868  1.00  0.00     0.190 HD
ENDBRANCH  18  19
ENDBRANCH  17  18
ENDBRANCH  14  17
ENDBRANCH   4  13
BRANCH   1  28
HETATM   28  N1  UNL     1      20.077  13.915   8.623  1.00  0.00    -0.232 N 
ATOM     29  H12 UNL     1      20.030  13.439   9.523  1.00  0.00     0.174 HD
ATOM     30  H11 UNL     1      20.967  14.413   8.598  1.00  0.00     0.174 HD
ENDBRANCH   1  28
BRANCH  10  31
HETATM   31  N11 UNL     1      19.947  17.869   5.115  1.00  0.00    -0.269 N 
HETATM   32  N12 UNL     1      19.497  18.948   5.608  1.00  0.00    -0.128 N 
ATOM     33  H12 UNL     1      20.003  19.815   5.424  1.00  0.00     0.205 HD
ATOM     34  H11 UNL     1      20.794  17.853   4.546  1.00  0.00     0.189 HD
BRANCH  32  35
HETATM   35  C8  UNL     1      18.325  19.008   6.401  1.00  0.00     0.723 A 
HETATM   36  N13 UNL     1      18.019  18.847   7.696  1.00  0.00    -0.113 N 
HETATM   37  N14 UNL     1      16.737  19.091   7.467  1.00  0.00     0.007 NA
ATOM     38  H13 UNL     1      18.561  18.624   8.531  1.00  0.00     0.203 HD
HETATM   39  N15 UNL     1      17.036  19.252   6.174  1.00  0.00    -0.113 N 
ATOM     40  H15 UNL     1      16.491  19.475   5.341  1.00  0.00     0.203 HD
ENDBRANCH  32  35
ENDBRANCH  10  31
TORSDOF 7
ENDMDL
MODEL 3
REMARK VINA RESULT: -9.906269676      2.721      8.158
REMARK  7 active torsions:
REMARK  status: ('A' for Active; 'I' for Inactive)
REMARK    1  A    between atoms: N1_1  and  C1_4 
REMARK    2  A    between atoms: C2_7  and  N3_8 
REMARK       I    between atoms: N3_8  and  C3_10 
REMARK    3  A    between atoms: C3_10  and  C4_12 
REMARK    4  A    between atoms: C4_12  and  C5_13 
REMARK    5  A    between atoms: C5_13  and  C6_14 
REMARK    6  A    between atoms: C7_28  and  N11_29 
REMARK    7  A    between atoms: N12_31  and  C8_33 
ROOT
HETATM    1  C1  UNL     1      18.907  16.252   4.586  1.00  0.00     0.713 A 
HETATM    2  N2  UNL     1      18.394  17.381   5.073  1.00  0.00    -0.017 N 
ATOM      3  H2  UNL     1      18.261  18.250   4.555  1.00  0.00     0.203 HD
HETATM    4  C2  UNL     1      18.084  17.181   6.355  1.00  0.00     0.738 A 
HETATM    5  N8  UNL     1      18.407  15.921   6.664  1.00  0.00     0.016 N 
HETATM    6  N9  UNL     1      18.281  15.266   7.822  1.00  0.00    -0.204 N 
ATOM      7  H9  UNL     1      17.887  15.739   8.635  1.00  0.00     0.211 HD
HETATM    8  N10 UNL     1      18.667  14.008   7.915  1.00  0.00    -0.267 N 
ATOM      9  H10 UNL     1      18.570  13.514   8.802  1.00  0.00     0.190 HD
HETATM   10  C7  UNL     1      19.180  13.381   6.867  1.00  0.00     0.154 A 
HETATM   11  C9  UNL     1      19.307  14.056   5.678  1.00  0.00     0.189 A 
HETATM   12  N16 UNL     1      18.906  15.359   5.588  1.00  0.00    -0.056 N 
ENDROOT
BRANCH   4  13
HETATM   13  N3  UNL     1      17.557  18.057   7.173  1.00  0.00    -0.156 N 
HETATM   14  C3  UNL     1      18.355  18.799   8.080  1.00  0.00     0.236 C 
HETATM   15  O1  UNL     1      19.192  18.257   8.842  1.00  0.00    -0.273 OA
ATOM     16  H3  UNL     1      16.549  18.209   7.157  1.00  0.00     0.187 HD
BRANCH  14  17
HETATM   17  C4  UNL     1      18.179  20.266   8.110  1.00  0.00     0.111 C 
BRANCH  17  18
HETATM   18  C5  UNL     1      19.480  20.898   8.526  1.00  0.00     0.088 C 
BRANCH  18  19
HETATM   19  C6  UNL     1      19.428  21.358   9.953  1.00  0.00     0.113 A 
HETATM   20  N4  UNL     1      18.982  22.535  10.415  1.00  0.00    -0.272 N 
HETATM   21  N5  UNL     1      19.120  22.508  11.723  1.00  0.00    -0.227 N 
ATOM     22  H4  UNL     1      18.607  23.304   9.858  1.00  0.00     0.190 HD
HETATM   23  N6  UNL     1      19.638  21.364  12.124  1.00  0.00    -0.227 N 
ATOM     24  H5  UNL     1      18.862  23.273  12.346  1.00  0.00     0.210 HD
HETATM   25  N7  UNL     1      19.826  20.656  11.026  1.00  0.00    -0.272 N 
ATOM     26  H6  UNL     1      19.848  21.083  13.082  1.00  0.00     0.210 HD
ATOM     27  H7  UNL     1      20.217  19.714  10.997  1.00  0.00     0.190 HD
ENDBRANCH  18  19
ENDBRANCH  17  18
ENDBRANCH  14  17
ENDBRANCH   4  13
BRANCH   1  28
HETATM   28  N1  UNL     1      19.342  15.981   3.402  1.00  0.00    -0.232 N 
ATOM     29  H12 UNL     1      18.958  15.233   2.826  1.00  0.00     0.174 HD
ATOM     30  H11 UNL     1      20.086  16.420   2.860  1.00  0.00     0.174 HD
ENDBRANCH   1  28
BRANCH  10  31
HETATM   31  N11 UNL     1      19.617  12.022   6.896  1.00  0.00    -0.269 N 
HETATM   32  N12 UNL     1      18.744  11.134   6.651  1.00  0.00    -0.128 N 
ATOM     33  H12 UNL     1      19.030  10.155   6.663  1.00  0.00     0.205 HD
ATOM     34  H11 UNL     1      20.585  11.777   7.104  1.00  0.00     0.189 HD
BRANCH  32  35
HETATM   35  C8  UNL     1      17.391  11.436   6.359  1.00  0.00     0.723 A 
HETATM   36  N13 UNL     1      16.685  11.781   5.274  1.00  0.00    -0.113 N 
HETATM   37  N14 UNL     1      15.561  11.843   5.973  1.00  0.00     0.007 NA
ATOM     38  H13 UNL     1      16.920  11.936   4.293  1.00  0.00     0.203 HD
HETATM   39  N15 UNL     1      16.261  11.500   7.059  1.00  0.00    -0.113 N 
ATOM     40  H15 UNL     1      16.021  11.346   8.038  1.00  0.00     0.203 HD
ENDBRANCH  32  35
ENDBRANCH  10  31
TORSDOF 7
ENDMDL
MODEL 4
REMARK VINA RESULT: -9.892926333      1.817      3.047
REMARK  7 active torsions:
REMARK  status: ('A' for Active; 'I' for Inactive)
REMARK    1  A    between atoms: N1_1  and  C1_4 
REMARK    2  A    between atoms: C2_7  and  N3_8 
REMARK       I    between atoms: N3_8  and  C3_10 
REMARK    3  A    between atoms: C3_10  and  C4_12 
REMARK    4  A    between atoms: C4_12  and  C5_13 
REMARK    5  A    between atoms: C5_13  and  C6_14 
REMARK    6  A    between atoms: C7_28  and  N11_29 
REMARK    7  A    between atoms: N12_31  and  C8_33 
ROOT
HETATM    1  C1  UNL     1      18.978  13.841   7.943  1.00  0.00     0.713 A 
HETATM    2  N2  UNL     1      18.445  12.933   7.126  1.00  0.00    -0.017 N 
ATOM      3  H2  UNL     1      18.592  11.925   7.175  1.00  0.00     0.203 HD
HETATM    4  C2  UNL     1      17.688  13.570   6.232  1.00  0.00     0.738 A 
HETATM    5  N8  UNL     1      17.751  14.878   6.496  1.00  0.00     0.016 N 
HETATM    6  N9  UNL     1      17.161  15.906   5.876  1.00  0.00    -0.204 N 
ATOM      7  H9  UNL     1      16.558  15.736   5.072  1.00  0.00     0.211 HD
HETATM    8  N10 UNL     1      17.359  17.137   6.304  1.00  0.00    -0.267 N 
ATOM      9  H10 UNL     1      16.907  17.917   5.826  1.00  0.00     0.190 HD
HETATM   10  C7  UNL     1      18.139  17.371   7.348  1.00  0.00     0.154 A 
HETATM   11  C9  UNL     1      18.743  16.314   7.984  1.00  0.00     0.189 A 
HETATM   12  N16 UNL     1      18.534  15.040   7.535  1.00  0.00    -0.056 N 
ENDROOT
BRANCH   4  13
HETATM   13  N3  UNL     1      17.000  13.018   5.263  1.00  0.00    -0.156 N 
HETATM   14  C3  UNL     1      16.921  11.610   5.118  1.00  0.00     0.236 C 
HETATM   15  O1  UNL     1      17.937  10.873   5.119  1.00  0.00    -0.273 OA
ATOM     16  H3  UNL     1      16.510  13.616   4.598  1.00  0.00     0.187 HD
BRANCH  14  17
HETATM   17  C4  UNL     1      15.579  11.009   4.965  1.00  0.00     0.111 C 
BRANCH  17  18
HETATM   18  C5  UNL     1      14.872  11.065   6.292  1.00  0.00     0.088 C 
BRANCH  18  19
HETATM   19  C6  UNL     1      15.501  10.129   7.282  1.00  0.00     0.113 A 
HETATM   20  N4  UNL     1      16.595  10.345   8.027  1.00  0.00    -0.272 N 
HETATM   21  N5  UNL     1      16.783   9.261   8.749  1.00  0.00    -0.227 N 
ATOM     22  H4  UNL     1      17.171  11.187   8.031  1.00  0.00     0.190 HD
HETATM   23  N6  UNL     1      15.857   8.356   8.502  1.00  0.00    -0.227 N 
ATOM     24  H5  UNL     1      17.547   9.138   9.414  1.00  0.00     0.210 HD
HETATM   25  N7  UNL     1      15.067   8.898   7.594  1.00  0.00    -0.272 N 
ATOM     26  H6  UNL     1      15.769   7.431   8.924  1.00  0.00     0.210 HD
ATOM     27  H7  UNL     1      14.246   8.447   7.188  1.00  0.00     0.190 HD
ENDBRANCH  18  19
ENDBRANCH  17  18
ENDBRANCH  14  17
ENDBRANCH   4  13
BRANCH   1  28
HETATM   28  N1  UNL     1      19.770  13.688   8.950  1.00  0.00    -0.232 N 
ATOM     29  H12 UNL     1      19.598  14.109   9.862  1.00  0.00     0.174 HD
ATOM     30  H11 UNL     1      20.642  13.164   9.025  1.00  0.00     0.174 HD
ENDBRANCH   1  28
BRANCH  10  31
HETATM   31  N11 UNL     1      18.396  18.677   7.865  1.00  0.00    -0.269 N 
HETATM   32  N12 UNL     1      19.475  19.236   7.498  1.00  0.00    -0.128 N 
ATOM     33  H12 UNL     1      19.682  20.171   7.852  1.00  0.00     0.205 HD
ATOM     34  H11 UNL     1      17.744  19.138   8.500  1.00  0.00     0.189 HD
BRANCH  32  35
HETATM   35  C8  UNL     1      20.404  18.627   6.620  1.00  0.00     0.723 A 
HETATM   36  N13 UNL     1      20.443  18.300   5.320  1.00  0.00    -0.113 N 
HETATM   37  N14 UNL     1      21.665  17.803   5.438  1.00  0.00     0.007 NA
ATOM     38  H13 UNL     1      19.788  18.397   4.544  1.00  0.00     0.203 HD
HETATM   39  N15 UNL     1      21.631  18.126   6.735  1.00  0.00    -0.113 N 
ATOM     40  H15 UNL     1      22.289  18.027   7.509  1.00  0.00     0.203 HD
ENDBRANCH  32  35
ENDBRANCH  10  31
TORSDOF 7
ENDMDL
MODEL 5
REMARK VINA RESULT: -9.827680028      1.045      1.162
REMARK  7 active torsions:
REMARK  status: ('A' for Active; 'I' for Inactive)
REMARK    1  A    between atoms: N1_1  and  C1_4 
REMARK    2  A    between atoms: C2_7  and  N3_8 
REMARK       I    between atoms: N3_8  and  C3_10 
REMARK    3  A    between atoms: C3_10  and  C4_12 
REMARK    4  A    between atoms: C4_12  and  C5_13 
REMARK    5  A    between atoms: C5_13  and  C6_14 
REMARK    6  A    between atoms: C7_28  and  N11_29 
REMARK    7  A    between atoms: N12_31  and  C8_33 
ROOT
HETATM    1  C1  UNL     1      18.875  15.681   4.127  1.00  0.00     0.713 A 
HETATM    2  N2  UNL     1      18.170  14.552   4.176  1.00  0.00    -0.017 N 
ATOM      3  H2  UNL     1      17.948  13.950   3.383  1.00  0.00     0.203 HD
HETATM    4  C2  UNL     1      17.804  14.343   5.442  1.00  0.00     0.738 A 
HETATM    5  N8  UNL     1      18.285  15.348   6.180  1.00  0.00     0.016 N 
HETATM    6  N9  UNL     1      18.178  15.572   7.493  1.00  0.00    -0.204 N 
ATOM      7  H9  UNL     1      17.665  14.916   8.081  1.00  0.00     0.211 HD
HETATM    8  N10 UNL     1      18.735  16.641   8.029  1.00  0.00    -0.267 N 
ATOM      9  H10 UNL     1      18.648  16.807   9.032  1.00  0.00     0.190 HD
HETATM   10  C7  UNL     1      19.406  17.500   7.278  1.00  0.00     0.154 A 
HETATM   11  C9  UNL     1      19.515  17.268   5.929  1.00  0.00     0.189 A 
HETATM   12  N16 UNL     1      18.935  16.159   5.379  1.00  0.00    -0.056 N 
ENDROOT
BRANCH   4  13
HETATM   13  N3  UNL     1      17.100  13.335   5.891  1.00  0.00    -0.156 N 
HETATM   14  C3  UNL     1      16.701  12.272   5.041  1.00  0.00     0.236 C 
HETATM   15  O1  UNL     1      16.136  12.466   3.937  1.00  0.00    -0.273 OA
ATOM     16  H3  UNL     1      16.831  13.314   6.874  1.00  0.00     0.187 HD
BRANCH  14  17
HETATM   17  C4  UNL     1      16.973  10.892   5.492  1.00  0.00     0.111 C 
BRANCH  17  18
HETATM   18  C5  UNL     1      17.213  10.909   6.978  1.00  0.00     0.088 C 
BRANCH  18  19
HETATM   19  C6  UNL     1      16.400   9.856   7.671  1.00  0.00     0.113 A 
HETATM   20  N4  UNL     1      15.217   9.354   7.287  1.00  0.00    -0.272 N 
HETATM   21  N5  UNL     1      14.874   8.458   8.187  1.00  0.00    -0.227 N 
ATOM     22  H4  UNL     1      14.686   9.618   6.457  1.00  0.00     0.190 HD
HETATM   23  N6  UNL     1      15.785   8.361   9.135  1.00  0.00    -0.227 N 
ATOM     24  H5  UNL     1      14.014   7.910   8.156  1.00  0.00     0.210 HD
HETATM   25  N7  UNL     1      16.726   9.227   8.811  1.00  0.00    -0.272 N 
ATOM     26  H6  UNL     1      15.766   7.745   9.949  1.00  0.00     0.210 HD
ATOM     27  H7  UNL     1      17.577   9.395   9.349  1.00  0.00     0.190 HD
ENDBRANCH  18  19
ENDBRANCH  17  18
ENDBRANCH  14  17
ENDBRANCH   4  13
BRANCH   1  28
HETATM   28  N1  UNL     1      19.427  16.271   3.120  1.00  0.00    -0.232 N 
ATOM     29  H12 UNL     1      19.571  15.817   2.219  1.00  0.00     0.174 HD
ATOM     30  H11 UNL     1      19.795  17.219   3.036  1.00  0.00     0.174 HD
ENDBRANCH   1  28
BRANCH  10  31
HETATM   31  N11 UNL     1      20.034  18.675   7.790  1.00  0.00    -0.269 N 
HETATM   32  N12 UNL     1      19.298  19.699   7.942  1.00  0.00    -0.128 N 
ATOM     33  H12 UNL     1      19.722  20.552   8.308  1.00  0.00     0.205 HD
ATOM     34  H11 UNL     1      21.027  18.691   8.023  1.00  0.00     0.189 HD
BRANCH  32  35
HETATM   35  C8  UNL     1      17.917  19.714   7.629  1.00  0.00     0.723 A 
HETATM   36  N13 UNL     1      17.154  19.366   6.583  1.00  0.00    -0.113 N 
HETATM   37  N14 UNL     1      16.049  19.736   7.212  1.00  0.00     0.007 NA
ATOM     38  H13 UNL     1      17.349  18.970   5.663  1.00  0.00     0.203 HD
HETATM   39  N15 UNL     1      16.805  20.085   8.258  1.00  0.00    -0.113 N 
ATOM     40  H15 UNL     1      16.606  20.481   9.177  1.00  0.00     0.203 HD
ENDBRANCH  32  35
ENDBRANCH  10  31
TORSDOF 7
ENDMDL
