MODEL 1
REMARK VINA RESULT: -7.181802315      0.000      0.000
REMARK  17 active torsions:
REMARK  status: ('A' for Active; 'I' for Inactive)
REMARK    1  A    between atoms: S1_2  and  C2_3 
REMARK    2  A    between atoms: C2_3  and  C3_4 
REMARK    3  A    between atoms: C3_4  and  O1_8 
REMARK    4  A    between atoms: O1_8  and  C4_9 
REMARK    5  A    between atoms: C9_14  and  O2_15 
REMARK    6  A    between atoms: O2_15  and  C10_16 
REMARK    7  A    between atoms: C11_17  and  N2_18 
REMARK    8  A    between atoms: C13_23  and  N3_24 
REMARK    9  A    between atoms: C14_28  and  O3_29 
REMARK   10  A    between atoms: O3_29  and  C15_30 
REMARK   11  A    between atoms: C16_31  and  O4_32 
REMARK   12  A    between atoms: C17_34  and  O5_35 
REMARK   13  A    between atoms: C18_37  and  O6_38 
REMARK   14  A    between atoms: C19_40  and  C20_41 
REMARK   15  A    between atoms: C20_41  and  O7_42 
REMARK   16  A    between atoms: C21_44  and  O8_45 
REMARK   17  A    between atoms: C22_47  and  O9_48 
ROOT
HETATM    1  C10 UNL     1     112.591  64.200  41.827  1.00  0.00     0.183 C 
HETATM    2  C11 UNL     1     112.231  65.647  42.246  1.00  0.00     0.217 C 
HETATM    3  C12 UNL     1     111.188  65.707  43.295  1.00  0.00     0.071 C 
HETATM    4  C13 UNL     1     110.957  64.389  44.018  1.00  0.00     0.217 C 
HETATM    5  C14 UNL     1     110.544  63.311  43.009  1.00  0.00     0.183 C 
HETATM    6  C22 UNL     1     111.253  63.541  41.685  1.00  0.00     0.180 C 
ENDROOT
BRANCH   5   7
HETATM    7  O3  UNL     1     110.744  62.044  43.423  1.00  0.00    -0.371 OA
BRANCH   7   8
HETATM    8  C15 UNL     1     109.675  61.259  43.764  1.00  0.00     0.182 C 
HETATM    9  C16 UNL     1     108.336  61.766  43.396  1.00  0.00     0.180 C 
HETATM   10  C17 UNL     1     107.235  60.853  43.886  1.00  0.00     0.178 C 
HETATM   11  C18 UNL     1     107.592  59.418  43.981  1.00  0.00     0.158 C 
HETATM   12  C19 UNL     1     108.730  58.995  43.122  1.00  0.00     0.072 C 
HETATM   13  C21 UNL     1     109.879  59.926  43.070  1.00  0.00     0.158 C 
BRANCH   9  14
HETATM   14  O4  UNL     1     108.227  62.029  42.013  1.00  0.00    -0.390 OA
ATOM     15  H4  UNL     1     107.327  61.989  41.711  1.00  0.00     0.210 HD
ENDBRANCH   9  14
BRANCH  10  16
HETATM   16  O5  UNL     1     106.071  61.022  43.097  1.00  0.00    -0.390 OA
ATOM     17  H5  UNL     1     106.020  60.340  42.437  1.00  0.00     0.210 HD
ENDBRANCH  10  16
BRANCH  11  18
HETATM   18  O6  UNL     1     107.831  59.002  45.303  1.00  0.00    -0.392 OA
ATOM     19  H6  UNL     1     108.569  59.449  45.702  1.00  0.00     0.210 HD
ENDBRANCH  11  18
BRANCH  12  20
HETATM   20  C20 UNL     1     108.241  58.559  41.736  1.00  0.00     0.174 C 
BRANCH  20  21
HETATM   21  O7  UNL     1     107.025  59.130  41.428  1.00  0.00    -0.400 OA
ATOM     22  H7  UNL     1     106.816  59.027  40.506  1.00  0.00     0.209 HD
ENDBRANCH  20  21
ENDBRANCH  12  20
BRANCH  13  23
HETATM   23  O8  UNL     1     111.027  59.348  43.665  1.00  0.00    -0.392 OA
ATOM     24  H8  UNL     1     111.748  59.933  43.463  1.00  0.00     0.210 HD
ENDBRANCH  13  23
ENDBRANCH   7   8
ENDBRANCH   5   7
BRANCH   4  25
HETATM   25  N3  UNL     1     112.075  64.009  44.829  1.00  0.00    -0.072 N 
ATOM     26  H33 UNL     1     112.585  63.231  44.410  1.00  0.00     0.274 HD
ATOM     27  H32 UNL     1     112.808  64.718  44.801  1.00  0.00     0.274 HD
ATOM     28  H31 UNL     1     111.804  63.797  45.790  1.00  0.00     0.274 HD
ENDBRANCH   4  25
BRANCH   6  29
HETATM   29  O9  UNL     1     111.236  62.376  40.970  1.00  0.00    -0.390 OA
ATOM     30  H9  UNL     1     110.434  62.194  40.495  1.00  0.00     0.210 HD
ENDBRANCH   6  29
BRANCH   1  31
HETATM   31  O2  UNL     1     113.244  64.328  40.640  1.00  0.00    -0.373 OA
BRANCH  31  32
HETATM   32  C9  UNL     1     114.476  63.807  40.480  1.00  0.00     0.151 C 
HETATM   33  C4  UNL     1     114.413  62.601  39.547  1.00  0.00     0.159 C 
HETATM   34  C5  UNL     1     113.822  62.991  38.211  1.00  0.00     0.035 C 
HETATM   35  C6  UNL     1     114.770  63.986  37.532  1.00  0.00     0.003 C 
HETATM   36  C7  UNL     1     114.875  65.189  38.438  1.00  0.00     0.003 C 
HETATM   37  C8  UNL     1     115.453  64.743  39.767  1.00  0.00     0.034 C 
BRANCH  33  38
HETATM   38  O1  UNL     1     113.806  61.485  40.063  1.00  0.00    -0.331 OA
BRANCH  38  39
HETATM   39  C3  UNL     1     114.262  60.876  41.214  1.00  0.00     0.121 C 
HETATM   40  N1  UNL     1     113.455  60.695  42.189  1.00  0.00    -0.383 N 
ATOM     41  H12 UNL     1     113.792  60.245  43.040  1.00  0.00     0.158 HD
ATOM     42  H11 UNL     1     112.489  61.007  42.093  1.00  0.00     0.158 HD
BRANCH  39  43
HETATM   43  C2  UNL     1     115.671  60.421  41.355  1.00  0.00     0.157 C 
BRANCH  43  44
HETATM   44  S1  UNL     1     116.401  60.958  42.900  1.00  0.00    -0.166 SA
HETATM   45  C1  UNL     1     117.436  59.697  43.670  1.00  0.00     0.090 C 
ENDBRANCH  43  44
ENDBRANCH  39  43
ENDBRANCH  38  39
ENDBRANCH  33  38
ENDBRANCH  31  32
ENDBRANCH   1  31
BRANCH   2  46
HETATM   46  N2  UNL     1     113.363  66.400  42.665  1.00  0.00    -0.072 N 
ATOM     47  H23 UNL     1     114.127  66.316  41.993  1.00  0.00     0.274 HD
ATOM     48  H22 UNL     1     113.185  67.401  42.588  1.00  0.00     0.274 HD
ATOM     49  H21 UNL     1     113.676  66.156  43.604  1.00  0.00     0.274 HD
ENDBRANCH   2  46
TORSDOF 17
ENDMDL
MODEL 2
REMARK VINA RESULT: -6.979582155      1.031      1.985
REMARK  17 active torsions:
REMARK  status: ('A' for Active; 'I' for Inactive)
REMARK    1  A    between atoms: S1_2  and  C2_3 
REMARK    2  A    between atoms: C2_3  and  C3_4 
REMARK    3  A    between atoms: C3_4  and  O1_8 
REMARK    4  A    between atoms: O1_8  and  C4_9 
REMARK    5  A    between atoms: C9_14  and  O2_15 
REMARK    6  A    between atoms: O2_15  and  C10_16 
REMARK    7  A    between atoms: C11_17  and  N2_18 
REMARK    8  A    between atoms: C13_23  and  N3_24 
REMARK    9  A    between atoms: C14_28  and  O3_29 
REMARK   10  A    between atoms: O3_29  and  C15_30 
REMARK   11  A    between atoms: C16_31  and  O4_32 
REMARK   12  A    between atoms: C17_34  and  O5_35 
REMARK   13  A    between atoms: C18_37  and  O6_38 
REMARK   14  A    between atoms: C19_40  and  C20_41 
REMARK   15  A    between atoms: C20_41  and  O7_42 
REMARK   16  A    between atoms: C21_44  and  O8_45 
REMARK   17  A    between atoms: C22_47  and  O9_48 
ROOT
HETATM    1  C10 UNL     1     112.839  64.547  41.703  1.00  0.00     0.183 C 
HETATM    2  C11 UNL     1     112.456  66.002  42.075  1.00  0.00     0.217 C 
HETATM    3  C12 UNL     1     111.376  66.079  43.086  1.00  0.00     0.071 C 
HETATM    4  C13 UNL     1     111.127  64.777  43.831  1.00  0.00     0.217 C 
HETATM    5  C14 UNL     1     110.756  63.673  42.833  1.00  0.00     0.183 C 
HETATM    6  C22 UNL     1     111.510  63.877  41.530  1.00  0.00     0.180 C 
ENDROOT
BRANCH   5   7
HETATM    7  O3  UNL     1     110.948  62.417  43.283  1.00  0.00    -0.371 OA
BRANCH   7   8
HETATM    8  C15 UNL     1     109.890  61.552  43.367  1.00  0.00     0.182 C 
HETATM    9  C16 UNL     1     110.050  60.244  42.697  1.00  0.00     0.180 C 
HETATM   10  C17 UNL     1     108.795  59.406  42.796  1.00  0.00     0.178 C 
HETATM   11  C18 UNL     1     107.969  59.635  44.005  1.00  0.00     0.158 C 
HETATM   12  C19 UNL     1     108.698  60.217  45.163  1.00  0.00     0.072 C 
HETATM   13  C21 UNL     1     109.657  61.297  44.845  1.00  0.00     0.158 C 
BRANCH   9  14
HETATM   14  O4  UNL     1     111.187  59.545  43.155  1.00  0.00    -0.390 OA
ATOM     15  H4  UNL     1     111.797  59.353  42.452  1.00  0.00     0.210 HD
ENDBRANCH   9  14
BRANCH  10  16
HETATM   16  O5  UNL     1     109.112  58.031  42.667  1.00  0.00    -0.390 OA
ATOM     17  H5  UNL     1     108.526  57.508  43.201  1.00  0.00     0.210 HD
ENDBRANCH  10  16
BRANCH  11  18
HETATM   18  O6  UNL     1     106.823  60.407  43.744  1.00  0.00    -0.392 OA
ATOM     19  H6  UNL     1     106.693  61.100  44.381  1.00  0.00     0.210 HD
ENDBRANCH  11  18
BRANCH  12  20
HETATM   20  C20 UNL     1     109.297  59.116  46.046  1.00  0.00     0.174 C 
BRANCH  20  21
HETATM   21  O7  UNL     1     110.675  59.179  46.063  1.00  0.00    -0.400 OA
ATOM     22  H7  UNL     1     111.059  58.322  46.210  1.00  0.00     0.209 HD
ENDBRANCH  20  21
ENDBRANCH  12  20
BRANCH  13  23
HETATM   23  O8  UNL     1     109.229  62.533  45.390  1.00  0.00    -0.392 OA
ATOM     24  H8  UNL     1     109.980  63.113  45.344  1.00  0.00     0.210 HD
ENDBRANCH  13  23
ENDBRANCH   7   8
ENDBRANCH   5   7
BRANCH   4  25
HETATM   25  N3  UNL     1     112.218  64.422  44.689  1.00  0.00    -0.072 N 
ATOM     26  H33 UNL     1     112.736  65.250  44.986  1.00  0.00     0.274 HD
ATOM     27  H32 UNL     1     111.882  64.105  45.599  1.00  0.00     0.274 HD
ATOM     28  H31 UNL     1     112.838  63.733  44.265  1.00  0.00     0.274 HD
ENDBRANCH   4  25
BRANCH   6  29
HETATM   29  O9  UNL     1     111.525  62.696  40.843  1.00  0.00    -0.390 OA
ATOM     30  H9  UNL     1     110.678  62.286  40.706  1.00  0.00     0.210 HD
ENDBRANCH   6  29
BRANCH   1  31
HETATM   31  O2  UNL     1     113.533  64.652  40.538  1.00  0.00    -0.373 OA
BRANCH  31  32
HETATM   32  C9  UNL     1     114.761  64.111  40.424  1.00  0.00     0.151 C 
HETATM   33  C4  UNL     1     114.709  62.891  39.509  1.00  0.00     0.159 C 
HETATM   34  C5  UNL     1     114.166  63.267  38.150  1.00  0.00     0.035 C 
HETATM   35  C6  UNL     1     115.149  64.237  37.485  1.00  0.00     0.003 C 
HETATM   36  C7  UNL     1     115.244  65.454  38.375  1.00  0.00     0.003 C 
HETATM   37  C8  UNL     1     115.773  65.020  39.728  1.00  0.00     0.034 C 
BRANCH  33  38
HETATM   38  O1  UNL     1     114.070  61.792  40.024  1.00  0.00    -0.331 OA
BRANCH  38  39
HETATM   39  C3  UNL     1     114.506  61.171  41.177  1.00  0.00     0.121 C 
HETATM   40  N1  UNL     1     113.701  61.046  42.163  1.00  0.00    -0.383 N 
ATOM     41  H12 UNL     1     114.022  60.587  43.015  1.00  0.00     0.158 HD
ATOM     42  H11 UNL     1     112.752  61.409  42.073  1.00  0.00     0.158 HD
BRANCH  39  43
HETATM   43  C2  UNL     1     115.889  60.641  41.307  1.00  0.00     0.157 C 
BRANCH  43  44
HETATM   44  S1  UNL     1     116.563  60.916  42.944  1.00  0.00    -0.166 SA
HETATM   45  C1  UNL     1     117.390  59.462  43.622  1.00  0.00     0.090 C 
ENDBRANCH  43  44
ENDBRANCH  39  43
ENDBRANCH  38  39
ENDBRANCH  33  38
ENDBRANCH  31  32
ENDBRANCH   1  31
BRANCH   2  46
HETATM   46  N2  UNL     1     113.569  66.771  42.516  1.00  0.00    -0.072 N 
ATOM     47  H23 UNL     1     113.809  66.547  43.482  1.00  0.00     0.274 HD
ATOM     48  H22 UNL     1     114.428  66.466  42.058  1.00  0.00     0.274 HD
ATOM     49  H21 UNL     1     113.429  67.774  42.399  1.00  0.00     0.274 HD
ENDBRANCH   2  46
TORSDOF 17
ENDMDL
MODEL 3
REMARK VINA RESULT: -6.558362636      1.434      1.733
REMARK  17 active torsions:
REMARK  status: ('A' for Active; 'I' for Inactive)
REMARK    1  A    between atoms: S1_2  and  C2_3 
REMARK    2  A    between atoms: C2_3  and  C3_4 
REMARK    3  A    between atoms: C3_4  and  O1_8 
REMARK    4  A    between atoms: O1_8  and  C4_9 
REMARK    5  A    between atoms: C9_14  and  O2_15 
REMARK    6  A    between atoms: O2_15  and  C10_16 
REMARK    7  A    between atoms: C11_17  and  N2_18 
REMARK    8  A    between atoms: C13_23  and  N3_24 
REMARK    9  A    between atoms: C14_28  and  O3_29 
REMARK   10  A    between atoms: O3_29  and  C15_30 
REMARK   11  A    between atoms: C16_31  and  O4_32 
REMARK   12  A    between atoms: C17_34  and  O5_35 
REMARK   13  A    between atoms: C18_37  and  O6_38 
REMARK   14  A    between atoms: C19_40  and  C20_41 
REMARK   15  A    between atoms: C20_41  and  O7_42 
REMARK   16  A    between atoms: C21_44  and  O8_45 
REMARK   17  A    between atoms: C22_47  and  O9_48 
ROOT
HETATM    1  C10 UNL     1     112.630  64.265  41.779  1.00  0.00     0.183 C 
HETATM    2  C11 UNL     1     112.259  65.701  42.228  1.00  0.00     0.217 C 
HETATM    3  C12 UNL     1     111.225  65.730  43.288  1.00  0.00     0.071 C 
HETATM    4  C13 UNL     1     111.014  64.396  43.988  1.00  0.00     0.217 C 
HETATM    5  C14 UNL     1     110.602  63.333  42.962  1.00  0.00     0.183 C 
HETATM    6  C22 UNL     1     111.297  63.595  41.637  1.00  0.00     0.180 C 
ENDROOT
BRANCH   5   7
HETATM    7  O3  UNL     1     110.818  62.061  43.350  1.00  0.00    -0.371 OA
BRANCH   7   8
HETATM    8  C15 UNL     1     109.763  61.268  43.714  1.00  0.00     0.182 C 
HETATM    9  C16 UNL     1     108.412  61.778  43.398  1.00  0.00     0.180 C 
HETATM   10  C17 UNL     1     107.329  60.854  43.910  1.00  0.00     0.178 C 
HETATM   11  C18 UNL     1     107.692  59.419  43.971  1.00  0.00     0.158 C 
HETATM   12  C19 UNL     1     108.801  59.013  43.068  1.00  0.00     0.072 C 
HETATM   13  C21 UNL     1     109.946  59.946  42.992  1.00  0.00     0.158 C 
BRANCH   9  14
HETATM   14  O4  UNL     1     108.256  62.062  42.025  1.00  0.00    -0.390 OA
ATOM     15  H4  UNL     1     108.477  61.317  41.477  1.00  0.00     0.210 HD
ENDBRANCH   9  14
BRANCH  10  16
HETATM   16  O5  UNL     1     106.139  61.032  43.164  1.00  0.00    -0.390 OA
ATOM     17  H5  UNL     1     105.521  61.562  43.653  1.00  0.00     0.210 HD
ENDBRANCH  10  16
BRANCH  11  18
HETATM   18  O6  UNL     1     107.976  58.983  45.277  1.00  0.00    -0.392 OA
ATOM     19  H6  UNL     1     108.463  58.167  45.296  1.00  0.00     0.210 HD
ENDBRANCH  11  18
BRANCH  12  20
HETATM   20  C20 UNL     1     108.268  58.597  41.692  1.00  0.00     0.174 C 
BRANCH  20  21
HETATM   21  O7  UNL     1     107.034  59.159  41.440  1.00  0.00    -0.400 OA
ATOM     22  H7  UNL     1     106.543  58.647  40.806  1.00  0.00     0.209 HD
ENDBRANCH  20  21
ENDBRANCH  12  20
BRANCH  13  23
HETATM   23  O8  UNL     1     111.115  59.362  43.540  1.00  0.00    -0.392 OA
ATOM     24  H8  UNL     1     110.997  59.376  44.482  1.00  0.00     0.210 HD
ENDBRANCH  13  23
ENDBRANCH   7   8
ENDBRANCH   5   7
BRANCH   4  25
HETATM   25  N3  UNL     1     112.143  64.012  44.781  1.00  0.00    -0.072 N 
ATOM     26  H33 UNL     1     112.029  63.068  45.150  1.00  0.00     0.274 HD
ATOM     27  H32 UNL     1     112.967  63.862  44.199  1.00  0.00     0.274 HD
ATOM     28  H31 UNL     1     112.336  64.678  45.529  1.00  0.00     0.274 HD
ENDBRANCH   4  25
BRANCH   6  29
HETATM   29  O9  UNL     1     111.285  62.444  40.900  1.00  0.00    -0.390 OA
ATOM     30  H9  UNL     1     110.790  62.477  40.089  1.00  0.00     0.210 HD
ENDBRANCH   6  29
BRANCH   1  31
HETATM   31  O2  UNL     1     113.270  64.422  40.589  1.00  0.00    -0.373 OA
BRANCH  31  32
HETATM   32  C9  UNL     1     114.480  63.864  40.387  1.00  0.00     0.151 C 
HETATM   33  C4  UNL     1     114.415  62.895  39.209  1.00  0.00     0.159 C 
HETATM   34  C5  UNL     1     113.940  63.604  37.961  1.00  0.00     0.035 C 
HETATM   35  C6  UNL     1     114.987  64.654  37.571  1.00  0.00     0.003 C 
HETATM   36  C7  UNL     1     115.096  65.624  38.725  1.00  0.00     0.003 C 
HETATM   37  C8  UNL     1     115.554  64.862  39.953  1.00  0.00     0.034 C 
BRANCH  33  38
HETATM   38  O1  UNL     1     113.713  61.738  39.433  1.00  0.00    -0.331 OA
BRANCH  38  39
HETATM   39  C3  UNL     1     114.291  60.642  40.039  1.00  0.00     0.121 C 
HETATM   40  N1  UNL     1     115.552  60.462  39.933  1.00  0.00    -0.383 N 
ATOM     41  H12 UNL     1     115.981  59.652  40.381  1.00  0.00     0.158 HD
ATOM     42  H11 UNL     1     116.104  61.135  39.400  1.00  0.00     0.158 HD
BRANCH  39  43
HETATM   43  C2  UNL     1     113.488  59.661  40.816  1.00  0.00     0.157 C 
BRANCH  43  44
HETATM   44  S1  UNL     1     112.071  59.071  39.893  1.00  0.00    -0.166 SA
HETATM   45  C1  UNL     1     112.513  58.362  38.294  1.00  0.00     0.090 C 
ENDBRANCH  43  44
ENDBRANCH  39  43
ENDBRANCH  38  39
ENDBRANCH  33  38
ENDBRANCH  31  32
ENDBRANCH   1  31
BRANCH   2  46
HETATM   46  N2  UNL     1     113.387  66.457  42.651  1.00  0.00    -0.072 N 
ATOM     47  H23 UNL     1     114.256  66.016  42.348  1.00  0.00     0.274 HD
ATOM     48  H22 UNL     1     113.456  67.332  42.132  1.00  0.00     0.274 HD
ATOM     49  H21 UNL     1     113.396  66.627  43.656  1.00  0.00     0.274 HD
ENDBRANCH   2  46
TORSDOF 17
ENDMDL
MODEL 4
REMARK VINA RESULT: -6.450259755      1.698      2.689
REMARK  17 active torsions:
REMARK  status: ('A' for Active; 'I' for Inactive)
REMARK    1  A    between atoms: S1_2  and  C2_3 
REMARK    2  A    between atoms: C2_3  and  C3_4 
REMARK    3  A    between atoms: C3_4  and  O1_8 
REMARK    4  A    between atoms: O1_8  and  C4_9 
REMARK    5  A    between atoms: C9_14  and  O2_15 
REMARK    6  A    between atoms: O2_15  and  C10_16 
REMARK    7  A    between atoms: C11_17  and  N2_18 
REMARK    8  A    between atoms: C13_23  and  N3_24 
REMARK    9  A    between atoms: C14_28  and  O3_29 
REMARK   10  A    between atoms: O3_29  and  C15_30 
REMARK   11  A    between atoms: C16_31  and  O4_32 
REMARK   12  A    between atoms: C17_34  and  O5_35 
REMARK   13  A    between atoms: C18_37  and  O6_38 
REMARK   14  A    between atoms: C19_40  and  C20_41 
REMARK   15  A    between atoms: C20_41  and  O7_42 
REMARK   16  A    between atoms: C21_44  and  O8_45 
REMARK   17  A    between atoms: C22_47  and  O9_48 
ROOT
HETATM    1  C10 UNL     1     112.814  64.612  41.699  1.00  0.00     0.183 C 
HETATM    2  C11 UNL     1     112.445  66.053  42.134  1.00  0.00     0.217 C 
HETATM    3  C12 UNL     1     111.423  66.094  43.205  1.00  0.00     0.071 C 
HETATM    4  C13 UNL     1     111.222  64.769  43.924  1.00  0.00     0.217 C 
HETATM    5  C14 UNL     1     110.801  63.692  42.916  1.00  0.00     0.183 C 
HETATM    6  C22 UNL     1     111.480  63.938  41.580  1.00  0.00     0.180 C 
ENDROOT
BRANCH   5   7
HETATM    7  O3  UNL     1     111.023  62.425  43.318  1.00  0.00    -0.371 OA
BRANCH   7   8
HETATM    8  C15 UNL     1     109.979  61.544  43.414  1.00  0.00     0.182 C 
HETATM    9  C16 UNL     1     110.163  60.227  42.769  1.00  0.00     0.180 C 
HETATM   10  C17 UNL     1     108.921  59.371  42.879  1.00  0.00     0.178 C 
HETATM   11  C18 UNL     1     108.086  59.609  44.079  1.00  0.00     0.158 C 
HETATM   12  C19 UNL     1     108.800  60.224  45.229  1.00  0.00     0.072 C 
HETATM   13  C21 UNL     1     109.743  61.314  44.895  1.00  0.00     0.158 C 
BRANCH   9  14
HETATM   14  O4  UNL     1     111.309  59.555  43.244  1.00  0.00    -0.390 OA
ATOM     15  H4  UNL     1     112.067  59.702  42.689  1.00  0.00     0.210 HD
ENDBRANCH   9  14
BRANCH  10  16
HETATM   16  O5  UNL     1     109.260  58.000  42.777  1.00  0.00    -0.390 OA
ATOM     17  H5  UNL     1     109.779  57.733  43.527  1.00  0.00     0.210 HD
ENDBRANCH  10  16
BRANCH  11  18
HETATM   18  O6  UNL     1     106.929  60.358  43.799  1.00  0.00    -0.392 OA
ATOM     19  H6  UNL     1     106.233  60.210  44.429  1.00  0.00     0.210 HD
ENDBRANCH  11  18
BRANCH  12  20
HETATM   20  C20 UNL     1     109.413  59.150  46.135  1.00  0.00     0.174 C 
BRANCH  20  21
HETATM   21  O7  UNL     1     110.788  59.250  46.176  1.00  0.00    -0.400 OA
ATOM     22  H7  UNL     1     111.138  58.899  46.987  1.00  0.00     0.209 HD
ENDBRANCH  20  21
ENDBRANCH  12  20
BRANCH  13  23
HETATM   23  O8  UNL     1     109.294  62.552  45.415  1.00  0.00    -0.392 OA
ATOM     24  H8  UNL     1     108.739  62.932  44.744  1.00  0.00     0.210 HD
ENDBRANCH  13  23
ENDBRANCH   7   8
ENDBRANCH   5   7
BRANCH   4  25
HETATM   25  N3  UNL     1     112.360  64.396  44.710  1.00  0.00    -0.072 N 
ATOM     26  H33 UNL     1     113.156  65.004  44.514  1.00  0.00     0.274 HD
ATOM     27  H32 UNL     1     112.219  64.625  45.693  1.00  0.00     0.274 HD
ATOM     28  H31 UNL     1     112.609  63.414  44.592  1.00  0.00     0.274 HD
ENDBRANCH   4  25
BRANCH   6  29
HETATM   29  O9  UNL     1     111.463  62.778  40.858  1.00  0.00    -0.390 OA
ATOM     30  H9  UNL     1     111.415  61.976  41.366  1.00  0.00     0.210 HD
ENDBRANCH   6  29
BRANCH   1  31
HETATM   31  O2  UNL     1     113.441  64.755  40.500  1.00  0.00    -0.373 OA
BRANCH  31  32
HETATM   32  C9  UNL     1     114.709  64.330  40.339  1.00  0.00     0.151 C 
HETATM   33  C4  UNL     1     114.715  62.939  39.712  1.00  0.00     0.159 C 
HETATM   34  C5  UNL     1     113.985  62.948  38.388  1.00  0.00     0.035 C 
HETATM   35  C6  UNL     1     114.758  63.841  37.412  1.00  0.00     0.003 C 
HETATM   36  C7  UNL     1     114.792  65.228  38.010  1.00  0.00     0.003 C 
HETATM   37  C8  UNL     1     115.515  65.161  39.341  1.00  0.00     0.034 C 
BRANCH  33  38
HETATM   38  O1  UNL     1     114.281  61.922  40.523  1.00  0.00    -0.331 OA
BRANCH  38  39
HETATM   39  C3  UNL     1     114.619  60.605  40.284  1.00  0.00     0.121 C 
HETATM   40  N1  UNL     1     115.802  60.325  39.889  1.00  0.00    -0.383 N 
ATOM     41  H12 UNL     1     116.052  59.352  39.711  1.00  0.00     0.158 HD
ATOM     42  H11 UNL     1     116.471  61.084  39.759  1.00  0.00     0.158 HD
BRANCH  39  43
HETATM   43  C2  UNL     1     113.643  59.500  40.472  1.00  0.00     0.157 C 
BRANCH  43  44
HETATM   44  S1  UNL     1     112.303  59.574  39.285  1.00  0.00    -0.166 SA
HETATM   45  C1  UNL     1     110.991  58.383  39.623  1.00  0.00     0.090 C 
ENDBRANCH  43  44
ENDBRANCH  39  43
ENDBRANCH  38  39
ENDBRANCH  33  38
ENDBRANCH  31  32
ENDBRANCH   1  31
BRANCH   2  46
HETATM   46  N2  UNL     1     113.577  66.816  42.535  1.00  0.00    -0.072 N 
ATOM     47  H23 UNL     1     114.313  66.212  42.902  1.00  0.00     0.274 HD
ATOM     48  H22 UNL     1     114.065  67.198  41.725  1.00  0.00     0.274 HD
ATOM     49  H21 UNL     1     113.343  67.552  43.201  1.00  0.00     0.274 HD
ENDBRANCH   2  46
TORSDOF 17
ENDMDL
MODEL 5
REMARK VINA RESULT: -6.365852362      1.503      1.842
REMARK  17 active torsions:
REMARK  status: ('A' for Active; 'I' for Inactive)
REMARK    1  A    between atoms: S1_2  and  C2_3 
REMARK    2  A    between atoms: C2_3  and  C3_4 
REMARK    3  A    between atoms: C3_4  and  O1_8 
REMARK    4  A    between atoms: O1_8  and  C4_9 
REMARK    5  A    between atoms: C9_14  and  O2_15 
REMARK    6  A    between atoms: O2_15  and  C10_16 
REMARK    7  A    between atoms: C11_17  and  N2_18 
REMARK    8  A    between atoms: C13_23  and  N3_24 
REMARK    9  A    between atoms: C14_28  and  O3_29 
REMARK   10  A    between atoms: O3_29  and  C15_30 
REMARK   11  A    between atoms: C16_31  and  O4_32 
REMARK   12  A    between atoms: C17_34  and  O5_35 
REMARK   13  A    between atoms: C18_37  and  O6_38 
REMARK   14  A    between atoms: C19_40  and  C20_41 
REMARK   15  A    between atoms: C20_41  and  O7_42 
REMARK   16  A    between atoms: C21_44  and  O8_45 
REMARK   17  A    between atoms: C22_47  and  O9_48 
ROOT
HETATM    1  C10 UNL     1     112.634  64.239  41.801  1.00  0.00     0.183 C 
HETATM    2  C11 UNL     1     112.278  65.681  42.241  1.00  0.00     0.217 C 
HETATM    3  C12 UNL     1     111.235  65.729  43.291  1.00  0.00     0.071 C 
HETATM    4  C13 UNL     1     111.001  64.400  43.996  1.00  0.00     0.217 C 
HETATM    5  C14 UNL     1     110.585  63.338  42.971  1.00  0.00     0.183 C 
HETATM    6  C22 UNL     1     111.294  63.585  41.651  1.00  0.00     0.180 C 
ENDROOT
BRANCH   5   7
HETATM    7  O3  UNL     1     110.782  62.065  43.367  1.00  0.00    -0.371 OA
BRANCH   7   8
HETATM    8  C15 UNL     1     109.714  61.288  43.727  1.00  0.00     0.182 C 
HETATM    9  C16 UNL     1     108.373  61.800  43.374  1.00  0.00     0.180 C 
HETATM   10  C17 UNL     1     107.274  60.895  43.886  1.00  0.00     0.178 C 
HETATM   11  C18 UNL     1     107.625  59.459  43.986  1.00  0.00     0.158 C 
HETATM   12  C19 UNL     1     108.749  59.025  43.114  1.00  0.00     0.072 C 
HETATM   13  C21 UNL     1     109.902  59.949  43.040  1.00  0.00     0.158 C 
BRANCH   9  14
HETATM   14  O4  UNL     1     108.246  62.053  41.992  1.00  0.00    -0.390 OA
ATOM     15  H4  UNL     1     107.599  61.490  41.582  1.00  0.00     0.210 HD
ENDBRANCH   9  14
BRANCH  10  16
HETATM   16  O5  UNL     1     106.100  61.064  43.112  1.00  0.00    -0.390 OA
ATOM     17  H5  UNL     1     105.594  60.260  43.103  1.00  0.00     0.210 HD
ENDBRANCH  10  16
BRANCH  11  18
HETATM   18  O6  UNL     1     107.881  59.051  45.307  1.00  0.00    -0.392 OA
ATOM     19  H6  UNL     1     107.479  58.216  45.519  1.00  0.00     0.210 HD
ENDBRANCH  11  18
BRANCH  12  20
HETATM   20  C20 UNL     1     108.239  58.582  41.738  1.00  0.00     0.174 C 
BRANCH  20  21
HETATM   21  O7  UNL     1     107.035  59.180  41.430  1.00  0.00    -0.400 OA
ATOM     22  H7  UNL     1     106.316  58.561  41.485  1.00  0.00     0.209 HD
ENDBRANCH  20  21
ENDBRANCH  12  20
BRANCH  13  23
HETATM   23  O8  UNL     1     111.055  59.369  43.623  1.00  0.00    -0.392 OA
ATOM     24  H8  UNL     1     111.790  59.894  43.327  1.00  0.00     0.210 HD
ENDBRANCH  13  23
ENDBRANCH   7   8
ENDBRANCH   5   7
BRANCH   4  25
HETATM   25  N3  UNL     1     112.119  64.006  44.800  1.00  0.00    -0.072 N 
ATOM     26  H33 UNL     1     111.887  63.201  45.383  1.00  0.00     0.274 HD
ATOM     27  H32 UNL     1     112.854  63.588  44.230  1.00  0.00     0.274 HD
ATOM     28  H31 UNL     1     112.483  64.775  45.363  1.00  0.00     0.274 HD
ENDBRANCH   4  25
BRANCH   6  29
HETATM   29  O9  UNL     1     111.274  62.431  40.919  1.00  0.00    -0.390 OA
ATOM     30  H9  UNL     1     111.373  61.626  41.414  1.00  0.00     0.210 HD
ENDBRANCH   6  29
BRANCH   1  31
HETATM   31  O2  UNL     1     113.287  64.383  40.616  1.00  0.00    -0.373 OA
BRANCH  31  32
HETATM   32  C9  UNL     1     114.223  63.489  40.240  1.00  0.00     0.151 C 
HETATM   33  C4  UNL     1     114.107  63.214  38.744  1.00  0.00     0.159 C 
HETATM   34  C5  UNL     1     114.246  64.495  37.954  1.00  0.00     0.035 C 
HETATM   35  C6  UNL     1     115.663  65.043  38.161  1.00  0.00     0.003 C 
HETATM   36  C7  UNL     1     115.824  65.309  39.640  1.00  0.00     0.003 C 
HETATM   37  C8  UNL     1     115.656  64.000  40.386  1.00  0.00     0.034 C 
BRANCH  33  38
HETATM   38  O1  UNL     1     113.003  62.497  38.358  1.00  0.00    -0.331 OA
BRANCH  38  39
HETATM   39  C3  UNL     1     113.113  61.296  37.688  1.00  0.00     0.121 C 
HETATM   40  N1  UNL     1     112.584  61.174  36.530  1.00  0.00    -0.383 N 
ATOM     41  H12 UNL     1     112.665  60.287  36.035  1.00  0.00     0.158 HD
ATOM     42  H11 UNL     1     112.091  61.971  36.128  1.00  0.00     0.158 HD
BRANCH  39  43
HETATM   43  C2  UNL     1     113.832  60.134  38.275  1.00  0.00     0.157 C 
BRANCH  43  44
HETATM   44  S1  UNL     1     112.946  59.425  39.661  1.00  0.00    -0.166 SA
HETATM   45  C1  UNL     1     113.688  59.829  41.256  1.00  0.00     0.090 C 
ENDBRANCH  43  44
ENDBRANCH  39  43
ENDBRANCH  38  39
ENDBRANCH  33  38
ENDBRANCH  31  32
ENDBRANCH   1  31
BRANCH   2  46
HETATM   46  N2  UNL     1     113.412  66.425  42.670  1.00  0.00    -0.072 N 
ATOM     47  H23 UNL     1     113.813  66.958  41.898  1.00  0.00     0.274 HD
ATOM     48  H22 UNL     1     113.134  67.196  43.277  1.00  0.00     0.274 HD
ATOM     49  H21 UNL     1     114.120  65.845  43.118  1.00  0.00     0.274 HD
ENDBRANCH   2  46
TORSDOF 17
ENDMDL
