MODEL 1
REMARK VINA RESULT: -8.674543908      0.000      0.000
REMARK  13 active torsions:
REMARK  status: ('A' for Active; 'I' for Inactive)
REMARK    1  A    between atoms: C2_3  and  N2_4 
REMARK    2  A    between atoms: C2_3  and  C11_28 
REMARK    3  A    between atoms: N2_4  and  C3_6 
REMARK    4  A    between atoms: C3_6  and  O1_7 
REMARK    5  A    between atoms: C3_6  and  C4_9 
REMARK    6  A    between atoms: C7_14  and  N4_15 
REMARK    7  A    between atoms: N4_15  and  C8_17 
REMARK    8  A    between atoms: C8_17  and  C9_18 
REMARK    9  A    between atoms: C9_18  and  O2_19 
REMARK   10  A    between atoms: C12_32  and  N9_33 
REMARK       I    between atoms: N9_33  and  C13_35 
REMARK   11  A    between atoms: C13_35  and  C14_37 
REMARK   12  A    between atoms: C14_37  and  C15_38 
REMARK   13  A    between atoms: C17_41  and  N10_42 
ROOT
HETATM    1  N1  UNL     1     104.320  56.457  41.284  1.00  0.00    -0.195 NA
HETATM    2  C1  UNL     1     105.159  57.274  41.399  1.00  0.00     0.092 C 
HETATM    3  C2  UNL     1     106.198  58.239  41.552  1.00  0.00     0.256 C 
ENDROOT
BRANCH   3   4
HETATM    4  N2  UNL     1     105.842  59.537  41.159  1.00  0.00    -0.368 N 
ATOM      5  H2  UNL     1     105.669  59.738  40.174  1.00  0.00     0.158 HD
BRANCH   4   6
HETATM    6  C3  UNL     1     105.722  60.568  42.113  1.00  0.00     0.285 C 
BRANCH   6   7
HETATM    7  O1  UNL     1     105.674  61.785  41.361  1.00  0.00    -0.370 OA
ATOM      8  H1  UNL     1     106.400  62.310  41.677  1.00  0.00     0.212 HD
ENDBRANCH   6   7
BRANCH   6   9
HETATM    9  C4  UNL     1     106.942  60.785  42.964  1.00  0.00     0.147 A 
HETATM   10  N3  UNL     1     107.869  61.750  42.824  1.00  0.00    -0.326 N 
HETATM   11  C5  UNL     1     108.801  61.575  43.811  1.00  0.00     0.137 A 
ATOM     12  H3  UNL     1     107.877  62.480  42.112  1.00  0.00     0.169 HD
HETATM   13  C6  UNL     1     109.946  62.264  44.136  1.00  0.00     0.098 A 
HETATM   14  N6  UNL     1     108.445  60.510  44.547  1.00  0.00    -0.187 N 
HETATM   15  C7  UNL     1     110.689  61.823  45.218  1.00  0.00     0.108 A 
HETATM   16  N5  UNL     1     110.306  60.756  45.934  1.00  0.00    -0.293 N 
HETATM   17  C10 UNL     1     109.192  60.096  45.608  1.00  0.00     0.348 A 
ATOM     18  H5  UNL     1     110.866  60.448  46.728  1.00  0.00     0.172 HD
HETATM   19  O3  UNL     1     108.812  59.086  46.268  1.00  0.00    -0.245 OA
HETATM   20  N7  UNL     1     107.323  60.053  44.016  1.00  0.00    -0.273 N 
ATOM     21  H7  UNL     1     106.812  59.243  44.365  1.00  0.00     0.189 HD
BRANCH  15  22
HETATM   22  N4  UNL     1     111.749  62.460  45.520  1.00  0.00    -0.374 N 
ATOM     23  H4  UNL     1     112.492  61.953  46.000  1.00  0.00     0.161 HD
BRANCH  22  24
HETATM   24  C8  UNL     1     111.964  63.851  45.224  1.00  0.00     0.147 C 
BRANCH  24  25
HETATM   25  C9  UNL     1     113.322  64.047  44.578  1.00  0.00     0.183 C 
BRANCH  25  26
HETATM   26  O2  UNL     1     113.888  62.834  44.198  1.00  0.00    -0.399 OA
ATOM     27  H2  UNL     1     114.077  62.812  43.268  1.00  0.00     0.209 HD
ENDBRANCH  25  26
ENDBRANCH  24  25
ENDBRANCH  22  24
ENDBRANCH  15  22
ENDBRANCH   6   9
ENDBRANCH   4   6
ENDBRANCH   3   4
BRANCH   3  28
HETATM   28  C11 UNL     1     107.494  57.771  40.896  1.00  0.00     0.126 A 
HETATM   29  N8  UNL     1     107.446  56.813  39.964  1.00  0.00    -0.310 N 
HETATM   30  S1  UNL     1     109.054  56.607  39.528  1.00  0.00     0.024 SA
ATOM     31  H8  UNL     1     106.627  56.324  39.604  1.00  0.00     0.175 HD
HETATM   32  C12 UNL     1     109.732  57.774  40.574  1.00  0.00     0.169 A 
HETATM   33  N12 UNL     1     108.665  58.258  41.204  1.00  0.00    -0.322 N 
ATOM     34  H12 UNL     1     108.759  58.991  41.908  1.00  0.00     0.169 HD
BRANCH  32  35
HETATM   35  N9  UNL     1     110.988  58.121  40.735  1.00  0.00    -0.306 N 
HETATM   36  C13 UNL     1     111.318  59.085  41.713  1.00  0.00     0.229 C 
HETATM   37  O4  UNL     1     111.054  58.805  42.922  1.00  0.00    -0.273 OA
ATOM     38  H9  UNL     1     111.718  57.699  40.160  1.00  0.00     0.171 HD
BRANCH  36  39
HETATM   39  C14 UNL     1     111.948  60.382  41.386  1.00  0.00     0.160 C 
BRANCH  39  40
HETATM   40  C15 UNL     1     113.464  60.221  41.412  1.00  0.00     0.026 A 
HETATM   41  C16 UNL     1     114.093  59.511  40.422  1.00  0.00     0.078 A 
HETATM   42  S2  UNL     1     115.727  59.613  40.895  1.00  0.00    -0.064 SA
HETATM   43  C17 UNL     1     115.519  60.543  42.310  1.00  0.00     0.142 A 
HETATM   44  N11 UNL     1     114.203  60.733  42.356  1.00  0.00    -0.340 N 
ATOM     45  H11 UNL     1     113.781  61.269  43.114  1.00  0.00     0.168 HD
BRANCH  43  46
HETATM   46  N10 UNL     1     116.420  60.979  43.168  1.00  0.00    -0.380 N 
ATOM     47 2H10 UNL     1     116.454  61.893  43.618  1.00  0.00     0.158 HD
ATOM     48 1H10 UNL     1     117.240  60.505  43.545  1.00  0.00     0.158 HD
ENDBRANCH  43  46
ENDBRANCH  39  40
ENDBRANCH  36  39
ENDBRANCH  32  35
ENDBRANCH   3  28
TORSDOF 13
ENDMDL
MODEL 2
REMARK VINA RESULT: -8.461870383      4.071      8.616
REMARK  13 active torsions:
REMARK  status: ('A' for Active; 'I' for Inactive)
REMARK    1  A    between atoms: C2_3  and  N2_4 
REMARK    2  A    between atoms: C2_3  and  C11_28 
REMARK    3  A    between atoms: N2_4  and  C3_6 
REMARK    4  A    between atoms: C3_6  and  O1_7 
REMARK    5  A    between atoms: C3_6  and  C4_9 
REMARK    6  A    between atoms: C7_14  and  N4_15 
REMARK    7  A    between atoms: N4_15  and  C8_17 
REMARK    8  A    between atoms: C8_17  and  C9_18 
REMARK    9  A    between atoms: C9_18  and  O2_19 
REMARK   10  A    between atoms: C12_32  and  N9_33 
REMARK       I    between atoms: N9_33  and  C13_35 
REMARK   11  A    between atoms: C13_35  and  C14_37 
REMARK   12  A    between atoms: C14_37  and  C15_38 
REMARK   13  A    between atoms: C17_41  and  N10_42 
ROOT
HETATM    1  N1  UNL     1     106.149  61.362  43.150  1.00  0.00    -0.195 NA
HETATM    2  C1  UNL     1     107.313  61.383  42.984  1.00  0.00     0.092 C 
HETATM    3  C2  UNL     1     108.726  61.440  42.798  1.00  0.00     0.256 C 
ENDROOT
BRANCH   3   4
HETATM    4  N2  UNL     1     109.276  60.301  42.194  1.00  0.00    -0.368 N 
ATOM      5  H2  UNL     1     109.904  60.404  41.397  1.00  0.00     0.158 HD
BRANCH   4   6
HETATM    6  C3  UNL     1     108.970  59.014  42.679  1.00  0.00     0.285 C 
BRANCH   6   7
HETATM    7  O1  UNL     1     110.224  58.327  42.768  1.00  0.00    -0.370 OA
ATOM      8  H1  UNL     1     110.190  57.647  42.106  1.00  0.00     0.212 HD
ENDBRANCH   6   7
BRANCH   6   9
HETATM    9  C4  UNL     1     108.214  58.141  41.716  1.00  0.00     0.147 A 
HETATM   10  N3  UNL     1     108.678  57.596  40.576  1.00  0.00    -0.326 N 
HETATM   11  C5  UNL     1     107.657  56.877  40.015  1.00  0.00     0.137 A 
ATOM     12  H3  UNL     1     109.620  57.700  40.198  1.00  0.00     0.169 HD
HETATM   13  C6  UNL     1     107.576  56.128  38.865  1.00  0.00     0.098 A 
HETATM   14  N6  UNL     1     106.578  56.984  40.807  1.00  0.00    -0.187 N 
HETATM   15  C7  UNL     1     106.372  55.511  38.571  1.00  0.00     0.108 A 
HETATM   16  N5  UNL     1     105.312  55.636  39.383  1.00  0.00    -0.293 N 
HETATM   17  C10 UNL     1     105.404  56.367  40.496  1.00  0.00     0.348 A 
ATOM     18  H5  UNL     1     104.434  55.173  39.150  1.00  0.00     0.172 HD
HETATM   19  O3  UNL     1     104.417  56.500  41.277  1.00  0.00    -0.245 OA
HETATM   20  N7  UNL     1     106.940  57.750  41.823  1.00  0.00    -0.273 N 
ATOM     21  H7  UNL     1     106.324  58.009  42.593  1.00  0.00     0.189 HD
BRANCH  15  22
HETATM   22  N4  UNL     1     106.295  54.817  37.507  1.00  0.00    -0.374 N 
ATOM     23  H4  UNL     1     105.423  54.843  36.980  1.00  0.00     0.161 HD
BRANCH  22  24
HETATM   24  C8  UNL     1     107.364  53.999  37.000  1.00  0.00     0.147 C 
BRANCH  24  25
HETATM   25  C9  UNL     1     106.912  52.557  36.884  1.00  0.00     0.183 C 
BRANCH  25  26
HETATM   26  O2  UNL     1     106.170  52.161  37.994  1.00  0.00    -0.399 OA
ATOM     27  H2  UNL     1     106.549  51.399  38.415  1.00  0.00     0.209 HD
ENDBRANCH  25  26
ENDBRANCH  24  25
ENDBRANCH  22  24
ENDBRANCH  15  22
ENDBRANCH   6   9
ENDBRANCH   4   6
ENDBRANCH   3   4
BRANCH   3  28
HETATM   28  C11 UNL     1     109.444  61.812  44.094  1.00  0.00     0.126 A 
HETATM   29  N8  UNL     1     110.337  62.807  44.083  1.00  0.00    -0.310 N 
HETATM   30  S1  UNL     1     110.874  62.870  45.672  1.00  0.00     0.024 SA
ATOM     31  H8  UNL     1     110.623  63.390  43.297  1.00  0.00     0.175 HD
HETATM   32  C12 UNL     1     109.919  61.599  46.294  1.00  0.00     0.169 A 
HETATM   33  N12 UNL     1     109.235  61.198  45.226  1.00  0.00    -0.322 N 
ATOM     34  H12 UNL     1     108.565  60.431  45.289  1.00  0.00     0.169 HD
BRANCH  32  35
HETATM   35  N9  UNL     1     109.861  61.118  47.514  1.00  0.00    -0.306 N 
HETATM   36  C13 UNL     1     109.160  59.915  47.750  1.00  0.00     0.229 C 
HETATM   37  O4  UNL     1     109.582  58.870  47.167  1.00  0.00    -0.273 OA
ATOM     38  H9  UNL     1     110.317  61.609  48.284  1.00  0.00     0.171 HD
BRANCH  36  39
HETATM   39  C14 UNL     1     107.978  59.831  48.633  1.00  0.00     0.160 C 
BRANCH  39  40
HETATM   40  C15 UNL     1     107.661  58.364  48.904  1.00  0.00     0.026 A 
HETATM   41  C16 UNL     1     108.041  57.790  50.090  1.00  0.00     0.078 A 
HETATM   42  S2  UNL     1     107.483  56.190  49.906  1.00  0.00    -0.064 SA
HETATM   43  C17 UNL     1     106.804  56.341  48.349  1.00  0.00     0.142 A 
HETATM   44  N11 UNL     1     107.037  57.614  48.039  1.00  0.00    -0.340 N 
ATOM     45  H11 UNL     1     106.734  57.996  47.143  1.00  0.00     0.168 HD
BRANCH  43  46
HETATM   46  N10 UNL     1     106.193  55.438  47.608  1.00  0.00    -0.380 N 
ATOM     47 2H10 UNL     1     106.622  54.777  46.961  1.00  0.00     0.158 HD
ATOM     48 1H10 UNL     1     105.200  55.222  47.535  1.00  0.00     0.158 HD
ENDBRANCH  43  46
ENDBRANCH  39  40
ENDBRANCH  36  39
ENDBRANCH  32  35
ENDBRANCH   3  28
TORSDOF 13
ENDMDL
MODEL 3
REMARK VINA RESULT: -8.415565303      4.267      7.249
REMARK  13 active torsions:
REMARK  status: ('A' for Active; 'I' for Inactive)
REMARK    1  A    between atoms: C2_3  and  N2_4 
REMARK    2  A    between atoms: C2_3  and  C11_28 
REMARK    3  A    between atoms: N2_4  and  C3_6 
REMARK    4  A    between atoms: C3_6  and  O1_7 
REMARK    5  A    between atoms: C3_6  and  C4_9 
REMARK    6  A    between atoms: C7_14  and  N4_15 
REMARK    7  A    between atoms: N4_15  and  C8_17 
REMARK    8  A    between atoms: C8_17  and  C9_18 
REMARK    9  A    between atoms: C9_18  and  O2_19 
REMARK   10  A    between atoms: C12_32  and  N9_33 
REMARK       I    between atoms: N9_33  and  C13_35 
REMARK   11  A    between atoms: C13_35  and  C14_37 
REMARK   12  A    between atoms: C14_37  and  C15_38 
REMARK   13  A    between atoms: C17_41  and  N10_42 
ROOT
HETATM    1  N1  UNL     1     107.288  62.191  43.894  1.00  0.00    -0.195 NA
HETATM    2  C1  UNL     1     108.458  62.074  43.918  1.00  0.00     0.092 C 
HETATM    3  C2  UNL     1     109.873  61.901  43.956  1.00  0.00     0.256 C 
ENDROOT
BRANCH   3   4
HETATM    4  N2  UNL     1     110.606  63.051  43.630  1.00  0.00    -0.368 N 
ATOM      5  H2  UNL     1     111.503  63.224  44.083  1.00  0.00     0.158 HD
BRANCH   4   6
HETATM    6  C3  UNL     1     110.114  63.969  42.681  1.00  0.00     0.285 C 
BRANCH   6   7
HETATM    7  O1  UNL     1     110.445  63.417  41.402  1.00  0.00    -0.370 OA
ATOM      8  H1  UNL     1     109.618  63.316  40.945  1.00  0.00     0.212 HD
ENDBRANCH   6   7
BRANCH   6   9
HETATM    9  C4  UNL     1     110.842  65.284  42.642  1.00  0.00     0.147 A 
HETATM   10  N3  UNL     1     112.156  65.480  42.426  1.00  0.00    -0.326 N 
HETATM   11  C5  UNL     1     112.387  66.828  42.473  1.00  0.00     0.137 A 
ATOM     12  H3  UNL     1     112.854  64.755  42.258  1.00  0.00     0.169 HD
HETATM   13  C6  UNL     1     113.531  67.577  42.322  1.00  0.00     0.098 A 
HETATM   14  N6  UNL     1     111.223  67.450  42.717  1.00  0.00    -0.187 N 
HETATM   15  C7  UNL     1     113.429  68.954  42.430  1.00  0.00     0.108 A 
HETATM   16  N5  UNL     1     112.250  69.545  42.673  1.00  0.00    -0.293 N 
HETATM   17  C10 UNL     1     111.148  68.806  42.818  1.00  0.00     0.348 A 
ATOM     18  H5  UNL     1     112.196  70.560  42.747  1.00  0.00     0.172 HD
HETATM   19  O3  UNL     1     110.025  69.342  43.049  1.00  0.00    -0.245 OA
HETATM   20  N7  UNL     1     110.309  66.498  42.814  1.00  0.00    -0.273 N 
ATOM     21  H7  UNL     1     109.321  66.669  42.997  1.00  0.00     0.189 HD
BRANCH  15  22
HETATM   22  N4  UNL     1     114.486  69.648  42.290  1.00  0.00    -0.374 N 
ATOM     23  H4  UNL     1     114.422  70.518  41.763  1.00  0.00     0.161 HD
BRANCH  22  24
HETATM   24  C8  UNL     1     115.768  69.280  42.830  1.00  0.00     0.147 C 
BRANCH  24  25
HETATM   25  C9  UNL     1     116.768  69.067  41.711  1.00  0.00     0.183 C 
BRANCH  25  26
HETATM   26  O2  UNL     1     117.131  67.728  41.597  1.00  0.00    -0.399 OA
ATOM     27  H2  UNL     1     118.055  67.632  41.398  1.00  0.00     0.209 HD
ENDBRANCH  25  26
ENDBRANCH  24  25
ENDBRANCH  22  24
ENDBRANCH  15  22
ENDBRANCH   6   9
ENDBRANCH   4   6
ENDBRANCH   3   4
BRANCH   3  28
HETATM   28  C11 UNL     1     110.307  60.687  43.138  1.00  0.00     0.126 A 
HETATM   29  N8  UNL     1     111.555  60.634  42.659  1.00  0.00    -0.310 N 
HETATM   30  S1  UNL     1     111.599  59.171  41.837  1.00  0.00     0.024 SA
ATOM     31  H8  UNL     1     112.302  61.319  42.768  1.00  0.00     0.175 HD
HETATM   32  C12 UNL     1     109.993  58.681  42.144  1.00  0.00     0.169 A 
HETATM   33  N12 UNL     1     109.514  59.686  42.871  1.00  0.00    -0.322 N 
ATOM     34  H12 UNL     1     108.552  59.676  43.211  1.00  0.00     0.169 HD
BRANCH  32  35
HETATM   35  N9  UNL     1     109.366  57.591  41.764  1.00  0.00    -0.306 N 
HETATM   36  C13 UNL     1     108.573  57.622  40.597  1.00  0.00     0.229 C 
HETATM   37  O4  UNL     1     109.157  57.882  39.500  1.00  0.00    -0.273 OA
ATOM     38  H9  UNL     1     109.451  56.731  42.307  1.00  0.00     0.171 HD
BRANCH  36  39
HETATM   39  C14 UNL     1     107.116  57.367  40.604  1.00  0.00     0.160 C 
BRANCH  39  40
HETATM   40  C15 UNL     1     106.824  56.123  39.772  1.00  0.00     0.026 A 
HETATM   41  C16 UNL     1     105.551  55.618  39.721  1.00  0.00     0.078 A 
HETATM   42  S2  UNL     1     105.744  54.267  38.700  1.00  0.00    -0.064 SA
HETATM   43  C17 UNL     1     107.416  54.420  38.399  1.00  0.00     0.142 A 
HETATM   44  N11 UNL     1     107.751  55.503  39.097  1.00  0.00    -0.340 N 
ATOM     45  H11 UNL     1     108.713  55.840  39.103  1.00  0.00     0.168 HD
BRANCH  43  46
HETATM   46  N10 UNL     1     108.208  53.667  37.663  1.00  0.00    -0.380 N 
ATOM     47 2H10 UNL     1     108.452  52.689  37.819  1.00  0.00     0.158 HD
ATOM     48 1H10 UNL     1     108.722  53.901  36.814  1.00  0.00     0.158 HD
ENDBRANCH  43  46
ENDBRANCH  39  40
ENDBRANCH  36  39
ENDBRANCH  32  35
ENDBRANCH   3  28
TORSDOF 13
ENDMDL
MODEL 4
REMARK VINA RESULT: -8.375092501      4.392      7.725
REMARK  13 active torsions:
REMARK  status: ('A' for Active; 'I' for Inactive)
REMARK    1  A    between atoms: C2_3  and  N2_4 
REMARK    2  A    between atoms: C2_3  and  C11_28 
REMARK    3  A    between atoms: N2_4  and  C3_6 
REMARK    4  A    between atoms: C3_6  and  O1_7 
REMARK    5  A    between atoms: C3_6  and  C4_9 
REMARK    6  A    between atoms: C7_14  and  N4_15 
REMARK    7  A    between atoms: N4_15  and  C8_17 
REMARK    8  A    between atoms: C8_17  and  C9_18 
REMARK    9  A    between atoms: C9_18  and  O2_19 
REMARK   10  A    between atoms: C12_32  and  N9_33 
REMARK       I    between atoms: N9_33  and  C13_35 
REMARK   11  A    between atoms: C13_35  and  C14_37 
REMARK   12  A    between atoms: C14_37  and  C15_38 
REMARK   13  A    between atoms: C17_41  and  N10_42 
ROOT
HETATM    1  N1  UNL     1     113.099  61.725  42.021  1.00  0.00    -0.195 NA
HETATM    2  C1  UNL     1     112.015  62.012  42.376  1.00  0.00     0.092 C 
HETATM    3  C2  UNL     1     110.688  62.330  42.792  1.00  0.00     0.256 C 
ENDROOT
BRANCH   3   4
HETATM    4  N2  UNL     1     110.574  63.548  43.477  1.00  0.00    -0.368 N 
ATOM      5  H2  UNL     1     110.885  63.614  44.447  1.00  0.00     0.158 HD
BRANCH   4   6
HETATM    6  C3  UNL     1     110.036  64.683  42.839  1.00  0.00     0.285 C 
BRANCH   6   7
HETATM    7  O1  UNL     1     109.892  64.318  41.461  1.00  0.00    -0.370 OA
ATOM      8  H1  UNL     1     109.682  63.392  41.462  1.00  0.00     0.212 HD
ENDBRANCH   6   7
BRANCH   6   9
HETATM    9  C4  UNL     1     110.970  65.857  42.746  1.00  0.00     0.147 A 
HETATM   10  N3  UNL     1     112.234  65.856  42.284  1.00  0.00    -0.326 N 
HETATM   11  C5  UNL     1     112.711  67.135  42.379  1.00  0.00     0.137 A 
ATOM     12  H3  UNL     1     112.744  65.048  41.927  1.00  0.00     0.169 HD
HETATM   13  C6  UNL     1     113.923  67.697  42.053  1.00  0.00     0.098 A 
HETATM   14  N6  UNL     1     111.745  67.911  42.896  1.00  0.00    -0.187 N 
HETATM   15  C7  UNL     1     114.095  69.053  42.276  1.00  0.00     0.108 A 
HETATM   16  N5  UNL     1     113.110  69.801  42.794  1.00  0.00    -0.293 N 
HETATM   17  C10 UNL     1     111.939  69.243  43.106  1.00  0.00     0.348 A 
ATOM     18  H5  UNL     1     113.256  70.798  42.950  1.00  0.00     0.172 HD
HETATM   19  O3  UNL     1     110.995  69.929  43.596  1.00  0.00    -0.245 OA
HETATM   20  N7  UNL     1     110.708  67.117  43.108  1.00  0.00    -0.273 N 
ATOM     21  H7  UNL     1     109.819  67.428  43.499  1.00  0.00     0.189 HD
BRANCH  15  22
HETATM   22  N4  UNL     1     115.216  69.575  41.976  1.00  0.00    -0.374 N 
ATOM     23  H4  UNL     1     115.227  70.317  41.277  1.00  0.00     0.161 HD
BRANCH  22  24
HETATM   24  C8  UNL     1     116.470  69.181  42.560  1.00  0.00     0.147 C 
BRANCH  24  25
HETATM   25  C9  UNL     1     117.432  68.722  41.481  1.00  0.00     0.183 C 
BRANCH  25  26
HETATM   26  O2  UNL     1     117.567  67.337  41.471  1.00  0.00    -0.399 OA
ATOM     27  H2  UNL     1     118.471  67.073  41.595  1.00  0.00     0.209 HD
ENDBRANCH  25  26
ENDBRANCH  24  25
ENDBRANCH  22  24
ENDBRANCH  15  22
ENDBRANCH   6   9
ENDBRANCH   4   6
ENDBRANCH   3   4
BRANCH   3  28
HETATM   28  C11 UNL     1     110.053  61.173  43.559  1.00  0.00     0.126 A 
HETATM   29  N8  UNL     1     110.362  60.996  44.848  1.00  0.00    -0.310 N 
HETATM   30  S1  UNL     1     109.469  59.643  45.284  1.00  0.00     0.024 SA
ATOM     31  H8  UNL     1     110.992  61.550  45.428  1.00  0.00     0.175 HD
HETATM   32  C12 UNL     1     108.725  59.356  43.774  1.00  0.00     0.169 A 
HETATM   33  N12 UNL     1     109.216  60.333  43.016  1.00  0.00    -0.322 N 
ATOM     34  H12 UNL     1     108.945  60.422  42.036  1.00  0.00     0.169 HD
BRANCH  32  35
HETATM   35  N9  UNL     1     107.880  58.414  43.426  1.00  0.00    -0.306 N 
HETATM   36  C13 UNL     1     107.750  58.073  42.062  1.00  0.00     0.229 C 
HETATM   37  O4  UNL     1     108.778  57.617  41.473  1.00  0.00    -0.273 OA
ATOM     38  H9  UNL     1     107.323  57.933  44.133  1.00  0.00     0.171 HD
BRANCH  36  39
HETATM   39  C14 UNL     1     106.486  58.223  41.310  1.00  0.00     0.160 C 
BRANCH  39  40
HETATM   40  C15 UNL     1     106.204  56.935  40.546  1.00  0.00     0.026 A 
HETATM   41  C16 UNL     1     105.078  56.205  40.827  1.00  0.00     0.078 A 
HETATM   42  S2  UNL     1     105.222  54.896  39.745  1.00  0.00    -0.064 SA
HETATM   43  C17 UNL     1     106.690  55.348  39.003  1.00  0.00     0.142 A 
HETATM   44  N11 UNL     1     107.004  56.484  39.621  1.00  0.00    -0.340 N 
ATOM     45  H11 UNL     1     107.854  56.992  39.376  1.00  0.00     0.168 HD
BRANCH  43  46
HETATM   46  N10 UNL     1     107.371  54.741  38.052  1.00  0.00    -0.380 N 
ATOM     47 2H10 UNL     1     107.520  53.738  37.941  1.00  0.00     0.158 HD
ATOM     48 1H10 UNL     1     107.872  55.138  37.257  1.00  0.00     0.158 HD
ENDBRANCH  43  46
ENDBRANCH  39  40
ENDBRANCH  36  39
ENDBRANCH  32  35
ENDBRANCH   3  28
TORSDOF 13
ENDMDL
MODEL 5
REMARK VINA RESULT: -8.233504874      4.024      6.075
REMARK  13 active torsions:
REMARK  status: ('A' for Active; 'I' for Inactive)
REMARK    1  A    between atoms: C2_3  and  N2_4 
REMARK    2  A    between atoms: C2_3  and  C11_28 
REMARK    3  A    between atoms: N2_4  and  C3_6 
REMARK    4  A    between atoms: C3_6  and  O1_7 
REMARK    5  A    between atoms: C3_6  and  C4_9 
REMARK    6  A    between atoms: C7_14  and  N4_15 
REMARK    7  A    between atoms: N4_15  and  C8_17 
REMARK    8  A    between atoms: C8_17  and  C9_18 
REMARK    9  A    between atoms: C9_18  and  O2_19 
REMARK   10  A    between atoms: C12_32  and  N9_33 
REMARK       I    between atoms: N9_33  and  C13_35 
REMARK   11  A    between atoms: C13_35  and  C14_37 
REMARK   12  A    between atoms: C14_37  and  C15_38 
REMARK   13  A    between atoms: C17_41  and  N10_42 
ROOT
HETATM    1  N1  UNL     1     109.264  61.794  47.054  1.00  0.00    -0.195 NA
HETATM    2  C1  UNL     1     109.487  61.985  45.915  1.00  0.00     0.092 C 
HETATM    3  C2  UNL     1     109.759  62.181  44.528  1.00  0.00     0.256 C 
ENDROOT
BRANCH   3   4
HETATM    4  N2  UNL     1     109.823  63.526  44.137  1.00  0.00    -0.368 N 
ATOM      5  H2  UNL     1     109.586  64.259  44.805  1.00  0.00     0.158 HD
BRANCH   4   6
HETATM    6  C3  UNL     1     110.212  63.874  42.828  1.00  0.00     0.285 C 
BRANCH   6   7
HETATM    7  O1  UNL     1     111.238  62.941  42.470  1.00  0.00    -0.370 OA
ATOM      8  H1  UNL     1     111.272  62.951  41.520  1.00  0.00     0.212 HD
ENDBRANCH   6   7
BRANCH   6   9
HETATM    9  C4  UNL     1     110.941  65.185  42.715  1.00  0.00     0.147 A 
HETATM   10  N3  UNL     1     112.246  65.368  42.443  1.00  0.00    -0.326 N 
HETATM   11  C5  UNL     1     112.481  66.716  42.435  1.00  0.00     0.137 A 
ATOM     12  H3  UNL     1     112.935  64.636  42.273  1.00  0.00     0.169 HD
HETATM   13  C6  UNL     1     113.620  67.455  42.214  1.00  0.00     0.098 A 
HETATM   14  N6  UNL     1     111.328  67.350  42.701  1.00  0.00    -0.187 N 
HETATM   15  C7  UNL     1     113.525  68.836  42.278  1.00  0.00     0.108 A 
HETATM   16  N5  UNL     1     112.358  69.439  42.545  1.00  0.00    -0.293 N 
HETATM   17  C10 UNL     1     111.260  68.709  42.758  1.00  0.00     0.348 A 
ATOM     18  H5  UNL     1     112.308  70.457  42.587  1.00  0.00     0.172 HD
HETATM   19  O3  UNL     1     110.148  69.257  43.013  1.00  0.00    -0.245 OA
HETATM   20  N7  UNL     1     110.417  66.406  42.866  1.00  0.00    -0.273 N 
ATOM     21  H7  UNL     1     109.437  66.586  43.081  1.00  0.00     0.189 HD
BRANCH  15  22
HETATM   22  N4  UNL     1     114.578  69.521  42.074  1.00  0.00    -0.374 N 
ATOM     23  H4  UNL     1     114.512  70.327  41.454  1.00  0.00     0.161 HD
BRANCH  22  24
HETATM   24  C8  UNL     1     115.856  69.229  42.666  1.00  0.00     0.147 C 
BRANCH  24  25
HETATM   25  C9  UNL     1     116.881  68.942  41.587  1.00  0.00     0.183 C 
BRANCH  25  26
HETATM   26  O2  UNL     1     117.241  67.598  41.567  1.00  0.00    -0.399 OA
ATOM     27  H2  UNL     1     116.864  67.145  40.822  1.00  0.00     0.209 HD
ENDBRANCH  25  26
ENDBRANCH  24  25
ENDBRANCH  22  24
ENDBRANCH  15  22
ENDBRANCH   6   9
ENDBRANCH   4   6
ENDBRANCH   3   4
BRANCH   3  28
HETATM   28  C11 UNL     1     108.807  61.368  43.653  1.00  0.00     0.126 A 
HETATM   29  N8  UNL     1     107.521  61.726  43.581  1.00  0.00    -0.310 N 
HETATM   30  S1  UNL     1     106.854  60.587  42.544  1.00  0.00     0.024 SA
ATOM     31  H8  UNL     1     107.055  62.505  44.046  1.00  0.00     0.175 HD
HETATM   32  C12 UNL     1     108.272  59.686  42.241  1.00  0.00     0.169 A 
HETATM   33  N12 UNL     1     109.185  60.325  42.967  1.00  0.00    -0.322 N 
ATOM     34  H12 UNL     1     110.155  60.009  42.986  1.00  0.00     0.169 HD
BRANCH  32  35
HETATM   35  N9  UNL     1     108.441  58.624  41.488  1.00  0.00    -0.306 N 
HETATM   36  C13 UNL     1     109.728  58.051  41.382  1.00  0.00     0.229 C 
HETATM   37  O4  UNL     1     110.256  57.601  42.445  1.00  0.00    -0.273 OA
ATOM     38  H9  UNL     1     107.652  58.217  40.985  1.00  0.00     0.171 HD
BRANCH  36  39
HETATM   39  C14 UNL     1     110.465  57.955  40.105  1.00  0.00     0.160 C 
BRANCH  39  40
HETATM   40  C15 UNL     1     111.623  58.946  40.122  1.00  0.00     0.026 A 
HETATM   41  C16 UNL     1     112.201  59.344  38.944  1.00  0.00     0.078 A 
HETATM   42  S2  UNL     1     113.413  60.413  39.485  1.00  0.00    -0.064 SA
HETATM   43  C17 UNL     1     113.119  60.295  41.161  1.00  0.00     0.142 A 
HETATM   44  N11 UNL     1     112.102  59.439  41.230  1.00  0.00    -0.340 N 
ATOM     45  H11 UNL     1     111.706  59.173  42.132  1.00  0.00     0.168 HD
BRANCH  43  46
HETATM   46  N10 UNL     1     113.732  60.890  42.165  1.00  0.00    -0.380 N 
ATOM     47 2H10 UNL     1     113.759  61.890  42.367  1.00  0.00     0.158 HD
ATOM     48 1H10 UNL     1     114.284  60.486  42.920  1.00  0.00     0.158 HD
ENDBRANCH  43  46
ENDBRANCH  39  40
ENDBRANCH  36  39
ENDBRANCH  32  35
ENDBRANCH   3  28
TORSDOF 13
ENDMDL
