MODEL 1
REMARK VINA RESULT: -10.458253957      0.000      0.000
REMARK  13 active torsions:
REMARK  status: ('A' for Active; 'I' for Inactive)
REMARK       I    between atoms: C2_2  and  N1_4 
REMARK       I    between atoms: N1_4  and  C3_6 
REMARK       I    between atoms: C3_6  and  N2_8 
REMARK    1  A    between atoms: C5_13  and  C6_14 
REMARK    2  A    between atoms: C6_14  and  N4_15 
REMARK    3  A    between atoms: C6_14  and  C16_34 
REMARK    4  A    between atoms: N4_15  and  C7_17 
REMARK    5  A    between atoms: C7_17  and  O3_18 
REMARK    6  A    between atoms: C7_17  and  C8_20 
REMARK    7  A    between atoms: C8_20  and  O4_21 
REMARK    8  A    between atoms: O4_21  and  C9_22 
REMARK    9  A    between atoms: C9_22  and  C10_24 
REMARK   10  A    between atoms: C13_27  and  O6_28 
REMARK   11  A    between atoms: C14_30  and  O7_31 
REMARK   12  A    between atoms: C16_34  and  C17_36 
REMARK   13  A    between atoms: C17_36  and  C18_40 
ROOT
HETATM    1  C18 UNL     1     108.728  59.308  48.442  1.00  0.00     0.280 C 
HETATM    2  O9  UNL     1     109.530  60.236  48.692  1.00  0.00    -0.274 OA
HETATM    3  C19 UNL     1     108.203  58.491  49.488  1.00  0.00     0.145 C 
HETATM    4  N6  UNL     1     107.773  57.837  50.359  1.00  0.00    -0.188 NA
ENDROOT
BRANCH   1   5
HETATM    5  C17 UNL     1     108.330  59.065  47.080  1.00  0.00     0.136 C 
HETATM    6  N5  UNL     1     107.263  58.370  46.832  1.00  0.00    -0.392 N 
ATOM      7  H52 UNL     1     106.981  58.198  45.867  1.00  0.00     0.156 HD
ATOM      8  H51 UNL     1     106.696  57.990  47.589  1.00  0.00     0.156 HD
BRANCH   5   9
HETATM    9  C16 UNL     1     109.151  59.615  45.984  1.00  0.00     0.208 C 
HETATM   10  O8  UNL     1     110.275  59.065  45.761  1.00  0.00    -0.288 OA
BRANCH   9  11
HETATM   11  C6  UNL     1     108.751  60.751  45.150  1.00  0.00     0.207 C 
BRANCH  11  12
HETATM   12  C5  UNL     1     108.099  60.310  43.882  1.00  0.00     0.062 A 
HETATM   13  N3  UNL     1     108.166  59.078  43.382  1.00  0.00    -0.192 N 
HETATM   14  C4  UNL     1     107.534  58.727  42.222  1.00  0.00     0.689 A 
ATOM     15  H3  UNL     1     108.708  58.372  43.880  1.00  0.00     0.184 HD
HETATM   16  N2  UNL     1     107.658  57.506  41.824  1.00  0.00    -0.141 N 
HETATM   17  N7  UNL     1     106.838  59.655  41.592  1.00  0.00    -0.156 N 
HETATM   18  C3  UNL     1     107.055  57.014  40.643  1.00  0.00     0.341 C 
ATOM     19  H2  UNL     1     108.218  56.865  42.387  1.00  0.00     0.189 HD
HETATM   20  N1  UNL     1     105.949  56.142  40.729  1.00  0.00    -0.279 N 
HETATM   21  O2  UNL     1     107.493  57.342  39.523  1.00  0.00    -0.246 OA
HETATM   22  C2  UNL     1     105.288  55.602  39.596  1.00  0.00     0.221 C 
ATOM     23  H1  UNL     1     105.607  55.887  41.655  1.00  0.00     0.173 HD
HETATM   24  C1  UNL     1     105.694  55.898  38.197  1.00  0.00     0.117 C 
HETATM   25  O1  UNL     1     104.299  54.827  39.763  1.00  0.00    -0.274 OA
HETATM   26  C21 UNL     1     106.702  60.931  42.003  1.00  0.00     0.261 A 
ATOM     27  H7  UNL     1     106.369  59.386  40.727  1.00  0.00     0.187 HD
HETATM   28  C20 UNL     1     107.349  61.262  43.176  1.00  0.00     0.103 A 
HETATM   29  O10 UNL     1     106.029  61.772  41.364  1.00  0.00    -0.268 OA
ENDBRANCH  11  12
BRANCH  11  30
HETATM   30  N4  UNL     1     109.879  61.541  44.744  1.00  0.00    -0.379 N 
ATOM     31  H4  UNL     1     110.376  61.343  43.876  1.00  0.00     0.157 HD
BRANCH  30  32
HETATM   32  C7  UNL     1     110.274  62.597  45.588  1.00  0.00     0.238 C 
BRANCH  32  33
HETATM   33  O3  UNL     1     110.587  62.011  46.842  1.00  0.00    -0.375 OA
ATOM     34  H3  UNL     1     111.483  62.259  47.037  1.00  0.00     0.212 HD
ENDBRANCH  32  33
BRANCH  32  35
HETATM   35  C8  UNL     1     111.495  63.354  45.104  1.00  0.00     0.232 C 
BRANCH  35  36
HETATM   36  O4  UNL     1     111.522  63.474  43.708  1.00  0.00    -0.313 OA
BRANCH  36  37
HETATM   37  C9  UNL     1     110.764  64.315  42.952  1.00  0.00     0.293 C 
HETATM   38  O5  UNL     1     109.709  63.886  42.452  1.00  0.00    -0.259 OA
BRANCH  37  39
HETATM   39  C10 UNL     1     111.234  65.694  42.763  1.00  0.00     0.042 A 
HETATM   40  C11 UNL     1     112.515  65.966  42.330  1.00  0.00     0.020 A 
HETATM   41  C12 UNL     1     112.978  67.255  42.150  1.00  0.00     0.040 A 
HETATM   42  C13 UNL     1     112.160  68.339  42.401  1.00  0.00     0.098 A 
HETATM   43  C14 UNL     1     110.879  68.068  42.833  1.00  0.00     0.099 A 
HETATM   44  C15 UNL     1     110.415  66.774  43.015  1.00  0.00     0.057 A 
BRANCH  42  45
HETATM   45  O6  UNL     1     112.614  69.644  42.223  1.00  0.00    -0.358 OA
ATOM     46  H6  UNL     1     113.451  69.927  42.571  1.00  0.00     0.217 HD
ENDBRANCH  42  45
BRANCH  43  47
HETATM   47  O7  UNL     1     110.035  69.128  43.093  1.00  0.00    -0.358 OA
ATOM     48  H7  UNL     1     109.391  69.033  43.785  1.00  0.00     0.217 HD
ENDBRANCH  43  47
ENDBRANCH  37  39
ENDBRANCH  36  37
ENDBRANCH  35  36
ENDBRANCH  32  35
ENDBRANCH  30  32
ENDBRANCH  11  30
ENDBRANCH   9  11
ENDBRANCH   5   9
ENDBRANCH   1   5
TORSDOF 13
ENDMDL
MODEL 2
REMARK VINA RESULT: -10.292320821      4.189      6.331
REMARK  13 active torsions:
REMARK  status: ('A' for Active; 'I' for Inactive)
REMARK       I    between atoms: C2_2  and  N1_4 
REMARK       I    between atoms: N1_4  and  C3_6 
REMARK       I    between atoms: C3_6  and  N2_8 
REMARK    1  A    between atoms: C5_13  and  C6_14 
REMARK    2  A    between atoms: C6_14  and  N4_15 
REMARK    3  A    between atoms: C6_14  and  C16_34 
REMARK    4  A    between atoms: N4_15  and  C7_17 
REMARK    5  A    between atoms: C7_17  and  O3_18 
REMARK    6  A    between atoms: C7_17  and  C8_20 
REMARK    7  A    between atoms: C8_20  and  O4_21 
REMARK    8  A    between atoms: O4_21  and  C9_22 
REMARK    9  A    between atoms: C9_22  and  C10_24 
REMARK   10  A    between atoms: C13_27  and  O6_28 
REMARK   11  A    between atoms: C14_30  and  O7_31 
REMARK   12  A    between atoms: C16_34  and  C17_36 
REMARK   13  A    between atoms: C17_36  and  C18_40 
ROOT
HETATM    1  C18 UNL     1     107.338  61.261  43.168  1.00  0.00     0.280 C 
HETATM    2  O9  UNL     1     107.298  62.120  44.078  1.00  0.00    -0.274 OA
HETATM    3  C19 UNL     1     106.439  61.322  42.061  1.00  0.00     0.145 C 
HETATM    4  N6  UNL     1     105.702  61.393  41.154  1.00  0.00    -0.188 NA
ENDROOT
BRANCH   1   5
HETATM    5  C17 UNL     1     108.307  60.199  43.242  1.00  0.00     0.136 C 
HETATM    6  N5  UNL     1     108.069  59.156  43.975  1.00  0.00    -0.392 N 
ATOM      7  H52 UNL     1     108.755  58.403  44.028  1.00  0.00     0.156 HD
ATOM      8  H51 UNL     1     107.201  59.072  44.504  1.00  0.00     0.156 HD
BRANCH   5   9
HETATM    9  C16 UNL     1     109.564  60.319  42.478  1.00  0.00     0.208 C 
HETATM   10  O8  UNL     1     109.846  59.386  41.662  1.00  0.00    -0.288 OA
BRANCH   9  11
HETATM   11  C6  UNL     1     110.498  61.440  42.608  1.00  0.00     0.207 C 
BRANCH  11  12
HETATM   12  C5  UNL     1     111.557  61.410  41.557  1.00  0.00     0.062 A 
HETATM   13  N3  UNL     1     111.383  61.788  40.292  1.00  0.00    -0.192 N 
HETATM   14  C4  UNL     1     112.397  61.754  39.376  1.00  0.00     0.689 A 
ATOM     15  H3  UNL     1     110.464  62.114  39.997  1.00  0.00     0.184 HD
HETATM   16  N2  UNL     1     112.126  62.145  38.176  1.00  0.00    -0.141 N 
HETATM   17  N7  UNL     1     113.580  61.328  39.778  1.00  0.00    -0.156 N 
HETATM   18  C3  UNL     1     113.083  62.160  37.135  1.00  0.00     0.341 C 
ATOM     19  H2  UNL     1     111.178  62.459  37.969  1.00  0.00     0.189 HD
HETATM   20  N1  UNL     1     113.603  63.388  36.675  1.00  0.00    -0.279 N 
HETATM   21  O2  UNL     1     113.474  61.095  36.617  1.00  0.00    -0.246 OA
HETATM   22  C2  UNL     1     114.562  63.492  35.635  1.00  0.00     0.221 C 
ATOM     23  H1  UNL     1     113.271  64.247  37.113  1.00  0.00     0.173 HD
HETATM   24  C1  UNL     1     115.120  62.315  34.919  1.00  0.00     0.117 C 
HETATM   25  O1  UNL     1     114.978  64.637  35.284  1.00  0.00    -0.274 OA
HETATM   26  C21 UNL     1     113.870  60.921  41.029  1.00  0.00     0.261 A 
ATOM     27  H7  UNL     1     114.332  61.305  39.089  1.00  0.00     0.187 HD
HETATM   28  C20 UNL     1     112.832  60.964  41.937  1.00  0.00     0.103 A 
HETATM   29  O10 UNL     1     115.012  60.524  41.356  1.00  0.00    -0.268 OA
ENDBRANCH  11  12
BRANCH  11  30
HETATM   30  N4  UNL     1     111.202  61.408  43.858  1.00  0.00    -0.379 N 
ATOM     31  H4  UNL     1     111.820  60.632  44.097  1.00  0.00     0.157 HD
BRANCH  30  32
HETATM   32  C7  UNL     1     111.008  62.486  44.745  1.00  0.00     0.238 C 
BRANCH  32  33
HETATM   33  O3  UNL     1     112.181  62.564  45.541  1.00  0.00    -0.375 OA
ATOM     34  H3  UNL     1     111.891  62.746  46.427  1.00  0.00     0.212 HD
ENDBRANCH  32  33
BRANCH  32  35
HETATM   35  C8  UNL     1     110.813  63.824  44.061  1.00  0.00     0.232 C 
BRANCH  35  36
HETATM   36  O4  UNL     1     112.019  64.350  43.576  1.00  0.00    -0.313 OA
BRANCH  36  37
HETATM   37  C9  UNL     1     112.170  65.186  42.513  1.00  0.00     0.293 C 
HETATM   38  O5  UNL     1     112.513  64.707  41.417  1.00  0.00    -0.259 OA
BRANCH  37  39
HETATM   39  C10 UNL     1     111.919  66.619  42.714  1.00  0.00     0.042 A 
HETATM   40  C11 UNL     1     110.706  67.080  43.180  1.00  0.00     0.020 A 
HETATM   41  C12 UNL     1     110.448  68.422  43.373  1.00  0.00     0.040 A 
HETATM   42  C13 UNL     1     111.413  69.372  43.103  1.00  0.00     0.098 A 
HETATM   43  C14 UNL     1     112.627  68.912  42.637  1.00  0.00     0.099 A 
HETATM   44  C15 UNL     1     112.885  67.564  42.443  1.00  0.00     0.057 A 
BRANCH  42  45
HETATM   45  O6  UNL     1     111.167  70.729  43.293  1.00  0.00    -0.358 OA
ATOM     46  H6  UNL     1     110.534  71.196  42.760  1.00  0.00     0.217 HD
ENDBRANCH  42  45
BRANCH  43  47
HETATM   47  O7  UNL     1     113.615  69.834  42.356  1.00  0.00    -0.358 OA
ATOM     48  H7  UNL     1     113.969  69.862  41.476  1.00  0.00     0.217 HD
ENDBRANCH  43  47
ENDBRANCH  37  39
ENDBRANCH  36  37
ENDBRANCH  35  36
ENDBRANCH  32  35
ENDBRANCH  30  32
ENDBRANCH  11  30
ENDBRANCH   9  11
ENDBRANCH   5   9
ENDBRANCH   1   5
TORSDOF 13
ENDMDL
MODEL 3
REMARK VINA RESULT: -10.235690382      3.404      4.655
REMARK  13 active torsions:
REMARK  status: ('A' for Active; 'I' for Inactive)
REMARK       I    between atoms: C2_2  and  N1_4 
REMARK       I    between atoms: N1_4  and  C3_6 
REMARK       I    between atoms: C3_6  and  N2_8 
REMARK    1  A    between atoms: C5_13  and  C6_14 
REMARK    2  A    between atoms: C6_14  and  N4_15 
REMARK    3  A    between atoms: C6_14  and  C16_34 
REMARK    4  A    between atoms: N4_15  and  C7_17 
REMARK    5  A    between atoms: C7_17  and  O3_18 
REMARK    6  A    between atoms: C7_17  and  C8_20 
REMARK    7  A    between atoms: C8_20  and  O4_21 
REMARK    8  A    between atoms: O4_21  and  C9_22 
REMARK    9  A    between atoms: C9_22  and  C10_24 
REMARK   10  A    between atoms: C13_27  and  O6_28 
REMARK   11  A    between atoms: C14_30  and  O7_31 
REMARK   12  A    between atoms: C16_34  and  C17_36 
REMARK   13  A    between atoms: C17_36  and  C18_40 
ROOT
HETATM    1  C18 UNL     1     107.577  61.360  43.517  1.00  0.00     0.280 C 
HETATM    2  O9  UNL     1     107.634  62.359  44.271  1.00  0.00    -0.274 OA
HETATM    3  C19 UNL     1     106.750  61.364  42.354  1.00  0.00     0.145 C 
HETATM    4  N6  UNL     1     106.075  61.388  41.397  1.00  0.00    -0.188 NA
ENDROOT
BRANCH   1   5
HETATM    5  C17 UNL     1     108.360  60.193  43.832  1.00  0.00     0.136 C 
HETATM    6  N5  UNL     1     107.784  59.143  44.328  1.00  0.00    -0.392 N 
ATOM      7  H52 UNL     1     108.338  58.316  44.551  1.00  0.00     0.156 HD
ATOM      8  H51 UNL     1     106.779  59.126  44.500  1.00  0.00     0.156 HD
BRANCH   5   9
HETATM    9  C16 UNL     1     109.815  60.217  43.583  1.00  0.00     0.208 C 
HETATM   10  O8  UNL     1     110.493  59.216  43.977  1.00  0.00    -0.288 OA
BRANCH   9  11
HETATM   11  C6  UNL     1     110.515  61.320  42.921  1.00  0.00     0.207 C 
BRANCH  11  12
HETATM   12  C5  UNL     1     111.043  60.922  41.583  1.00  0.00     0.062 A 
HETATM   13  N3  UNL     1     110.956  59.698  41.065  1.00  0.00    -0.192 N 
HETATM   14  C4  UNL     1     111.443  59.396  39.824  1.00  0.00     0.689 A 
ATOM     15  H3  UNL     1     110.511  58.962  41.612  1.00  0.00     0.184 HD
HETATM   16  N2  UNL     1     111.306  58.180  39.413  1.00  0.00    -0.141 N 
HETATM   17  N7  UNL     1     112.015  60.363  39.132  1.00  0.00    -0.156 N 
HETATM   18  C3  UNL     1     111.765  57.737  38.151  1.00  0.00     0.341 C 
ATOM     19  H2  UNL     1     110.845  57.508  40.026  1.00  0.00     0.189 HD
HETATM   20  N1  UNL     1     110.838  57.455  37.125  1.00  0.00    -0.279 N 
HETATM   21  O2  UNL     1     112.984  57.592  37.934  1.00  0.00    -0.246 OA
HETATM   22  C2  UNL     1     111.213  57.004  35.833  1.00  0.00     0.221 C 
ATOM     23  H1  UNL     1     109.846  57.581  37.323  1.00  0.00     0.173 HD
HETATM   24  C1  UNL     1     112.625  56.780  35.425  1.00  0.00     0.117 C 
HETATM   25  O1  UNL     1     110.314  56.775  34.969  1.00  0.00    -0.274 OA
HETATM   26  C21 UNL     1     112.159  61.634  39.554  1.00  0.00     0.261 A 
ATOM     27  H7  UNL     1     112.376  60.130  38.207  1.00  0.00     0.187 HD
HETATM   28  C20 UNL     1     111.660  61.917  40.809  1.00  0.00     0.103 A 
HETATM   29  O10 UNL     1     112.712  62.514  38.855  1.00  0.00    -0.268 OA
ENDBRANCH  11  12
BRANCH  11  30
HETATM   30  N4  UNL     1     111.662  61.752  43.668  1.00  0.00    -0.379 N 
ATOM     31  H4  UNL     1     112.565  61.291  43.563  1.00  0.00     0.157 HD
BRANCH  30  32
HETATM   32  C7  UNL     1     111.493  62.835  44.554  1.00  0.00     0.238 C 
BRANCH  32  33
HETATM   33  O3  UNL     1     112.062  62.431  45.790  1.00  0.00    -0.375 OA
ATOM     34  H3  UNL     1     111.532  61.709  46.105  1.00  0.00     0.212 HD
ENDBRANCH  32  33
BRANCH  32  35
HETATM   35  C8  UNL     1     112.183  64.110  44.112  1.00  0.00     0.232 C 
BRANCH  35  36
HETATM   36  O4  UNL     1     111.933  64.406  42.765  1.00  0.00    -0.313 OA
BRANCH  36  37
HETATM   37  C9  UNL     1     112.489  65.414  42.039  1.00  0.00     0.293 C 
HETATM   38  O5  UNL     1     113.222  65.125  41.076  1.00  0.00    -0.259 OA
BRANCH  37  39
HETATM   39  C10 UNL     1     112.194  66.798  42.431  1.00  0.00     0.042 A 
HETATM   40  C11 UNL     1     110.922  67.189  42.792  1.00  0.00     0.020 A 
HETATM   41  C12 UNL     1     110.622  68.486  43.161  1.00  0.00     0.040 A 
HETATM   42  C13 UNL     1     111.603  69.458  43.183  1.00  0.00     0.098 A 
HETATM   43  C14 UNL     1     112.875  69.067  42.822  1.00  0.00     0.099 A 
HETATM   44  C15 UNL     1     113.176  67.765  42.452  1.00  0.00     0.057 A 
BRANCH  42  45
HETATM   45  O6  UNL     1     111.314  70.769  43.552  1.00  0.00    -0.358 OA
ATOM     46  H6  UNL     1     111.454  71.492  42.953  1.00  0.00     0.217 HD
ENDBRANCH  42  45
BRANCH  43  47
HETATM   47  O7  UNL     1     113.880  70.012  42.833  1.00  0.00    -0.358 OA
ATOM     48  H7  UNL     1     114.600  69.900  43.442  1.00  0.00     0.217 HD
ENDBRANCH  43  47
ENDBRANCH  37  39
ENDBRANCH  36  37
ENDBRANCH  35  36
ENDBRANCH  32  35
ENDBRANCH  30  32
ENDBRANCH  11  30
ENDBRANCH   9  11
ENDBRANCH   5   9
ENDBRANCH   1   5
TORSDOF 13
ENDMDL
MODEL 4
REMARK VINA RESULT: -10.234220404      2.662      9.771
REMARK  13 active torsions:
REMARK  status: ('A' for Active; 'I' for Inactive)
REMARK       I    between atoms: C2_2  and  N1_4 
REMARK       I    between atoms: N1_4  and  C3_6 
REMARK       I    between atoms: C3_6  and  N2_8 
REMARK    1  A    between atoms: C5_13  and  C6_14 
REMARK    2  A    between atoms: C6_14  and  N4_15 
REMARK    3  A    between atoms: C6_14  and  C16_34 
REMARK    4  A    between atoms: N4_15  and  C7_17 
REMARK    5  A    between atoms: C7_17  and  O3_18 
REMARK    6  A    between atoms: C7_17  and  C8_20 
REMARK    7  A    between atoms: C8_20  and  O4_21 
REMARK    8  A    between atoms: O4_21  and  C9_22 
REMARK    9  A    between atoms: C9_22  and  C10_24 
REMARK   10  A    between atoms: C13_27  and  O6_28 
REMARK   11  A    between atoms: C14_30  and  O7_31 
REMARK   12  A    between atoms: C16_34  and  C17_36 
REMARK   13  A    between atoms: C17_36  and  C18_40 
ROOT
HETATM    1  C18 UNL     1     105.723  59.639  42.059  1.00  0.00     0.280 C 
HETATM    2  O9  UNL     1     104.773  58.826  42.117  1.00  0.00    -0.274 OA
HETATM    3  C19 UNL     1     105.602  60.858  41.327  1.00  0.00     0.145 C 
HETATM    4  N6  UNL     1     105.482  61.860  40.732  1.00  0.00    -0.188 NA
ENDROOT
BRANCH   1   5
HETATM    5  C17 UNL     1     106.954  59.337  42.743  1.00  0.00     0.136 C 
HETATM    6  N5  UNL     1     107.280  58.103  42.973  1.00  0.00    -0.392 N 
ATOM      7  H52 UNL     1     108.151  57.889  43.458  1.00  0.00     0.156 HD
ATOM      8  H51 UNL     1     106.677  57.336  42.676  1.00  0.00     0.156 HD
BRANCH   5   9
HETATM    9  C16 UNL     1     107.826  60.447  43.174  1.00  0.00     0.208 C 
HETATM   10  O8  UNL     1     107.263  61.507  43.594  1.00  0.00    -0.288 OA
BRANCH   9  11
HETATM   11  C6  UNL     1     109.290  60.399  43.141  1.00  0.00     0.207 C 
BRANCH  11  12
HETATM   12  C5  UNL     1     109.900  61.707  43.522  1.00  0.00     0.062 A 
HETATM   13  N3  UNL     1     110.048  62.744  42.700  1.00  0.00    -0.192 N 
HETATM   14  C4  UNL     1     110.599  63.926  43.110  1.00  0.00     0.689 A 
ATOM     15  H3  UNL     1     109.739  62.654  41.732  1.00  0.00     0.184 HD
HETATM   16  N2  UNL     1     110.694  64.871  42.237  1.00  0.00    -0.141 N 
HETATM   17  N7  UNL     1     110.992  64.022  44.367  1.00  0.00    -0.156 N 
HETATM   18  C3  UNL     1     111.244  66.141  42.531  1.00  0.00     0.341 C 
ATOM     19  H2  UNL     1     110.357  64.695  41.290  1.00  0.00     0.189 HD
HETATM   20  N1  UNL     1     110.399  67.266  42.635  1.00  0.00    -0.279 N 
HETATM   21  O2  UNL     1     112.472  66.277  42.699  1.00  0.00    -0.246 OA
HETATM   22  C2  UNL     1     110.868  68.573  42.924  1.00  0.00     0.221 C 
ATOM     23  H1  UNL     1     109.398  67.132  42.495  1.00  0.00     0.173 HD
HETATM   24  C1  UNL     1     112.303  68.894  43.146  1.00  0.00     0.117 C 
HETATM   25  O1  UNL     1     110.039  69.528  43.002  1.00  0.00    -0.274 OA
HETATM   26  C21 UNL     1     110.893  63.040  45.284  1.00  0.00     0.261 A 
ATOM     27  H7  UNL     1     111.402  64.906  44.666  1.00  0.00     0.187 HD
HETATM   28  C20 UNL     1     110.333  61.856  44.848  1.00  0.00     0.103 A 
HETATM   29  O10 UNL     1     111.283  63.185  46.465  1.00  0.00    -0.268 OA
ENDBRANCH  11  12
BRANCH  11  30
HETATM   30  N4  UNL     1     109.787  60.117  41.824  1.00  0.00    -0.379 N 
ATOM     31  H4  UNL     1     109.566  60.724  41.035  1.00  0.00     0.157 HD
BRANCH  30  32
HETATM   32  C7  UNL     1     110.590  58.970  41.661  1.00  0.00     0.238 C 
BRANCH  32  33
HETATM   33  O3  UNL     1     110.253  58.093  42.725  1.00  0.00    -0.375 OA
ATOM     34  H3  UNL     1     110.950  58.171  43.366  1.00  0.00     0.212 HD
ENDBRANCH  32  33
BRANCH  32  35
HETATM   35  C8  UNL     1     110.362  58.235  40.355  1.00  0.00     0.232 C 
BRANCH  35  36
HETATM   36  O4  UNL     1     109.021  57.865  40.184  1.00  0.00    -0.313 OA
BRANCH  36  37
HETATM   37  C9  UNL     1     108.497  57.179  39.132  1.00  0.00     0.293 C 
HETATM   38  O5  UNL     1     108.992  57.342  38.003  1.00  0.00    -0.259 OA
BRANCH  37  39
HETATM   39  C10 UNL     1     107.367  56.274  39.385  1.00  0.00     0.042 A 
HETATM   40  C11 UNL     1     107.265  55.054  38.752  1.00  0.00     0.020 A 
HETATM   41  C12 UNL     1     106.211  54.190  38.972  1.00  0.00     0.040 A 
HETATM   42  C13 UNL     1     105.200  54.522  39.853  1.00  0.00     0.098 A 
HETATM   43  C14 UNL     1     105.301  55.743  40.487  1.00  0.00     0.099 A 
HETATM   44  C15 UNL     1     106.361  56.610  40.264  1.00  0.00     0.057 A 
BRANCH  42  45
HETATM   45  O6  UNL     1     104.130  53.661  40.086  1.00  0.00    -0.358 OA
ATOM     46  H6  UNL     1     103.235  53.977  40.089  1.00  0.00     0.217 HD
ENDBRANCH  42  45
BRANCH  43  47
HETATM   47  O7  UNL     1     104.309  56.107  41.374  1.00  0.00    -0.358 OA
ATOM     48  H7  UNL     1     104.563  56.416  42.235  1.00  0.00     0.217 HD
ENDBRANCH  43  47
ENDBRANCH  37  39
ENDBRANCH  36  37
ENDBRANCH  35  36
ENDBRANCH  32  35
ENDBRANCH  30  32
ENDBRANCH  11  30
ENDBRANCH   9  11
ENDBRANCH   5   9
ENDBRANCH   1   5
TORSDOF 13
ENDMDL
MODEL 5
REMARK VINA RESULT: -10.076333025      1.967      2.490
REMARK  13 active torsions:
REMARK  status: ('A' for Active; 'I' for Inactive)
REMARK       I    between atoms: C2_2  and  N1_4 
REMARK       I    between atoms: N1_4  and  C3_6 
REMARK       I    between atoms: C3_6  and  N2_8 
REMARK    1  A    between atoms: C5_13  and  C6_14 
REMARK    2  A    between atoms: C6_14  and  N4_15 
REMARK    3  A    between atoms: C6_14  and  C16_34 
REMARK    4  A    between atoms: N4_15  and  C7_17 
REMARK    5  A    between atoms: C7_17  and  O3_18 
REMARK    6  A    between atoms: C7_17  and  C8_20 
REMARK    7  A    between atoms: C8_20  and  O4_21 
REMARK    8  A    between atoms: O4_21  and  C9_22 
REMARK    9  A    between atoms: C9_22  and  C10_24 
REMARK   10  A    between atoms: C13_27  and  O6_28 
REMARK   11  A    between atoms: C14_30  and  O7_31 
REMARK   12  A    between atoms: C16_34  and  C17_36 
REMARK   13  A    between atoms: C17_36  and  C18_40 
ROOT
HETATM    1  C18 UNL     1     108.966  59.576  48.243  1.00  0.00     0.280 C 
HETATM    2  O9  UNL     1     109.547  59.473  49.348  1.00  0.00    -0.274 OA
HETATM    3  C19 UNL     1     107.843  58.755  47.925  1.00  0.00     0.145 C 
HETATM    4  N6  UNL     1     106.914  58.083  47.685  1.00  0.00    -0.188 NA
ENDROOT
BRANCH   1   5
HETATM    5  C17 UNL     1     109.442  60.538  47.283  1.00  0.00     0.136 C 
HETATM    6  N5  UNL     1     109.526  61.790  47.609  1.00  0.00    -0.392 N 
ATOM      7  H52 UNL     1     109.862  62.472  46.929  1.00  0.00     0.156 HD
ATOM      8  H51 UNL     1     109.261  62.109  48.540  1.00  0.00     0.156 HD
BRANCH   5   9
HETATM    9  C16 UNL     1     109.824  60.076  45.934  1.00  0.00     0.208 C 
HETATM   10  O8  UNL     1     110.254  58.884  45.822  1.00  0.00    -0.288 OA
BRANCH   9  11
HETATM   11  C6  UNL     1     109.744  60.906  44.729  1.00  0.00     0.207 C 
BRANCH  11  12
HETATM   12  C5  UNL     1     109.210  60.146  43.562  1.00  0.00     0.062 A 
HETATM   13  N3  UNL     1     109.959  59.537  42.644  1.00  0.00    -0.192 N 
HETATM   14  C4  UNL     1     109.412  58.839  41.604  1.00  0.00     0.689 A 
ATOM     15  H3  UNL     1     110.974  59.594  42.720  1.00  0.00     0.184 HD
HETATM   16  N2  UNL     1     110.225  58.283  40.770  1.00  0.00    -0.141 N 
HETATM   17  N7  UNL     1     108.096  58.778  41.524  1.00  0.00    -0.156 N 
HETATM   18  C3  UNL     1     109.791  57.534  39.652  1.00  0.00     0.341 C 
ATOM     19  H2  UNL     1     111.228  58.389  40.924  1.00  0.00     0.189 HD
HETATM   20  N1  UNL     1     109.927  56.129  39.652  1.00  0.00    -0.279 N 
HETATM   21  O2  UNL     1     109.287  58.102  38.664  1.00  0.00    -0.246 OA
HETATM   22  C2  UNL     1     109.520  55.304  38.572  1.00  0.00     0.221 C 
ATOM     23  H1  UNL     1     110.340  55.684  40.471  1.00  0.00     0.173 HD
HETATM   24  C1  UNL     1     108.907  55.834  37.326  1.00  0.00     0.117 C 
HETATM   25  O1  UNL     1     109.677  54.049  38.655  1.00  0.00    -0.274 OA
HETATM   26  C21 UNL     1     107.242  59.354  42.392  1.00  0.00     0.261 A 
ATOM     27  H7  UNL     1     107.695  58.256  40.745  1.00  0.00     0.187 HD
HETATM   28  C20 UNL     1     107.816  60.053  43.434  1.00  0.00     0.103 A 
HETATM   29  O10 UNL     1     105.999  59.264  42.268  1.00  0.00    -0.268 OA
ENDBRANCH  11  12
BRANCH  11  30
HETATM   30  N4  UNL     1     111.035  61.378  44.318  1.00  0.00    -0.379 N 
ATOM     31  H4  UNL     1     111.669  60.784  43.783  1.00  0.00     0.157 HD
BRANCH  30  32
HETATM   32  C7  UNL     1     111.397  62.691  44.680  1.00  0.00     0.238 C 
BRANCH  32  33
HETATM   33  O3  UNL     1     112.063  62.591  45.929  1.00  0.00    -0.375 OA
ATOM     34  H3  UNL     1     112.669  61.864  45.851  1.00  0.00     0.212 HD
ENDBRANCH  32  33
BRANCH  32  35
HETATM   35  C8  UNL     1     112.333  63.368  43.699  1.00  0.00     0.232 C 
BRANCH  35  36
HETATM   36  O4  UNL     1     111.696  64.389  42.980  1.00  0.00    -0.313 OA
BRANCH  36  37
HETATM   37  C9  UNL     1     112.298  65.338  42.212  1.00  0.00     0.293 C 
HETATM   38  O5  UNL     1     113.036  64.975  41.279  1.00  0.00    -0.259 OA
BRANCH  37  39
HETATM   39  C10 UNL     1     112.043  66.750  42.526  1.00  0.00     0.042 A 
HETATM   40  C11 UNL     1     110.814  67.176  42.983  1.00  0.00     0.020 A 
HETATM   41  C12 UNL     1     110.552  68.499  43.281  1.00  0.00     0.040 A 
HETATM   42  C13 UNL     1     111.530  69.463  43.130  1.00  0.00     0.098 A 
HETATM   43  C14 UNL     1     112.760  69.037  42.674  1.00  0.00     0.099 A 
HETATM   44  C15 UNL     1     113.021  67.709  42.374  1.00  0.00     0.057 A 
BRANCH  42  45
HETATM   45  O6  UNL     1     111.280  70.800  43.427  1.00  0.00    -0.358 OA
ATOM     46  H6  UNL     1     110.844  71.054  44.231  1.00  0.00     0.217 HD
ENDBRANCH  42  45
BRANCH  43  47
HETATM   47  O7  UNL     1     113.760  69.973  42.511  1.00  0.00    -0.358 OA
ATOM     48  H7  UNL     1     114.491  69.759  41.944  1.00  0.00     0.217 HD
ENDBRANCH  43  47
ENDBRANCH  37  39
ENDBRANCH  36  37
ENDBRANCH  35  36
ENDBRANCH  32  35
ENDBRANCH  30  32
ENDBRANCH  11  30
ENDBRANCH   9  11
ENDBRANCH   5   9
ENDBRANCH   1   5
TORSDOF 13
ENDMDL
