MODEL 1
REMARK VINA RESULT: -9.603104162      0.000      0.000
REMARK  11 active torsions:
REMARK  status: ('A' for Active; 'I' for Inactive)
REMARK    1  A    between atoms: C2_7  and  N3_8 
REMARK    2  A    between atoms: C4_14  and  C5_15 
REMARK    3  A    between atoms: C5_15  and  N5_20 
REMARK    4  A    between atoms: N4_16  and  O1_18 
REMARK       I    between atoms: N5_20  and  C6_22 
REMARK    5  A    between atoms: C6_22  and  C7_24 
REMARK    6  A    between atoms: C7_24  and  N6_25 
REMARK    7  A    between atoms: C7_24  and  C15_34 
REMARK    8  A    between atoms: N6_25  and  O3_26 
REMARK    9  A    between atoms: O3_26  and  C8_27 
REMARK   10  A    between atoms: C8_27  and  C9_28 
REMARK       I    between atoms: C15_34  and  N7_36 
REMARK   11  A    between atoms: N7_36  and  C16_38 
ROOT
HETATM    1  C7  UNL     1     109.905  63.405  43.560  1.00  0.00     0.290 C 
ENDROOT
BRANCH   1   2
HETATM    2  C6  UNL     1     111.284  62.802  43.629  1.00  0.00     0.254 C 
HETATM    3  N5  UNL     1     112.155  62.773  42.533  1.00  0.00    -0.312 N 
ATOM      4  H5  UNL     1     111.805  63.186  41.670  1.00  0.00     0.170 HD
HETATM    5  O2  UNL     1     111.670  62.301  44.723  1.00  0.00    -0.271 OA
BRANCH   3   6
HETATM    6  C5  UNL     1     113.457  62.240  42.481  1.00  0.00     0.125 C 
HETATM    7  N4  UNL     1     114.322  62.658  43.376  1.00  0.00    -0.255 N 
ATOM      8  H4  UNL     1     115.266  62.271  43.355  1.00  0.00     0.195 HD
BRANCH   6   9
HETATM    9  C4  UNL     1     113.961  61.239  41.527  1.00  0.00     0.183 C 
HETATM   10  C1  UNL     1     112.932  60.225  41.179  1.00  0.00     0.093 C 
HETATM   11  N1  UNL     1     112.321  59.679  42.201  1.00  0.00    -0.388 N 
HETATM   12  N2  UNL     1     112.636  59.854  39.864  1.00  0.00    -0.351 N 
ATOM     13  H12 UNL     1     111.615  58.984  41.962  1.00  0.00     0.157 HD
ATOM     14  H11 UNL     1     112.537  59.951  43.160  1.00  0.00     0.157 HD
HETATM   15  C2  UNL     1     112.339  60.788  38.812  1.00  0.00     0.292 C 
ATOM     16  H2  UNL     1     112.631  58.859  39.637  1.00  0.00     0.163 HD
HETATM   17  C3  UNL     1     112.995  62.120  38.929  1.00  0.00     0.129 C 
HETATM   18  S1  UNL     1     114.478  62.032  39.968  1.00  0.00    -0.145 SA
BRANCH  15  19
HETATM   19  N3  UNL     1     112.780  60.206  37.550  1.00  0.00    -0.058 N 
ATOM     20  H33 UNL     1     113.792  60.087  37.504  1.00  0.00     0.276 HD
ATOM     21  H32 UNL     1     112.522  59.223  37.458  1.00  0.00     0.276 HD
ATOM     22  H31 UNL     1     112.415  60.782  36.790  1.00  0.00     0.276 HD
ENDBRANCH  15  19
ENDBRANCH   6   9
BRANCH   7  23
HETATM   23  O1  UNL     1     114.024  63.575  44.324  1.00  0.00    -0.288 OA
ATOM     24  H1  UNL     1     113.955  64.505  44.145  1.00  0.00     0.244 HD
ENDBRANCH   7  23
ENDBRANCH   3   6
ENDBRANCH   1   2
BRANCH   1  25
HETATM   25  N6  UNL     1     109.842  64.026  42.215  1.00  0.00    -0.076 NA
BRANCH  25  26
HETATM   26  O3  UNL     1     110.675  65.079  42.217  1.00  0.00    -0.281 OA
BRANCH  26  27
HETATM   27  C8  UNL     1     110.093  66.156  42.843  1.00  0.00     0.234 C 
BRANCH  27  28
HETATM   28  C9  UNL     1     111.125  67.250  42.796  1.00  0.00    -0.033 A 
HETATM   29  C10 UNL     1     110.765  68.519  43.197  1.00  0.00     0.009 A 
HETATM   30  C11 UNL     1     111.699  69.522  43.144  1.00  0.00     0.001 A 
HETATM   31  C12 UNL     1     112.971  69.234  42.689  1.00  0.00     0.000 A 
HETATM   32  C13 UNL     1     113.325  67.949  42.286  1.00  0.00     0.001 A 
HETATM   33  C14 UNL     1     112.378  66.951  42.345  1.00  0.00     0.009 A 
ENDBRANCH  27  28
ENDBRANCH  26  27
ENDBRANCH  25  26
ENDBRANCH   1  25
BRANCH   1  34
HETATM   34  C15 UNL     1     108.869  62.347  43.647  1.00  0.00     0.250 C 
HETATM   35  O4  UNL     1     107.824  62.608  44.294  1.00  0.00    -0.271 OA
HETATM   36  N7  UNL     1     109.025  61.078  43.037  1.00  0.00    -0.331 N 
ATOM     37  H7  UNL     1     109.881  60.881  42.520  1.00  0.00     0.165 HD
BRANCH  36  38
HETATM   38  C16 UNL     1     108.027  60.072  43.124  1.00  0.00     0.258 C 
HETATM   39  N8  UNL     1     106.675  60.536  42.767  1.00  0.00    -0.304 N 
HETATM   40  N9  UNL     1     105.620  60.061  42.054  1.00  0.00    -0.266 N 
ATOM     41  H8  UNL     1     106.478  61.458  43.158  1.00  0.00     0.183 HD
HETATM   42  C17 UNL     1     105.450  58.935  41.059  1.00  0.00     0.293 C 
ATOM     43  H9  UNL     1     104.757  60.576  42.227  1.00  0.00     0.190 HD
HETATM   44  O5  UNL     1     104.701  58.504  40.366  1.00  0.00    -0.264 OA
HETATM   45  C18 UNL     1     106.748  58.149  41.010  1.00  0.00     0.145 A 
HETATM   46  C19 UNL     1     107.685  57.281  40.734  1.00  0.00     0.045 A 
HETATM   47  O6  UNL     1     107.354  58.761  41.772  1.00  0.00    -0.305 OA
HETATM   48  C20 UNL     1     108.808  57.739  41.604  1.00  0.00     0.040 A 
HETATM   49  C21 UNL     1     108.361  58.831  42.278  1.00  0.00     0.097 A 
ENDBRANCH  36  38
ENDBRANCH   1  34
TORSDOF 11
ENDMDL
MODEL 2
REMARK VINA RESULT: -9.443487949      1.945      2.373
REMARK  11 active torsions:
REMARK  status: ('A' for Active; 'I' for Inactive)
REMARK    1  A    between atoms: C2_7  and  N3_8 
REMARK    2  A    between atoms: C4_14  and  C5_15 
REMARK    3  A    between atoms: C5_15  and  N5_20 
REMARK    4  A    between atoms: N4_16  and  O1_18 
REMARK       I    between atoms: N5_20  and  C6_22 
REMARK    5  A    between atoms: C6_22  and  C7_24 
REMARK    6  A    between atoms: C7_24  and  N6_25 
REMARK    7  A    between atoms: C7_24  and  C15_34 
REMARK    8  A    between atoms: N6_25  and  O3_26 
REMARK    9  A    between atoms: O3_26  and  C8_27 
REMARK   10  A    between atoms: C8_27  and  C9_28 
REMARK       I    between atoms: C15_34  and  N7_36 
REMARK   11  A    between atoms: N7_36  and  C16_38 
ROOT
HETATM    1  C7  UNL     1     110.827  63.097  43.590  1.00  0.00     0.290 C 
ENDROOT
BRANCH   1   2
HETATM    2  C6  UNL     1     112.321  62.927  43.491  1.00  0.00     0.254 C 
HETATM    3  N5  UNL     1     112.979  62.692  42.279  1.00  0.00    -0.312 N 
ATOM      4  H5  UNL     1     112.388  62.640  41.450  1.00  0.00     0.170 HD
HETATM    5  O2  UNL     1     113.009  63.001  44.549  1.00  0.00    -0.271 OA
BRANCH   3   6
HETATM    6  C5  UNL     1     114.360  62.520  42.067  1.00  0.00     0.125 C 
HETATM    7  N4  UNL     1     115.012  63.494  41.476  1.00  0.00    -0.255 N 
ATOM      8  H4  UNL     1     116.016  63.385  41.326  1.00  0.00     0.195 HD
BRANCH   6   9
HETATM    9  C4  UNL     1     115.171  61.354  42.454  1.00  0.00     0.183 C 
HETATM   10  C1  UNL     1     114.718  60.107  41.786  1.00  0.00     0.093 C 
HETATM   11  N1  UNL     1     113.433  59.869  41.866  1.00  0.00    -0.388 N 
HETATM   12  N2  UNL     1     115.587  59.227  41.133  1.00  0.00    -0.351 N 
ATOM     13  H12 UNL     1     113.122  59.013  41.408  1.00  0.00     0.157 HD
ATOM     14  H11 UNL     1     112.799  60.511  42.342  1.00  0.00     0.157 HD
HETATM   15  C2  UNL     1     116.543  59.633  40.138  1.00  0.00     0.292 C 
ATOM     16  H2  UNL     1     115.540  58.238  41.378  1.00  0.00     0.163 HD
HETATM   17  C3  UNL     1     117.082  61.014  40.286  1.00  0.00     0.129 C 
HETATM   18  S1  UNL     1     116.919  61.601  41.994  1.00  0.00    -0.145 SA
BRANCH  15  19
HETATM   19  N3  UNL     1     117.680  58.723  40.204  1.00  0.00    -0.058 N 
ATOM     20  H33 UNL     1     118.382  58.917  39.490  1.00  0.00     0.276 HD
ATOM     21  H32 UNL     1     118.268  58.886  41.022  1.00  0.00     0.276 HD
ATOM     22  H31 UNL     1     117.325  57.767  40.158  1.00  0.00     0.276 HD
ENDBRANCH  15  19
ENDBRANCH   6   9
BRANCH   7  23
HETATM   23  O1  UNL     1     114.420  64.635  41.056  1.00  0.00    -0.288 OA
ATOM     24  H1  UNL     1     114.544  65.474  41.484  1.00  0.00     0.244 HD
ENDBRANCH   7  23
ENDBRANCH   3   6
ENDBRANCH   1   2
BRANCH   1  25
HETATM   25  N6  UNL     1     110.464  63.870  42.379  1.00  0.00    -0.076 NA
BRANCH  25  26
HETATM   26  O3  UNL     1     111.162  65.017  42.407  1.00  0.00    -0.281 OA
BRANCH  26  27
HETATM   27  C8  UNL     1     110.374  66.054  42.847  1.00  0.00     0.234 C 
BRANCH  27  28
HETATM   28  C9  UNL     1     111.255  67.273  42.799  1.00  0.00    -0.033 A 
HETATM   29  C10 UNL     1     112.547  67.140  42.336  1.00  0.00     0.009 A 
HETATM   30  C11 UNL     1     113.357  68.246  42.303  1.00  0.00     0.001 A 
HETATM   31  C12 UNL     1     112.858  69.460  42.733  1.00  0.00     0.000 A 
HETATM   32  C13 UNL     1     111.551  69.584  43.199  1.00  0.00     0.001 A 
HETATM   33  C14 UNL     1     110.748  68.465  43.226  1.00  0.00     0.009 A 
ENDBRANCH  27  28
ENDBRANCH  26  27
ENDBRANCH  25  26
ENDBRANCH   1  25
BRANCH   1  34
HETATM   34  C15 UNL     1     110.149  61.779  43.537  1.00  0.00     0.250 C 
HETATM   35  O4  UNL     1     109.007  61.734  43.015  1.00  0.00    -0.271 OA
HETATM   36  N7  UNL     1     110.739  60.599  44.052  1.00  0.00    -0.331 N 
ATOM     37  H7  UNL     1     111.664  60.654  44.477  1.00  0.00     0.165 HD
BRANCH  36  38
HETATM   38  C16 UNL     1     110.083  59.341  43.995  1.00  0.00     0.258 C 
HETATM   39  N8  UNL     1     108.691  59.368  44.476  1.00  0.00    -0.304 N 
HETATM   40  N9  UNL     1     107.500  58.838  44.093  1.00  0.00    -0.266 N 
ATOM     41  H8  UNL     1     108.596  59.933  45.320  1.00  0.00     0.183 HD
HETATM   42  C17 UNL     1     107.003  58.187  42.821  1.00  0.00     0.293 C 
ATOM     43  H9  UNL     1     106.787  58.891  44.820  1.00  0.00     0.190 HD
HETATM   44  O5  UNL     1     106.074  57.801  42.358  1.00  0.00    -0.264 OA
HETATM   45  C18 UNL     1     108.186  58.018  41.885  1.00  0.00     0.145 A 
HETATM   46  C19 UNL     1     108.959  57.729  40.872  1.00  0.00     0.045 A 
HETATM   47  O6  UNL     1     109.004  58.480  42.548  1.00  0.00    -0.305 OA
HETATM   48  C20 UNL     1     110.291  58.211  41.341  1.00  0.00     0.040 A 
HETATM   49  C21 UNL     1     110.106  58.724  42.586  1.00  0.00     0.097 A 
ENDBRANCH  36  38
ENDBRANCH   1  34
TORSDOF 11
ENDMDL
MODEL 3
REMARK VINA RESULT: -9.353756287      1.568      1.960
REMARK  11 active torsions:
REMARK  status: ('A' for Active; 'I' for Inactive)
REMARK    1  A    between atoms: C2_7  and  N3_8 
REMARK    2  A    between atoms: C4_14  and  C5_15 
REMARK    3  A    between atoms: C5_15  and  N5_20 
REMARK    4  A    between atoms: N4_16  and  O1_18 
REMARK       I    between atoms: N5_20  and  C6_22 
REMARK    5  A    between atoms: C6_22  and  C7_24 
REMARK    6  A    between atoms: C7_24  and  N6_25 
REMARK    7  A    between atoms: C7_24  and  C15_34 
REMARK    8  A    between atoms: N6_25  and  O3_26 
REMARK    9  A    between atoms: O3_26  and  C8_27 
REMARK   10  A    between atoms: C8_27  and  C9_28 
REMARK       I    between atoms: C15_34  and  N7_36 
REMARK   11  A    between atoms: N7_36  and  C16_38 
ROOT
HETATM    1  C7  UNL     1     110.968  63.183  43.112  1.00  0.00     0.290 C 
ENDROOT
BRANCH   1   2
HETATM    2  C6  UNL     1     112.373  62.985  42.606  1.00  0.00     0.254 C 
HETATM    3  N5  UNL     1     112.679  62.862  41.246  1.00  0.00    -0.312 N 
ATOM      4  H5  UNL     1     111.891  62.913  40.602  1.00  0.00     0.170 HD
HETATM    5  O2  UNL     1     113.315  62.929  43.447  1.00  0.00    -0.271 OA
BRANCH   3   6
HETATM    6  C5  UNL     1     113.946  62.678  40.661  1.00  0.00     0.125 C 
HETATM    7  N4  UNL     1     114.786  63.686  40.695  1.00  0.00    -0.255 N 
ATOM      8  H4  UNL     1     115.711  63.560  40.283  1.00  0.00     0.195 HD
BRANCH   6   9
HETATM    9  C4  UNL     1     114.448  61.453  40.017  1.00  0.00     0.183 C 
HETATM   10  C1  UNL     1     113.922  60.222  40.662  1.00  0.00     0.093 C 
HETATM   11  N1  UNL     1     114.039  60.185  41.965  1.00  0.00    -0.388 N 
HETATM   12  N2  UNL     1     113.359  59.161  39.946  1.00  0.00    -0.351 N 
ATOM     13  H12 UNL     1     113.678  59.340  42.408  1.00  0.00     0.157 HD
ATOM     14  H11 UNL     1     114.450  60.958  42.488  1.00  0.00     0.157 HD
HETATM   15  C2  UNL     1     112.317  59.316  38.966  1.00  0.00     0.292 C 
ATOM     16  H2  UNL     1     113.709  58.221  40.129  1.00  0.00     0.163 HD
HETATM   17  C3  UNL     1     112.312  60.612  38.230  1.00  0.00     0.129 C 
HETATM   18  S1  UNL     1     113.948  61.391  38.264  1.00  0.00    -0.145 SA
BRANCH  15  19
HETATM   19  N3  UNL     1     112.470  58.262  37.971  1.00  0.00    -0.058 N 
ATOM     20  H33 UNL     1     112.592  58.627  37.027  1.00  0.00     0.276 HD
ATOM     21  H32 UNL     1     113.363  57.775  38.046  1.00  0.00     0.276 HD
ATOM     22  H31 UNL     1     111.670  57.633  38.050  1.00  0.00     0.276 HD
ENDBRANCH  15  19
ENDBRANCH   6   9
BRANCH   7  23
HETATM   23  O1  UNL     1     114.486  64.883  41.248  1.00  0.00    -0.288 OA
ATOM     24  H1  UNL     1     114.689  65.106  42.149  1.00  0.00     0.244 HD
ENDBRANCH   7  23
ENDBRANCH   3   6
ENDBRANCH   1   2
BRANCH   1  25
HETATM   25  N6  UNL     1     110.308  63.992  42.060  1.00  0.00    -0.076 NA
BRANCH  25  26
HETATM   26  O3  UNL     1     110.939  65.176  42.007  1.00  0.00    -0.281 OA
BRANCH  26  27
HETATM   27  C8  UNL     1     110.318  66.093  42.822  1.00  0.00     0.234 C 
BRANCH  27  28
HETATM   28  C9  UNL     1     111.204  67.309  42.801  1.00  0.00    -0.033 A 
HETATM   29  C10 UNL     1     112.497  67.180  42.339  1.00  0.00     0.009 A 
HETATM   30  C11 UNL     1     113.312  68.283  42.330  1.00  0.00     0.001 A 
HETATM   31  C12 UNL     1     112.816  69.490  42.785  1.00  0.00     0.000 A 
HETATM   32  C13 UNL     1     111.508  69.610  43.250  1.00  0.00     0.001 A 
HETATM   33  C14 UNL     1     110.701  68.494  43.252  1.00  0.00     0.009 A 
ENDBRANCH  27  28
ENDBRANCH  26  27
ENDBRANCH  25  26
ENDBRANCH   1  25
BRANCH   1  34
HETATM   34  C15 UNL     1     110.267  61.880  43.223  1.00  0.00     0.250 C 
HETATM   35  O4  UNL     1     109.143  61.775  42.669  1.00  0.00    -0.271 OA
HETATM   36  N7  UNL     1     110.815  60.778  43.924  1.00  0.00    -0.331 N 
ATOM     37  H7  UNL     1     111.726  60.882  44.372  1.00  0.00     0.165 HD
BRANCH  36  38
HETATM   38  C16 UNL     1     110.139  59.534  44.023  1.00  0.00     0.258 C 
HETATM   39  N8  UNL     1     108.728  59.650  44.433  1.00  0.00    -0.304 N 
HETATM   40  N9  UNL     1     107.544  59.085  44.079  1.00  0.00    -0.266 N 
ATOM     41  H8  UNL     1     108.608  60.335  45.180  1.00  0.00     0.183 HD
HETATM   42  C17 UNL     1     107.089  58.260  42.896  1.00  0.00     0.293 C 
ATOM     43  H9  UNL     1     106.802  59.254  44.758  1.00  0.00     0.190 HD
HETATM   44  O5  UNL     1     106.173  57.822  42.454  1.00  0.00    -0.264 OA
HETATM   45  C18 UNL     1     108.307  57.939  42.049  1.00  0.00     0.145 A 
HETATM   46  C19 UNL     1     109.116  57.494  41.124  1.00  0.00     0.045 A 
HETATM   47  O6  UNL     1     109.105  58.483  42.673  1.00  0.00    -0.305 OA
HETATM   48  C20 UNL     1     110.436  58.023  41.576  1.00  0.00     0.040 A 
HETATM   49  C21 UNL     1     110.208  58.715  42.723  1.00  0.00     0.097 A 
ENDBRANCH  36  38
ENDBRANCH   1  34
TORSDOF 11
ENDMDL
MODEL 4
REMARK VINA RESULT: -9.314413308      2.537      3.945
REMARK  11 active torsions:
REMARK  status: ('A' for Active; 'I' for Inactive)
REMARK    1  A    between atoms: C2_7  and  N3_8 
REMARK    2  A    between atoms: C4_14  and  C5_15 
REMARK    3  A    between atoms: C5_15  and  N5_20 
REMARK    4  A    between atoms: N4_16  and  O1_18 
REMARK       I    between atoms: N5_20  and  C6_22 
REMARK    5  A    between atoms: C6_22  and  C7_24 
REMARK    6  A    between atoms: C7_24  and  N6_25 
REMARK    7  A    between atoms: C7_24  and  C15_34 
REMARK    8  A    between atoms: N6_25  and  O3_26 
REMARK    9  A    between atoms: O3_26  and  C8_27 
REMARK   10  A    between atoms: C8_27  and  C9_28 
REMARK       I    between atoms: C15_34  and  N7_36 
REMARK   11  A    between atoms: N7_36  and  C16_38 
ROOT
HETATM    1  C7  UNL     1     112.656  62.543  41.369  1.00  0.00     0.290 C 
ENDROOT
BRANCH   1   2
HETATM    2  C6  UNL     1     112.866  61.723  40.123  1.00  0.00     0.254 C 
HETATM    3  N5  UNL     1     112.099  61.892  38.965  1.00  0.00    -0.312 N 
ATOM      4  H5  UNL     1     111.377  62.610  39.006  1.00  0.00     0.170 HD
HETATM    5  O2  UNL     1     113.775  60.844  40.125  1.00  0.00    -0.271 OA
BRANCH   3   6
HETATM    6  C5  UNL     1     112.206  61.189  37.750  1.00  0.00     0.125 C 
HETATM    7  N4  UNL     1     111.882  59.917  37.752  1.00  0.00    -0.255 N 
ATOM      8  H4  UNL     1     111.946  59.399  36.875  1.00  0.00     0.195 HD
BRANCH   6   9
HETATM    9  C4  UNL     1     112.633  61.735  36.452  1.00  0.00     0.183 C 
HETATM   10  C1  UNL     1     111.787  62.876  36.015  1.00  0.00     0.093 C 
HETATM   11  N1  UNL     1     110.496  62.661  36.066  1.00  0.00    -0.388 N 
HETATM   12  N2  UNL     1     112.310  64.089  35.560  1.00  0.00    -0.351 N 
ATOM     13  H12 UNL     1     109.915  63.443  35.766  1.00  0.00     0.157 HD
ATOM     14  H11 UNL     1     110.114  61.775  36.398  1.00  0.00     0.157 HD
HETATM   15  C2  UNL     1     113.299  64.855  36.271  1.00  0.00     0.292 C 
ATOM     16  H2  UNL     1     111.971  64.454  34.670  1.00  0.00     0.163 HD
HETATM   17  C3  UNL     1     114.245  64.066  37.109  1.00  0.00     0.129 C 
HETATM   18  S1  UNL     1     114.349  62.348  36.540  1.00  0.00    -0.145 SA
BRANCH  15  19
HETATM   19  N3  UNL     1     114.101  65.580  35.292  1.00  0.00    -0.058 N 
ATOM     20  H33 UNL     1     114.369  65.001  34.497  1.00  0.00     0.276 HD
ATOM     21  H32 UNL     1     113.561  66.277  34.779  1.00  0.00     0.276 HD
ATOM     22  H31 UNL     1     114.904  65.983  35.776  1.00  0.00     0.276 HD
ENDBRANCH  15  19
ENDBRANCH   6   9
BRANCH   7  23
HETATM   23  O1  UNL     1     111.470  59.258  38.858  1.00  0.00    -0.288 OA
ATOM     24  H1  UNL     1     111.406  58.312  38.907  1.00  0.00     0.244 HD
ENDBRANCH   7  23
ENDBRANCH   3   6
ENDBRANCH   1   2
BRANCH   1  25
HETATM   25  N6  UNL     1     112.479  63.928  40.872  1.00  0.00    -0.076 NA
BRANCH  25  26
HETATM   26  O3  UNL     1     112.608  64.754  41.924  1.00  0.00    -0.281 OA
BRANCH  26  27
HETATM   27  C8  UNL     1     113.305  65.884  41.571  1.00  0.00     0.234 C 
BRANCH  27  28
HETATM   28  C9  UNL     1     112.520  67.033  42.145  1.00  0.00    -0.033 A 
HETATM   29  C10 UNL     1     111.316  66.770  42.763  1.00  0.00     0.009 A 
HETATM   30  C11 UNL     1     110.592  67.815  43.277  1.00  0.00     0.001 A 
HETATM   31  C12 UNL     1     111.087  69.099  43.160  1.00  0.00     0.000 A 
HETATM   32  C13 UNL     1     112.305  69.355  42.534  1.00  0.00     0.001 A 
HETATM   33  C14 UNL     1     113.022  68.295  42.024  1.00  0.00     0.009 A 
ENDBRANCH  27  28
ENDBRANCH  26  27
ENDBRANCH  25  26
ENDBRANCH   1  25
BRANCH   1  34
HETATM   34  C15 UNL     1     111.415  62.124  42.066  1.00  0.00     0.250 C 
HETATM   35  O4  UNL     1     110.318  62.471  41.560  1.00  0.00    -0.271 OA
HETATM   36  N7  UNL     1     111.434  61.363  43.261  1.00  0.00    -0.331 N 
ATOM     37  H7  UNL     1     112.332  61.094  43.661  1.00  0.00     0.165 HD
BRANCH  36  38
HETATM   38  C16 UNL     1     110.241  60.964  43.920  1.00  0.00     0.258 C 
HETATM   39  N8  UNL     1     109.213  62.017  43.990  1.00  0.00    -0.304 N 
HETATM   40  N9  UNL     1     107.867  62.099  43.832  1.00  0.00    -0.266 N 
ATOM     41  H8  UNL     1     109.620  62.925  44.219  1.00  0.00     0.183 HD
HETATM   42  C17 UNL     1     106.824  61.181  43.235  1.00  0.00     0.293 C 
ATOM     43  H9  UNL     1     107.474  62.969  44.193  1.00  0.00     0.190 HD
HETATM   44  O5  UNL     1     105.748  61.155  42.974  1.00  0.00    -0.264 OA
HETATM   45  C18 UNL     1     107.498  59.866  42.886  1.00  0.00     0.145 A 
HETATM   46  C19 UNL     1     107.753  58.650  42.481  1.00  0.00     0.045 A 
HETATM   47  O6  UNL     1     108.568  60.121  43.223  1.00  0.00    -0.305 OA
HETATM   48  C20 UNL     1     109.214  58.522  42.760  1.00  0.00     0.040 A 
HETATM   49  C21 UNL     1     109.614  59.704  43.299  1.00  0.00     0.097 A 
ENDBRANCH  36  38
ENDBRANCH   1  34
TORSDOF 11
ENDMDL
MODEL 5
REMARK VINA RESULT: -9.211189433      2.060      3.234
REMARK  11 active torsions:
REMARK  status: ('A' for Active; 'I' for Inactive)
REMARK    1  A    between atoms: C2_7  and  N3_8 
REMARK    2  A    between atoms: C4_14  and  C5_15 
REMARK    3  A    between atoms: C5_15  and  N5_20 
REMARK    4  A    between atoms: N4_16  and  O1_18 
REMARK       I    between atoms: N5_20  and  C6_22 
REMARK    5  A    between atoms: C6_22  and  C7_24 
REMARK    6  A    between atoms: C7_24  and  N6_25 
REMARK    7  A    between atoms: C7_24  and  C15_34 
REMARK    8  A    between atoms: N6_25  and  O3_26 
REMARK    9  A    between atoms: O3_26  and  C8_27 
REMARK   10  A    between atoms: C8_27  and  C9_28 
REMARK       I    between atoms: C15_34  and  N7_36 
REMARK   11  A    between atoms: N7_36  and  C16_38 
ROOT
HETATM    1  C7  UNL     1     111.347  63.033  42.707  1.00  0.00     0.290 C 
ENDROOT
BRANCH   1   2
HETATM    2  C6  UNL     1     112.238  63.018  41.492  1.00  0.00     0.254 C 
HETATM    3  N5  UNL     1     112.785  61.842  40.966  1.00  0.00    -0.312 N 
ATOM      4  H5  UNL     1     112.548  60.979  41.455  1.00  0.00     0.170 HD
HETATM    5  O2  UNL     1     112.501  64.116  40.923  1.00  0.00    -0.271 OA
BRANCH   3   6
HETATM    6  C5  UNL     1     113.623  61.708  39.844  1.00  0.00     0.125 C 
HETATM    7  N4  UNL     1     113.089  61.891  38.659  1.00  0.00    -0.255 N 
ATOM      8  H4  UNL     1     113.689  61.807  37.838  1.00  0.00     0.195 HD
BRANCH   6   9
HETATM    9  C4  UNL     1     115.062  61.395  39.851  1.00  0.00     0.183 C 
HETATM   10  C1  UNL     1     115.852  62.395  40.615  1.00  0.00     0.093 C 
HETATM   11  N1  UNL     1     115.614  63.645  40.304  1.00  0.00    -0.388 N 
HETATM   12  N2  UNL     1     116.798  62.047  41.583  1.00  0.00    -0.351 N 
ATOM     13  H12 UNL     1     116.156  64.331  40.828  1.00  0.00     0.157 HD
ATOM     14  H11 UNL     1     114.924  63.898  39.598  1.00  0.00     0.157 HD
HETATM   15  C2  UNL     1     116.539  61.146  42.673  1.00  0.00     0.292 C 
ATOM     16  H2  UNL     1     117.729  62.458  41.513  1.00  0.00     0.163 HD
HETATM   17  C3  UNL     1     115.533  60.081  42.403  1.00  0.00     0.129 C 
HETATM   18  S1  UNL     1     115.367  59.771  40.625  1.00  0.00    -0.145 SA
BRANCH  15  19
HETATM   19  N3  UNL     1     117.787  60.475  43.014  1.00  0.00    -0.058 N 
ATOM     20  H33 UNL     1     118.520  61.126  43.297  1.00  0.00     0.276 HD
ATOM     21  H32 UNL     1     117.727  59.949  43.886  1.00  0.00     0.276 HD
ATOM     22  H31 UNL     1     118.061  59.893  42.222  1.00  0.00     0.276 HD
ENDBRANCH  15  19
ENDBRANCH   6   9
BRANCH   7  23
HETATM   23  O1  UNL     1     111.782  62.185  38.472  1.00  0.00    -0.288 OA
ATOM     24  H1  UNL     1     111.282  62.734  39.065  1.00  0.00     0.244 HD
ENDBRANCH   7  23
ENDBRANCH   3   6
ENDBRANCH   1   2
BRANCH   1  25
HETATM   25  N6  UNL     1     110.377  64.121  42.440  1.00  0.00    -0.076 NA
BRANCH  25  26
HETATM   26  O3  UNL     1     110.713  65.161  43.220  1.00  0.00    -0.281 OA
BRANCH  26  27
HETATM   27  C8  UNL     1     110.057  66.300  42.819  1.00  0.00     0.234 C 
BRANCH  27  28
HETATM   28  C9  UNL     1     111.107  67.378  42.797  1.00  0.00    -0.033 A 
HETATM   29  C10 UNL     1     112.380  67.055  42.376  1.00  0.00     0.009 A 
HETATM   30  C11 UNL     1     113.343  68.032  42.366  1.00  0.00     0.001 A 
HETATM   31  C12 UNL     1     113.012  69.309  42.777  1.00  0.00     0.000 A 
HETATM   32  C13 UNL     1     111.723  69.625  43.200  1.00  0.00     0.001 A 
HETATM   33  C14 UNL     1     110.766  68.634  43.204  1.00  0.00     0.009 A 
ENDBRANCH  27  28
ENDBRANCH  26  27
ENDBRANCH  25  26
ENDBRANCH   1  25
BRANCH   1  34
HETATM   34  C15 UNL     1     110.607  61.752  42.825  1.00  0.00     0.250 C 
HETATM   35  O4  UNL     1     109.598  61.594  42.093  1.00  0.00    -0.271 OA
HETATM   36  N7  UNL     1     110.996  60.729  43.724  1.00  0.00    -0.331 N 
ATOM     37  H7  UNL     1     111.815  60.876  44.315  1.00  0.00     0.165 HD
BRANCH  36  38
HETATM   38  C16 UNL     1     110.284  59.506  43.830  1.00  0.00     0.258 C 
HETATM   39  N8  UNL     1     108.888  59.661  44.274  1.00  0.00    -0.304 N 
HETATM   40  N9  UNL     1     107.679  59.136  43.944  1.00  0.00    -0.266 N 
ATOM     41  H8  UNL     1     108.807  60.343  45.029  1.00  0.00     0.183 HD
HETATM   42  C17 UNL     1     107.170  58.336  42.766  1.00  0.00     0.293 C 
ATOM     43  H9  UNL     1     106.959  59.322  44.642  1.00  0.00     0.190 HD
HETATM   44  O5  UNL     1     106.231  57.931  42.342  1.00  0.00    -0.264 OA
HETATM   45  C18 UNL     1     108.357  57.986  41.887  1.00  0.00     0.145 A 
HETATM   46  C19 UNL     1     109.129  57.524  40.939  1.00  0.00     0.045 A 
HETATM   47  O6  UNL     1     109.186  58.499  42.496  1.00  0.00    -0.305 OA
HETATM   48  C20 UNL     1     110.476  58.008  41.363  1.00  0.00     0.040 A 
HETATM   49  C21 UNL     1     110.297  58.697  42.521  1.00  0.00     0.097 A 
ENDBRANCH  36  38
ENDBRANCH   1  34
TORSDOF 11
ENDMDL
