MODEL 1
REMARK VINA RESULT: -8.230354875      0.000      0.000
REMARK  12 active torsions:
REMARK  status: ('A' for Active; 'I' for Inactive)
REMARK    1  A    between atoms: C3_5  and  N2_6 
REMARK    2  A    between atoms: C4_7  and  O1_8 
REMARK       I    between atoms: N3_11  and  C6_12 
REMARK    3  A    between atoms: C6_12  and  O3_14 
REMARK    4  A    between atoms: O3_14  and  C7_15 
REMARK    5  A    between atoms: C7_15  and  O4_16 
REMARK    6  A    between atoms: C7_15  and  C8_18 
REMARK    7  A    between atoms: C8_18  and  O5_19 
REMARK    8  A    between atoms: C10_25  and  N5_26 
REMARK       I    between atoms: N6_28  and  C11_30 
REMARK       I    between atoms: C11_30  and  N10_39 
REMARK    9  A    between atoms: N7_31  and  C12_33 
REMARK   10  A    between atoms: C12_33  and  C13_34 
REMARK   11  A    between atoms: C13_34  and  N8_35 
REMARK   12  A    between atoms: N8_35  and  N9_36 
ROOT
HETATM    1  N5  UNL     1     -11.587  96.582  17.064  1.00  0.00    -0.269 N 
ATOM      2  H5  UNL     1     -11.186  95.968  16.356  1.00  0.00     0.189 HD
HETATM    3  N6  UNL     1     -12.227  97.613  16.683  1.00  0.00    -0.130 N 
ATOM      4  H6  UNL     1     -12.629  98.229  17.389  1.00  0.00     0.205 HD
HETATM    5  C11 UNL     1     -12.404  97.937  15.314  1.00  0.00     0.701 C 
HETATM    6  N7  UNL     1     -12.695  99.122  14.964  1.00  0.00    -0.223 N 
ATOM      7  H7  UNL     1     -12.813  99.308  13.968  1.00  0.00     0.177 HD
HETATM    8  N10 UNL     1     -12.264  96.960  14.275  1.00  0.00    -0.125 N 
ATOM      9  H10 UNL     1     -11.388  96.904  13.756  1.00  0.00     0.197 HD
HETATM   10  C14 UNL     1     -13.308  96.082  13.960  1.00  0.00     0.196 C 
HETATM   11  N11 UNL     1     -14.183  95.355  13.687  1.00  0.00    -0.171 NA
ENDROOT
BRANCH   6  12
HETATM   12  C12 UNL     1     -12.872 100.226  15.882  1.00  0.00     0.156 C 
BRANCH  12  13
HETATM   13  C13 UNL     1     -12.861 101.557  15.192  1.00  0.00     0.154 C 
BRANCH  13  14
HETATM   14  N8  UNL     1     -11.517 102.106  15.120  1.00  0.00    -0.147 NA
BRANCH  14  15
HETATM   15  N9  UNL     1     -11.162 102.198  13.758  1.00  0.00    -0.348 N 
ATOM     16  H92 UNL     1     -10.652 101.489  13.233  1.00  0.00     0.172 HD
ATOM     17  H91 UNL     1     -11.507 103.092  13.407  1.00  0.00     0.172 HD
ENDBRANCH  14  15
ENDBRANCH  13  14
ENDBRANCH  12  13
ENDBRANCH   6  12
BRANCH   1  18
HETATM   18  C10 UNL     1     -11.407  96.252  18.424  1.00  0.00     0.159 A 
HETATM   19  C2  UNL     1     -10.396  96.722  19.232  1.00  0.00     0.068 A 
HETATM   20  C1  UNL     1      -9.303  97.669  18.826  1.00  0.00     0.073 C 
HETATM   21  N1  UNL     1     -10.597  96.162  20.438  1.00  0.00    -0.191 N 
HETATM   22  C3  UNL     1     -11.680  95.366  20.425  1.00  0.00     0.697 A 
ATOM     23  H1  UNL     1     -10.006  96.320  21.254  1.00  0.00     0.184 HD
HETATM   24  N4  UNL     1     -12.171  95.433  19.169  1.00  0.00    -0.172 N 
ATOM     25  H4  UNL     1     -12.998  94.937  18.835  1.00  0.00     0.186 HD
BRANCH  22  26
HETATM   26  N2  UNL     1     -12.207  94.598  21.534  1.00  0.00    -0.072 N 
HETATM   27  C4  UNL     1     -12.800  93.403  21.417  1.00  0.00     0.184 A 
HETATM   28  C5  UNL     1     -13.164  92.991  22.673  1.00  0.00     0.164 A 
HETATM   29  N3  UNL     1     -12.789  93.938  23.543  1.00  0.00    -0.215 N 
HETATM   30  C6  UNL     1     -12.989  93.882  24.942  1.00  0.00     0.377 C 
HETATM   31  C9  UNL     1     -12.202  94.918  22.818  1.00  0.00     0.358 A 
HETATM   32  O2  UNL     1     -13.558  92.881  25.430  1.00  0.00    -0.237 OA
HETATM   33  O6  UNL     1     -11.717  95.984  23.286  1.00  0.00    -0.245 OA
BRANCH  27  34
HETATM   34  O1  UNL     1     -12.995  92.732  20.216  1.00  0.00    -0.344 OA
ATOM     35  H1  UNL     1     -13.739  92.173  20.024  1.00  0.00     0.219 HD
ENDBRANCH  27  34
BRANCH  30  36
HETATM   36  O3  UNL     1     -12.584  94.885  25.806  1.00  0.00    -0.270 OA
BRANCH  36  37
HETATM   37  C7  UNL     1     -13.535  95.725  26.427  1.00  0.00     0.291 C 
BRANCH  37  38
HETATM   38  O4  UNL     1     -14.845  95.354  26.146  1.00  0.00    -0.369 OA
ATOM     39  H4  UNL     1     -15.414  95.411  26.905  1.00  0.00     0.212 HD
ENDBRANCH  37  38
BRANCH  37  40
HETATM   40  C8  UNL     1     -13.311  95.705  27.942  1.00  0.00     0.225 C 
BRANCH  40  41
HETATM   41  O5  UNL     1     -12.004  95.308  28.203  1.00  0.00    -0.396 OA
ATOM     42  H5  UNL     1     -11.999  94.385  28.427  1.00  0.00     0.209 HD
ENDBRANCH  40  41
ENDBRANCH  37  40
ENDBRANCH  36  37
ENDBRANCH  30  36
ENDBRANCH  22  26
ENDBRANCH   1  18
TORSDOF 12
ENDMDL
MODEL 2
REMARK VINA RESULT: -7.940182462      3.582      9.962
REMARK  12 active torsions:
REMARK  status: ('A' for Active; 'I' for Inactive)
REMARK    1  A    between atoms: C3_5  and  N2_6 
REMARK    2  A    between atoms: C4_7  and  O1_8 
REMARK       I    between atoms: N3_11  and  C6_12 
REMARK    3  A    between atoms: C6_12  and  O3_14 
REMARK    4  A    between atoms: O3_14  and  C7_15 
REMARK    5  A    between atoms: C7_15  and  O4_16 
REMARK    6  A    between atoms: C7_15  and  C8_18 
REMARK    7  A    between atoms: C8_18  and  O5_19 
REMARK    8  A    between atoms: C10_25  and  N5_26 
REMARK       I    between atoms: N6_28  and  C11_30 
REMARK       I    between atoms: C11_30  and  N10_39 
REMARK    9  A    between atoms: N7_31  and  C12_33 
REMARK   10  A    between atoms: C12_33  and  C13_34 
REMARK   11  A    between atoms: C13_34  and  N8_35 
REMARK   12  A    between atoms: N8_35  and  N9_36 
ROOT
HETATM    1  N5  UNL     1     -13.511  93.052  23.247  1.00  0.00    -0.269 N 
ATOM      2  H5  UNL     1     -14.316  92.426  23.264  1.00  0.00     0.189 HD
HETATM    3  N6  UNL     1     -13.038  93.464  24.353  1.00  0.00    -0.130 N 
ATOM      4  H6  UNL     1     -12.233  94.090  24.340  1.00  0.00     0.205 HD
HETATM    5  C11 UNL     1     -13.587  93.085  25.605  1.00  0.00     0.701 C 
HETATM    6  N7  UNL     1     -13.363  93.779  26.644  1.00  0.00    -0.223 N 
ATOM      7  H7  UNL     1     -13.778  93.468  27.522  1.00  0.00     0.177 HD
HETATM    8  N10 UNL     1     -14.407  91.921  25.757  1.00  0.00    -0.125 N 
ATOM      9  H10 UNL     1     -15.422  92.022  25.772  1.00  0.00     0.197 HD
HETATM   10  C14 UNL     1     -13.842  90.647  25.884  1.00  0.00     0.196 C 
HETATM   11  N11 UNL     1     -13.372  89.582  26.002  1.00  0.00    -0.171 NA
ENDROOT
BRANCH   6  12
HETATM   12  C12 UNL     1     -12.558  94.982  26.667  1.00  0.00     0.156 C 
BRANCH  12  13
HETATM   13  C13 UNL     1     -13.129  96.040  27.564  1.00  0.00     0.154 C 
BRANCH  13  14
HETATM   14  N8  UNL     1     -12.486  96.033  28.867  1.00  0.00    -0.147 NA
BRANCH  14  15
HETATM   15  N9  UNL     1     -13.302  95.290  29.745  1.00  0.00    -0.348 N 
ATOM     16  H92 UNL     1     -14.296  95.452  29.905  1.00  0.00     0.172 HD
ATOM     17  H91 UNL     1     -12.720  94.575  30.181  1.00  0.00     0.172 HD
ENDBRANCH  14  15
ENDBRANCH  13  14
ENDBRANCH  12  13
ENDBRANCH   6  12
BRANCH   1  18
HETATM   18  C10 UNL     1     -12.971  93.423  21.997  1.00  0.00     0.159 A 
HETATM   19  C2  UNL     1     -12.960  92.634  20.868  1.00  0.00     0.068 A 
HETATM   20  C1  UNL     1     -13.515  91.244  20.750  1.00  0.00     0.073 C 
HETATM   21  N1  UNL     1     -12.357  93.365  19.914  1.00  0.00    -0.191 N 
HETATM   22  C3  UNL     1     -11.991  94.569  20.389  1.00  0.00     0.697 A 
ATOM     23  H1  UNL     1     -12.199  93.049  18.957  1.00  0.00     0.184 HD
HETATM   24  N4  UNL     1     -12.379  94.589  21.682  1.00  0.00    -0.172 N 
ATOM     25  H4  UNL     1     -12.244  95.370  22.323  1.00  0.00     0.186 HD
BRANCH  22  26
HETATM   26  N2  UNL     1     -11.319  95.623  19.659  1.00  0.00    -0.072 N 
HETATM   27  C4  UNL     1     -10.315  96.364  20.144  1.00  0.00     0.184 A 
HETATM   28  C5  UNL     1      -9.940  97.253  19.170  1.00  0.00     0.164 A 
HETATM   29  N3  UNL     1     -10.718  97.045  18.100  1.00  0.00    -0.215 N 
HETATM   30  C6  UNL     1     -10.640  97.766  16.885  1.00  0.00     0.377 C 
HETATM   31  C9  UNL     1     -11.561  96.037  18.424  1.00  0.00     0.358 A 
HETATM   32  O2  UNL     1      -9.786  98.672  16.775  1.00  0.00    -0.237 OA
HETATM   33  O6  UNL     1     -12.449  95.554  17.670  1.00  0.00    -0.245 OA
BRANCH  27  34
HETATM   34  O1  UNL     1      -9.776  96.227  21.418  1.00  0.00    -0.344 OA
ATOM     35  H1  UNL     1      -8.996  96.674  21.725  1.00  0.00     0.219 HD
ENDBRANCH  27  34
BRANCH  30  36
HETATM   36  O3  UNL     1     -11.467  97.517  15.803  1.00  0.00    -0.270 OA
BRANCH  36  37
HETATM   37  C7  UNL     1     -12.529  98.395  15.492  1.00  0.00     0.291 C 
BRANCH  37  38
HETATM   38  O4  UNL     1     -12.118  99.493  14.744  1.00  0.00    -0.369 OA
ATOM     39  H4  UNL     1     -12.039  99.298  13.818  1.00  0.00     0.212 HD
ENDBRANCH  37  38
BRANCH  37  40
HETATM   40  C8  UNL     1     -13.609  97.629  14.724  1.00  0.00     0.225 C 
BRANCH  40  41
HETATM   41  O5  UNL     1     -13.540  96.282  15.065  1.00  0.00    -0.396 OA
ATOM     42  H5  UNL     1     -12.641  96.062  15.281  1.00  0.00     0.209 HD
ENDBRANCH  40  41
ENDBRANCH  37  40
ENDBRANCH  36  37
ENDBRANCH  30  36
ENDBRANCH  22  26
ENDBRANCH   1  18
TORSDOF 12
ENDMDL
MODEL 3
REMARK VINA RESULT: -7.738279900      1.596      3.103
REMARK  12 active torsions:
REMARK  status: ('A' for Active; 'I' for Inactive)
REMARK    1  A    between atoms: C3_5  and  N2_6 
REMARK    2  A    between atoms: C4_7  and  O1_8 
REMARK       I    between atoms: N3_11  and  C6_12 
REMARK    3  A    between atoms: C6_12  and  O3_14 
REMARK    4  A    between atoms: O3_14  and  C7_15 
REMARK    5  A    between atoms: C7_15  and  O4_16 
REMARK    6  A    between atoms: C7_15  and  C8_18 
REMARK    7  A    between atoms: C8_18  and  O5_19 
REMARK    8  A    between atoms: C10_25  and  N5_26 
REMARK       I    between atoms: N6_28  and  C11_30 
REMARK       I    between atoms: C11_30  and  N10_39 
REMARK    9  A    between atoms: N7_31  and  C12_33 
REMARK   10  A    between atoms: C12_33  and  C13_34 
REMARK   11  A    between atoms: C13_34  and  N8_35 
REMARK   12  A    between atoms: N8_35  and  N9_36 
ROOT
HETATM    1  N5  UNL     1     -12.115  97.016  17.426  1.00  0.00    -0.269 N 
ATOM      2  H5  UNL     1     -13.055  97.388  17.289  1.00  0.00     0.189 HD
HETATM    3  N6  UNL     1     -11.307  97.032  16.444  1.00  0.00    -0.130 N 
ATOM      4  H6  UNL     1     -10.367  96.660  16.577  1.00  0.00     0.205 HD
HETATM    5  C11 UNL     1     -11.663  97.547  15.172  1.00  0.00     0.701 C 
HETATM    6  N7  UNL     1     -11.008  97.216  14.136  1.00  0.00    -0.223 N 
ATOM      7  H7  UNL     1     -11.301  97.612  13.242  1.00  0.00     0.177 HD
HETATM    8  N10 UNL     1     -12.761  98.450  14.995  1.00  0.00    -0.125 N 
ATOM      9  H10 UNL     1     -13.660  98.089  14.678  1.00  0.00     0.197 HD
HETATM   10  C14 UNL     1     -12.622  99.819  15.250  1.00  0.00     0.196 C 
HETATM   11  N11 UNL     1     -12.505 100.966  15.451  1.00  0.00    -0.171 NA
ENDROOT
BRANCH   6  12
HETATM   12  C12 UNL     1      -9.875  96.316  14.136  1.00  0.00     0.156 C 
BRANCH  12  13
HETATM   13  C13 UNL     1      -9.714  95.592  12.834  1.00  0.00     0.154 C 
BRANCH  13  14
HETATM   14  N8  UNL     1      -8.614  94.643  12.886  1.00  0.00    -0.147 NA
BRANCH  14  15
HETATM   15  N9  UNL     1      -9.155  93.348  12.755  1.00  0.00    -0.348 N 
ATOM     16  H92 UNL     1     -10.038  93.035  13.157  1.00  0.00     0.172 HD
ATOM     17  H91 UNL     1      -8.508  92.796  12.192  1.00  0.00     0.172 HD
ENDBRANCH  14  15
ENDBRANCH  13  14
ENDBRANCH  12  13
ENDBRANCH   6  12
BRANCH   1  18
HETATM   18  C10 UNL     1     -11.769  96.507  18.695  1.00  0.00     0.159 A 
HETATM   19  C2  UNL     1     -10.576  96.731  19.347  1.00  0.00     0.068 A 
HETATM   20  C1  UNL     1      -9.427  97.553  18.838  1.00  0.00     0.073 C 
HETATM   21  N1  UNL     1     -10.663  96.068  20.513  1.00  0.00    -0.191 N 
HETATM   22  C3  UNL     1     -11.848  95.441  20.624  1.00  0.00     0.697 A 
ATOM     23  H1  UNL     1      -9.929  96.044  21.220  1.00  0.00     0.184 HD
HETATM   24  N4  UNL     1     -12.521  95.723  19.489  1.00  0.00    -0.172 N 
ATOM     25  H4  UNL     1     -13.460  95.392  19.266  1.00  0.00     0.186 HD
BRANCH  22  26
HETATM   26  N2  UNL     1     -12.302  94.631  21.735  1.00  0.00    -0.072 N 
HETATM   27  C4  UNL     1     -12.841  93.412  21.617  1.00  0.00     0.184 A 
HETATM   28  C5  UNL     1     -13.144  92.963  22.876  1.00  0.00     0.164 A 
HETATM   29  N3  UNL     1     -12.786  93.913  23.750  1.00  0.00    -0.215 N 
HETATM   30  C6  UNL     1     -12.938  93.826  25.154  1.00  0.00     0.377 C 
HETATM   31  C9  UNL     1     -12.270  94.931  23.025  1.00  0.00     0.358 A 
HETATM   32  O2  UNL     1     -13.443  92.792  25.643  1.00  0.00    -0.237 OA
HETATM   33  O6  UNL     1     -11.821  96.012  23.495  1.00  0.00    -0.245 OA
BRANCH  27  34
HETATM   34  O1  UNL     1     -13.043  92.751  20.411  1.00  0.00    -0.344 OA
ATOM     35  H1  UNL     1     -13.779  92.901  19.830  1.00  0.00     0.219 HD
ENDBRANCH  27  34
BRANCH  30  36
HETATM   36  O3  UNL     1     -12.553  94.833  26.021  1.00  0.00    -0.270 OA
BRANCH  36  37
HETATM   37  C7  UNL     1     -13.516  95.686  26.606  1.00  0.00     0.291 C 
BRANCH  37  38
HETATM   38  O4  UNL     1     -14.821  95.303  26.313  1.00  0.00    -0.369 OA
ATOM     39  H4  UNL     1     -15.440  96.020  26.388  1.00  0.00     0.212 HD
ENDBRANCH  37  38
BRANCH  37  40
HETATM   40  C8  UNL     1     -13.318  95.705  28.124  1.00  0.00     0.225 C 
BRANCH  40  41
HETATM   41  O5  UNL     1     -12.012  95.327  28.416  1.00  0.00    -0.396 OA
ATOM     42  H5  UNL     1     -11.500  96.104  28.609  1.00  0.00     0.209 HD
ENDBRANCH  40  41
ENDBRANCH  37  40
ENDBRANCH  36  37
ENDBRANCH  30  36
ENDBRANCH  22  26
ENDBRANCH   1  18
TORSDOF 12
ENDMDL
MODEL 4
REMARK VINA RESULT: -7.584237433      2.175      3.367
REMARK  12 active torsions:
REMARK  status: ('A' for Active; 'I' for Inactive)
REMARK    1  A    between atoms: C3_5  and  N2_6 
REMARK    2  A    between atoms: C4_7  and  O1_8 
REMARK       I    between atoms: N3_11  and  C6_12 
REMARK    3  A    between atoms: C6_12  and  O3_14 
REMARK    4  A    between atoms: O3_14  and  C7_15 
REMARK    5  A    between atoms: C7_15  and  O4_16 
REMARK    6  A    between atoms: C7_15  and  C8_18 
REMARK    7  A    between atoms: C8_18  and  O5_19 
REMARK    8  A    between atoms: C10_25  and  N5_26 
REMARK       I    between atoms: N6_28  and  C11_30 
REMARK       I    between atoms: C11_30  and  N10_39 
REMARK    9  A    between atoms: N7_31  and  C12_33 
REMARK   10  A    between atoms: C12_33  and  C13_34 
REMARK   11  A    between atoms: C13_34  and  N8_35 
REMARK   12  A    between atoms: N8_35  and  N9_36 
ROOT
HETATM    1  N5  UNL     1     -11.823  95.808  17.783  1.00  0.00    -0.269 N 
ATOM      2  H5  UNL     1     -12.461  95.475  17.061  1.00  0.00     0.189 HD
HETATM    3  N6  UNL     1     -10.905  96.623  17.455  1.00  0.00    -0.130 N 
ATOM      4  H6  UNL     1     -10.265  96.958  18.175  1.00  0.00     0.205 HD
HETATM    5  C11 UNL     1     -10.737  97.086  16.124  1.00  0.00     0.701 C 
HETATM    6  N7  UNL     1      -9.628  97.574  15.747  1.00  0.00    -0.223 N 
ATOM      7  H7  UNL     1      -9.554  97.895  14.782  1.00  0.00     0.177 HD
HETATM    8  N10 UNL     1     -11.792  97.027  15.158  1.00  0.00    -0.125 N 
ATOM      9  H10 UNL     1     -11.812  96.262  14.485  1.00  0.00     0.197 HD
HETATM   10  C14 UNL     1     -12.797  98.001  15.121  1.00  0.00     0.196 C 
HETATM   11  N11 UNL     1     -13.632  98.820  15.081  1.00  0.00    -0.171 NA
ENDROOT
BRANCH   6  12
HETATM   12  C12 UNL     1      -8.461  97.707  16.593  1.00  0.00     0.156 C 
BRANCH  12  13
HETATM   13  C13 UNL     1      -8.467  98.977  17.389  1.00  0.00     0.154 C 
BRANCH  13  14
HETATM   14  N8  UNL     1      -8.768  98.724  18.788  1.00  0.00    -0.147 NA
BRANCH  14  15
HETATM   15  N9  UNL     1      -9.839  99.564  19.157  1.00  0.00    -0.348 N 
ATOM     16  H92 UNL     1     -10.154  99.733  20.112  1.00  0.00     0.172 HD
ATOM     17  H91 UNL     1     -10.231  99.962  18.303  1.00  0.00     0.172 HD
ENDBRANCH  14  15
ENDBRANCH  13  14
ENDBRANCH  12  13
ENDBRANCH   6  12
BRANCH   1  18
HETATM   18  C10 UNL     1     -11.998  95.342  19.104  1.00  0.00     0.159 A 
HETATM   19  C2  UNL     1     -12.479  94.100  19.454  1.00  0.00     0.068 A 
HETATM   20  C1  UNL     1     -12.904  93.014  18.509  1.00  0.00     0.073 C 
HETATM   21  N1  UNL     1     -12.484  94.073  20.799  1.00  0.00    -0.191 N 
HETATM   22  C3  UNL     1     -12.032  95.233  21.306  1.00  0.00     0.697 A 
ATOM     23  H1  UNL     1     -12.790  93.278  21.359  1.00  0.00     0.184 HD
HETATM   24  N4  UNL     1     -11.735  96.009  20.242  1.00  0.00    -0.172 N 
ATOM     25  H4  UNL     1     -11.365  96.959  20.293  1.00  0.00     0.186 HD
BRANCH  22  26
HETATM   26  N2  UNL     1     -11.894  95.574  22.706  1.00  0.00    -0.072 N 
HETATM   27  C4  UNL     1     -10.765  96.013  23.275  1.00  0.00     0.184 A 
HETATM   28  C5  UNL     1     -11.020  96.230  24.604  1.00  0.00     0.164 A 
HETATM   29  N3  UNL     1     -12.304  95.920  24.833  1.00  0.00    -0.215 N 
HETATM   30  C6  UNL     1     -12.950  96.010  26.088  1.00  0.00     0.377 C 
HETATM   31  C9  UNL     1     -12.821  95.519  23.650  1.00  0.00     0.358 A 
HETATM   32  O2  UNL     1     -12.296  96.408  27.077  1.00  0.00    -0.237 OA
HETATM   33  O6  UNL     1     -14.011  95.145  23.461  1.00  0.00    -0.245 OA
BRANCH  27  34
HETATM   34  O1  UNL     1      -9.563  96.203  22.602  1.00  0.00    -0.344 OA
ATOM     35  H1  UNL     1      -9.061  95.512  22.188  1.00  0.00     0.219 HD
ENDBRANCH  27  34
BRANCH  30  36
HETATM   36  O3  UNL     1     -14.281  95.680  26.280  1.00  0.00    -0.270 OA
BRANCH  36  37
HETATM   37  C7  UNL     1     -14.644  94.389  26.723  1.00  0.00     0.291 C 
BRANCH  37  38
HETATM   38  O4  UNL     1     -13.576  93.497  26.714  1.00  0.00    -0.369 OA
ATOM     39  H4  UNL     1     -13.299  93.246  27.587  1.00  0.00     0.212 HD
ENDBRANCH  37  38
BRANCH  37  40
HETATM   40  C8  UNL     1     -15.217  94.485  28.140  1.00  0.00     0.225 C 
BRANCH  40  41
HETATM   41  O5  UNL     1     -14.225  94.942  29.001  1.00  0.00    -0.396 OA
ATOM     42  H5  UNL     1     -14.446  94.690  29.890  1.00  0.00     0.209 HD
ENDBRANCH  40  41
ENDBRANCH  37  40
ENDBRANCH  36  37
ENDBRANCH  30  36
ENDBRANCH  22  26
ENDBRANCH   1  18
TORSDOF 12
ENDMDL
MODEL 5
REMARK VINA RESULT: -7.552529965      2.354      4.202
REMARK  12 active torsions:
REMARK  status: ('A' for Active; 'I' for Inactive)
REMARK    1  A    between atoms: C3_5  and  N2_6 
REMARK    2  A    between atoms: C4_7  and  O1_8 
REMARK       I    between atoms: N3_11  and  C6_12 
REMARK    3  A    between atoms: C6_12  and  O3_14 
REMARK    4  A    between atoms: O3_14  and  C7_15 
REMARK    5  A    between atoms: C7_15  and  O4_16 
REMARK    6  A    between atoms: C7_15  and  C8_18 
REMARK    7  A    between atoms: C8_18  and  O5_19 
REMARK    8  A    between atoms: C10_25  and  N5_26 
REMARK       I    between atoms: N6_28  and  C11_30 
REMARK       I    between atoms: C11_30  and  N10_39 
REMARK    9  A    between atoms: N7_31  and  C12_33 
REMARK   10  A    between atoms: C12_33  and  C13_34 
REMARK   11  A    between atoms: C13_34  and  N8_35 
REMARK   12  A    between atoms: N8_35  and  N9_36 
ROOT
HETATM    1  N5  UNL     1     -13.274  97.284  13.887  1.00  0.00    -0.269 N 
ATOM      2  H5  UNL     1     -13.456  96.729  13.051  1.00  0.00     0.189 HD
HETATM    3  N6  UNL     1     -13.917  98.368  14.049  1.00  0.00    -0.130 N 
ATOM      4  H6  UNL     1     -13.737  98.926  14.884  1.00  0.00     0.205 HD
HETATM    5  C11 UNL     1     -14.876  98.832  13.113  1.00  0.00     0.701 C 
HETATM    6  N7  UNL     1     -15.215 100.056  13.090  1.00  0.00    -0.223 N 
ATOM      7  H7  UNL     1     -15.909 100.344  12.400  1.00  0.00     0.177 HD
HETATM    8  N10 UNL     1     -15.499  97.960  12.163  1.00  0.00    -0.125 N 
ATOM      9  H10 UNL     1     -15.144  97.925  11.208  1.00  0.00     0.197 HD
HETATM   10  C14 UNL     1     -16.585  97.154  12.523  1.00  0.00     0.196 C 
HETATM   11  N11 UNL     1     -17.501  96.488  12.818  1.00  0.00    -0.171 NA
ENDROOT
BRANCH   6  12
HETATM   12  C12 UNL     1     -14.684 101.069  13.976  1.00  0.00     0.156 C 
BRANCH  12  13
HETATM   13  C13 UNL     1     -13.426 101.693  13.451  1.00  0.00     0.154 C 
BRANCH  13  14
HETATM   14  N8  UNL     1     -12.282 101.362  14.284  1.00  0.00    -0.147 NA
BRANCH  14  15
HETATM   15  N9  UNL     1     -11.220 102.212  13.914  1.00  0.00    -0.348 N 
ATOM     16  H92 UNL     1     -11.310 103.201  13.681  1.00  0.00     0.172 HD
ATOM     17  H91 UNL     1     -10.362 101.661  13.925  1.00  0.00     0.172 HD
ENDBRANCH  14  15
ENDBRANCH  13  14
ENDBRANCH  12  13
ENDBRANCH   6  12
BRANCH   1  18
HETATM   18  C10 UNL     1     -12.318  96.814  14.813  1.00  0.00     0.159 A 
HETATM   19  C2  UNL     1     -11.293  95.940  14.527  1.00  0.00     0.068 A 
HETATM   20  C1  UNL     1     -10.997  95.326  13.188  1.00  0.00     0.073 C 
HETATM   21  N1  UNL     1     -10.628  95.760  15.682  1.00  0.00    -0.191 N 
HETATM   22  C3  UNL     1     -11.186  96.476  16.674  1.00  0.00     0.697 A 
ATOM     23  H1  UNL     1      -9.811  95.161  15.791  1.00  0.00     0.184 HD
HETATM   24  N4  UNL     1     -12.232  97.123  16.119  1.00  0.00    -0.172 N 
ATOM     25  H4  UNL     1     -12.863  97.753  16.615  1.00  0.00     0.186 HD
BRANCH  22  26
HETATM   26  N2  UNL     1     -10.749  96.535  18.054  1.00  0.00    -0.072 N 
HETATM   27  C4  UNL     1      -9.500  96.817  18.445  1.00  0.00     0.184 A 
HETATM   28  C5  UNL     1      -9.471  96.781  19.815  1.00  0.00     0.164 A 
HETATM   29  N3  UNL     1     -10.703  96.478  20.246  1.00  0.00    -0.215 N 
HETATM   30  C6  UNL     1     -11.080  96.346  21.603  1.00  0.00     0.377 C 
HETATM   31  C9  UNL     1     -11.472  96.330  19.144  1.00  0.00     0.358 A 
HETATM   32  O2  UNL     1     -10.215  96.522  22.489  1.00  0.00    -0.237 OA
HETATM   33  O6  UNL     1     -12.700  96.042  19.141  1.00  0.00    -0.245 OA
BRANCH  27  34
HETATM   34  O1  UNL     1      -8.445  97.092  17.582  1.00  0.00    -0.344 OA
ATOM     35  H1  UNL     1      -8.004  97.930  17.519  1.00  0.00     0.219 HD
ENDBRANCH  27  34
BRANCH  30  36
HETATM   36  O3  UNL     1     -12.367  96.031  22.004  1.00  0.00    -0.270 OA
BRANCH  36  37
HETATM   37  C7  UNL     1     -12.592  95.026  22.971  1.00  0.00     0.291 C 
BRANCH  37  38
HETATM   38  O4  UNL     1     -11.469  94.238  23.200  1.00  0.00    -0.369 OA
ATOM     39  H4  UNL     1     -10.679  94.751  23.323  1.00  0.00     0.212 HD
ENDBRANCH  37  38
BRANCH  37  40
HETATM   40  C8  UNL     1     -13.034  95.680  24.283  1.00  0.00     0.225 C 
BRANCH  40  41
HETATM   41  O5  UNL     1     -11.907  96.079  24.994  1.00  0.00    -0.396 OA
ATOM     42  H5  UNL     1     -11.927  97.022  25.103  1.00  0.00     0.209 HD
ENDBRANCH  40  41
ENDBRANCH  37  40
ENDBRANCH  36  37
ENDBRANCH  30  36
ENDBRANCH  22  26
ENDBRANCH   1  18
TORSDOF 12
ENDMDL
