MODEL 1
REMARK VINA RESULT: -7.687475363      0.000      0.000
REMARK  9 active torsions:
REMARK  status: ('A' for Active; 'I' for Inactive)
REMARK    1  A    between atoms: S1_2  and  C2_3 
REMARK    2  A    between atoms: C2_3  and  O1_4 
REMARK    3  A    between atoms: N1_6  and  O2_7 
REMARK    4  A    between atoms: C4_12  and  S2_13 
REMARK    5  A    between atoms: S2_13  and  C5_14 
REMARK    6  A    between atoms: C6_18  and  N4_19 
REMARK    7  A    between atoms: C7_21  and  C8_22 
REMARK       I    between atoms: N5_24  and  C10_25 
REMARK       I    between atoms: C10_25  and  N6_26 
REMARK       I    between atoms: C10_25  and  N7_30 
REMARK    8  A    between atoms: C11_34  and  N8_35 
REMARK    9  A    between atoms: N10_41  and  O4_42 
ROOT
HETATM    1  C2  UNL     1      -9.623  97.573  17.992  1.00  0.00     0.320 C 
HETATM    2  N1  UNL     1      -9.091  96.646  17.016  1.00  0.00    -0.175 N 
HETATM    3  C3  UNL     1     -10.079  96.589  15.990  1.00  0.00     0.169 A 
HETATM    4  N2  UNL     1     -10.279  95.637  15.067  1.00  0.00    -0.319 N 
ATOM      5  H2  UNL     1      -9.689  94.806  15.024  1.00  0.00     0.169 HD
HETATM    6  C4  UNL     1     -11.288  95.825  14.201  1.00  0.00     0.154 A 
HETATM    7  N3  UNL     1     -12.055  96.896  14.246  1.00  0.00    -0.321 N 
ATOM      8  H3  UNL     1     -12.805  96.981  13.560  1.00  0.00     0.169 HD
HETATM    9  C6  UNL     1     -11.899  97.913  15.175  1.00  0.00     0.140 A 
HETATM   10  C12 UNL     1     -10.866  97.719  16.061  1.00  0.00     0.153 A 
HETATM   11  N10 UNL     1     -10.362  98.492  17.143  1.00  0.00    -0.187 N 
ENDROOT
BRANCH   9  12
HETATM   12  N4  UNL     1     -12.648  98.865  15.154  1.00  0.00    -0.348 N 
HETATM   13  C7  UNL     1     -13.627  99.623  15.721  1.00  0.00     0.121 C 
ATOM     14  H4  UNL     1     -12.443  99.331  14.271  1.00  0.00     0.167 HD
BRANCH  13  15
HETATM   15  C8  UNL     1     -14.119 100.745  14.821  1.00  0.00     0.080 A 
HETATM   16  C9  UNL     1     -13.540 101.116  13.635  1.00  0.00     0.144 A 
HETATM   17  N5  UNL     1     -14.288 102.139  13.170  1.00  0.00    -0.137 N 
HETATM   18  C10 UNL     1     -14.029 102.829  11.942  1.00  0.00     0.500 C 
HETATM   19  C11 UNL     1     -15.296 102.406  14.022  1.00  0.00     0.681 A 
HETATM   20  N6  UNL     1     -12.697 102.520  11.441  1.00  0.00    -0.032 N 
HETATM   21  N7  UNL     1     -14.959 102.435  10.881  1.00  0.00    -0.032 N 
ATOM     22  H63 UNL     1     -11.978 102.713  12.139  1.00  0.00     0.279 HD
ATOM     23  H62 UNL     1     -12.554 101.515  11.346  1.00  0.00     0.279 HD
ATOM     24  H61 UNL     1     -12.513 103.011  10.566  1.00  0.00     0.279 HD
ATOM     25  H73 UNL     1     -14.956 101.425  10.744  1.00  0.00     0.279 HD
ATOM     26  H72 UNL     1     -15.927 102.557  11.175  1.00  0.00     0.279 HD
ATOM     27  H71 UNL     1     -14.775 102.926  10.006  1.00  0.00     0.279 HD
HETATM   28  N9  UNL     1     -15.182 101.530  15.052  1.00  0.00    -0.189 N 
ATOM     29  H9  UNL     1     -15.800 101.477  15.862  1.00  0.00     0.184 HD
BRANCH  19  30
HETATM   30  N8  UNL     1     -16.211 103.310  13.915  1.00  0.00    -0.234 N 
ATOM     31  H82 UNL     1     -16.148 104.255  14.293  1.00  0.00     0.174 HD
ATOM     32  H81 UNL     1     -17.117 103.235  13.454  1.00  0.00     0.174 HD
ENDBRANCH  19  30
ENDBRANCH  13  15
ENDBRANCH   9  12
BRANCH   6  33
HETATM   33  S2  UNL     1     -11.565  94.554  12.955  1.00  0.00    -0.025 SA
BRANCH  33  34
HETATM   34  C5  UNL     1     -10.022  93.848  12.431  1.00  0.00     0.312 C 
HETATM   35  O3  UNL     1      -8.945  94.121  12.904  1.00  0.00    -0.295 OA
ENDBRANCH  33  34
ENDBRANCH   6  33
BRANCH  11  36
HETATM   36  O4  UNL     1     -10.517  99.818  17.366  1.00  0.00    -0.282 OA
ATOM     37  H4  UNL     1      -9.876 100.490  17.168  1.00  0.00     0.245 HD
ENDBRANCH  11  36
BRANCH   2  38
HETATM   38  O2  UNL     1      -7.916  96.007  17.109  1.00  0.00    -0.281 OA
ATOM     39  H2  UNL     1      -7.801  95.064  17.144  1.00  0.00     0.245 HD
ENDBRANCH   2  38
BRANCH   1  40
HETATM   40  S1  UNL     1     -10.750  96.689  19.089  1.00  0.00    -0.086 SA
HETATM   41  C1  UNL     1     -11.609  97.926  20.113  1.00  0.00     0.097 C 
ENDBRANCH   1  40
BRANCH   1  42
HETATM   42  O1  UNL     1      -8.612  98.236  18.682  1.00  0.00    -0.342 OA
ATOM     43  H1  UNL     1      -7.966  98.623  18.103  1.00  0.00     0.215 HD
ENDBRANCH   1  42
TORSDOF 9
ENDMDL
MODEL 2
REMARK VINA RESULT: -7.522853182      1.125      1.139
REMARK  9 active torsions:
REMARK  status: ('A' for Active; 'I' for Inactive)
REMARK    1  A    between atoms: S1_2  and  C2_3 
REMARK    2  A    between atoms: C2_3  and  O1_4 
REMARK    3  A    between atoms: N1_6  and  O2_7 
REMARK    4  A    between atoms: C4_12  and  S2_13 
REMARK    5  A    between atoms: S2_13  and  C5_14 
REMARK    6  A    between atoms: C6_18  and  N4_19 
REMARK    7  A    between atoms: C7_21  and  C8_22 
REMARK       I    between atoms: N5_24  and  C10_25 
REMARK       I    between atoms: C10_25  and  N6_26 
REMARK       I    between atoms: C10_25  and  N7_30 
REMARK    8  A    between atoms: C11_34  and  N8_35 
REMARK    9  A    between atoms: N10_41  and  O4_42 
ROOT
HETATM    1  C2  UNL     1      -9.626  97.567  17.986  1.00  0.00     0.320 C 
HETATM    2  N1  UNL     1      -9.096  96.640  17.007  1.00  0.00    -0.175 N 
HETATM    3  C3  UNL     1     -10.085  96.588  15.982  1.00  0.00     0.169 A 
HETATM    4  N2  UNL     1     -10.288  95.639  15.056  1.00  0.00    -0.319 N 
ATOM      5  H2  UNL     1      -9.700  94.806  15.011  1.00  0.00     0.169 HD
HETATM    6  C4  UNL     1     -11.296  95.831  14.191  1.00  0.00     0.154 A 
HETATM    7  N3  UNL     1     -12.062  96.904  14.239  1.00  0.00    -0.321 N 
ATOM      8  H3  UNL     1     -12.811  96.992  13.554  1.00  0.00     0.169 HD
HETATM    9  C6  UNL     1     -11.903  97.918  15.170  1.00  0.00     0.140 A 
HETATM   10  C12 UNL     1     -10.870  97.720  16.056  1.00  0.00     0.153 A 
HETATM   11  N10 UNL     1     -10.364  98.489  17.140  1.00  0.00    -0.187 N 
ENDROOT
BRANCH   9  12
HETATM   12  N4  UNL     1     -12.649  98.871  15.153  1.00  0.00    -0.348 N 
HETATM   13  C7  UNL     1     -13.623  99.634  15.724  1.00  0.00     0.121 C 
ATOM     14  H4  UNL     1     -12.449  99.335  14.267  1.00  0.00     0.167 HD
BRANCH  13  15
HETATM   15  C8  UNL     1     -14.118 100.754  14.825  1.00  0.00     0.080 A 
HETATM   16  C9  UNL     1     -13.538 101.129  13.640  1.00  0.00     0.144 A 
HETATM   17  N5  UNL     1     -14.290 102.150  13.175  1.00  0.00    -0.137 N 
HETATM   18  C10 UNL     1     -14.033 102.842  11.947  1.00  0.00     0.500 C 
HETATM   19  C11 UNL     1     -15.300 102.412  14.026  1.00  0.00     0.681 A 
HETATM   20  N6  UNL     1     -12.698 102.540  11.449  1.00  0.00    -0.032 N 
HETATM   21  N7  UNL     1     -14.959 102.446  10.885  1.00  0.00    -0.032 N 
ATOM     22  H63 UNL     1     -11.981 102.735  12.148  1.00  0.00     0.279 HD
ATOM     23  H62 UNL     1     -12.551 101.535  11.353  1.00  0.00     0.279 HD
ATOM     24  H61 UNL     1     -12.515 103.033  10.575  1.00  0.00     0.279 HD
ATOM     25  H73 UNL     1     -14.952 101.435  10.747  1.00  0.00     0.279 HD
ATOM     26  H72 UNL     1     -15.928 102.563  11.178  1.00  0.00     0.279 HD
ATOM     27  H71 UNL     1     -14.776 102.939  10.011  1.00  0.00     0.279 HD
HETATM   28  N9  UNL     1     -15.185 101.535  15.055  1.00  0.00    -0.189 N 
ATOM     29  H9  UNL     1     -15.803 101.478  15.864  1.00  0.00     0.184 HD
BRANCH  19  30
HETATM   30  N8  UNL     1     -16.219 103.312  13.918  1.00  0.00    -0.234 N 
ATOM     31  H82 UNL     1     -16.580 103.876  14.688  1.00  0.00     0.174 HD
ATOM     32  H81 UNL     1     -16.722 103.600  13.080  1.00  0.00     0.174 HD
ENDBRANCH  19  30
ENDBRANCH  13  15
ENDBRANCH   9  12
BRANCH   6  33
HETATM   33  S2  UNL     1     -11.577  94.563  12.942  1.00  0.00    -0.025 SA
BRANCH  33  34
HETATM   34  C5  UNL     1     -12.770  95.117  11.750  1.00  0.00     0.312 C 
HETATM   35  O3  UNL     1     -13.773  95.734  12.016  1.00  0.00    -0.295 OA
ENDBRANCH  33  34
ENDBRANCH   6  33
BRANCH  11  36
HETATM   36  O4  UNL     1     -10.515  99.814  17.365  1.00  0.00    -0.282 OA
ATOM     37  H4  UNL     1     -11.075 100.399  16.868  1.00  0.00     0.245 HD
ENDBRANCH  11  36
BRANCH   2  38
HETATM   38  O2  UNL     1      -7.923  95.998  17.098  1.00  0.00    -0.281 OA
ATOM     39  H2  UNL     1      -7.351  95.787  16.369  1.00  0.00     0.245 HD
ENDBRANCH   2  38
BRANCH   1  40
HETATM   40  S1  UNL     1     -10.755  96.682  19.082  1.00  0.00    -0.086 SA
HETATM   41  C1  UNL     1     -11.612  97.919  20.107  1.00  0.00     0.097 C 
ENDBRANCH   1  40
BRANCH   1  42
HETATM   42  O1  UNL     1      -8.613  98.225  18.676  1.00  0.00    -0.342 OA
ATOM     43  H1  UNL     1      -7.830  98.346  18.152  1.00  0.00     0.215 HD
ENDBRANCH   1  42
TORSDOF 9
ENDMDL
MODEL 3
REMARK VINA RESULT: -7.295691766      1.911      2.042
REMARK  9 active torsions:
REMARK  status: ('A' for Active; 'I' for Inactive)
REMARK    1  A    between atoms: S1_2  and  C2_3 
REMARK    2  A    between atoms: C2_3  and  O1_4 
REMARK    3  A    between atoms: N1_6  and  O2_7 
REMARK    4  A    between atoms: C4_12  and  S2_13 
REMARK    5  A    between atoms: S2_13  and  C5_14 
REMARK    6  A    between atoms: C6_18  and  N4_19 
REMARK    7  A    between atoms: C7_21  and  C8_22 
REMARK       I    between atoms: N5_24  and  C10_25 
REMARK       I    between atoms: C10_25  and  N6_26 
REMARK       I    between atoms: C10_25  and  N7_30 
REMARK    8  A    between atoms: C11_34  and  N8_35 
REMARK    9  A    between atoms: N10_41  and  O4_42 
ROOT
HETATM    1  C2  UNL     1     -10.484  98.246  18.519  1.00  0.00     0.320 C 
HETATM    2  N1  UNL     1      -9.926  96.981  18.090  1.00  0.00    -0.175 N 
HETATM    3  C3  UNL     1     -10.797  96.530  17.056  1.00  0.00     0.169 A 
HETATM    4  N2  UNL     1     -10.972  95.286  16.587  1.00  0.00    -0.319 N 
ATOM      5  H2  UNL     1     -10.452  94.495  16.968  1.00  0.00     0.169 HD
HETATM    6  C4  UNL     1     -11.861  95.124  15.594  1.00  0.00     0.154 A 
HETATM    7  N3  UNL     1     -12.539  96.138  15.092  1.00  0.00    -0.321 N 
ATOM      8  H3  UNL     1     -13.199  95.951  14.338  1.00  0.00     0.169 HD
HETATM    9  C6  UNL     1     -12.403  97.445  15.534  1.00  0.00     0.140 A 
HETATM   10  C12 UNL     1     -11.492  97.609  16.551  1.00  0.00     0.153 A 
HETATM   11  N10 UNL     1     -11.048  98.748  17.277  1.00  0.00    -0.187 N 
ENDROOT
BRANCH   9  12
HETATM   12  N4  UNL     1     -13.064  98.322  15.025  1.00  0.00    -0.348 N 
HETATM   13  C7  UNL     1     -14.158  98.739  14.329  1.00  0.00     0.121 C 
ATOM     14  H4  UNL     1     -12.538  99.177  15.208  1.00  0.00     0.167 HD
BRANCH  13  15
HETATM   15  C8  UNL     1     -14.128 100.219  13.986  1.00  0.00     0.080 A 
HETATM   16  C9  UNL     1     -14.508 100.759  12.784  1.00  0.00     0.144 A 
HETATM   17  N5  UNL     1     -14.325 102.091  12.910  1.00  0.00    -0.137 N 
HETATM   18  C10 UNL     1     -14.604 103.040  11.875  1.00  0.00     0.500 C 
HETATM   19  C11 UNL     1     -13.850 102.384  14.136  1.00  0.00     0.681 A 
HETATM   20  N6  UNL     1     -14.780 102.375  10.591  1.00  0.00    -0.032 N 
HETATM   21  N7  UNL     1     -15.845 103.777  12.120  1.00  0.00    -0.032 N 
ATOM     22  H63 UNL     1     -13.979 101.788  10.357  1.00  0.00     0.279 HD
ATOM     23  H62 UNL     1     -15.495 101.649  10.638  1.00  0.00     0.279 HD
ATOM     24  H61 UNL     1     -14.978 103.051   9.854  1.00  0.00     0.279 HD
ATOM     25  H73 UNL     1     -16.630 103.142  12.259  1.00  0.00     0.279 HD
ATOM     26  H72 UNL     1     -15.834 104.224  13.036  1.00  0.00     0.279 HD
ATOM     27  H71 UNL     1     -16.043 104.454  11.383  1.00  0.00     0.279 HD
HETATM   28  N9  UNL     1     -13.730 101.208  14.802  1.00  0.00    -0.189 N 
ATOM     29  H9  UNL     1     -13.395 101.094  15.759  1.00  0.00     0.184 HD
BRANCH  19  30
HETATM   30  N8  UNL     1     -13.556 103.543  14.620  1.00  0.00    -0.234 N 
ATOM     31  H82 UNL     1     -12.747 104.103  14.350  1.00  0.00     0.174 HD
ATOM     32  H81 UNL     1     -14.061 104.076  15.327  1.00  0.00     0.174 HD
ENDBRANCH  19  30
ENDBRANCH  13  15
ENDBRANCH   9  12
BRANCH   6  33
HETATM   33  S2  UNL     1     -12.104  93.457  14.955  1.00  0.00    -0.025 SA
BRANCH  33  34
HETATM   34  C5  UNL     1     -13.834  93.109  14.763  1.00  0.00     0.312 C 
HETATM   35  O3  UNL     1     -14.725  93.880  15.031  1.00  0.00    -0.295 OA
ENDBRANCH  33  34
ENDBRANCH   6  33
BRANCH  11  36
HETATM   36  O4  UNL     1     -11.116 100.049  16.913  1.00  0.00    -0.282 OA
ATOM     37  H4  UNL     1     -11.285 100.369  16.035  1.00  0.00     0.245 HD
ENDBRANCH  11  36
BRANCH   2  38
HETATM   38  O2  UNL     1      -8.825  96.405  18.594  1.00  0.00    -0.281 OA
ATOM     39  H2  UNL     1      -7.952  96.464  18.222  1.00  0.00     0.245 HD
ENDBRANCH   2  38
BRANCH   1  40
HETATM   40  S1  UNL     1     -11.793  97.934  19.721  1.00  0.00    -0.086 SA
HETATM   41  C1  UNL     1     -11.165  96.711  20.916  1.00  0.00     0.097 C 
ENDBRANCH   1  40
BRANCH   1  42
HETATM   42  O1  UNL     1      -9.503  99.106  19.004  1.00  0.00    -0.342 OA
ATOM     43  H1  UNL     1      -9.863  99.823  19.513  1.00  0.00     0.215 HD
ENDBRANCH   1  42
TORSDOF 9
ENDMDL
MODEL 4
REMARK VINA RESULT: -6.932268122      4.758      8.335
REMARK  9 active torsions:
REMARK  status: ('A' for Active; 'I' for Inactive)
REMARK    1  A    between atoms: S1_2  and  C2_3 
REMARK    2  A    between atoms: C2_3  and  O1_4 
REMARK    3  A    between atoms: N1_6  and  O2_7 
REMARK    4  A    between atoms: C4_12  and  S2_13 
REMARK    5  A    between atoms: S2_13  and  C5_14 
REMARK    6  A    between atoms: C6_18  and  N4_19 
REMARK    7  A    between atoms: C7_21  and  C8_22 
REMARK       I    between atoms: N5_24  and  C10_25 
REMARK       I    between atoms: C10_25  and  N6_26 
REMARK       I    between atoms: C10_25  and  N7_30 
REMARK    8  A    between atoms: C11_34  and  N8_35 
REMARK    9  A    between atoms: N10_41  and  O4_42 
ROOT
HETATM    1  C2  UNL     1     -10.968  98.067  17.043  1.00  0.00     0.320 C 
HETATM    2  N1  UNL     1     -11.838  97.627  15.972  1.00  0.00    -0.175 N 
HETATM    3  C3  UNL     1     -12.247  96.315  16.351  1.00  0.00     0.169 A 
HETATM    4  N2  UNL     1     -12.728  95.329  15.581  1.00  0.00    -0.319 N 
ATOM      5  H2  UNL     1     -12.847  95.449  14.575  1.00  0.00     0.169 HD
HETATM    6  C4  UNL     1     -13.048  94.175  16.190  1.00  0.00     0.154 A 
HETATM    7  N3  UNL     1     -12.900  94.008  17.489  1.00  0.00    -0.321 N 
ATOM      8  H3  UNL     1     -13.161  93.109  17.892  1.00  0.00     0.169 HD
HETATM    9  C6  UNL     1     -12.409  94.988  18.337  1.00  0.00     0.140 A 
HETATM   10  C12 UNL     1     -12.082  96.168  17.713  1.00  0.00     0.153 A 
HETATM   11  N10 UNL     1     -11.565  97.404  18.190  1.00  0.00    -0.187 N 
ENDROOT
BRANCH   9  12
HETATM   12  N4  UNL     1     -12.299  94.757  19.521  1.00  0.00    -0.348 N 
HETATM   13  C7  UNL     1     -12.342  93.897  20.577  1.00  0.00     0.121 C 
ATOM     14  H4  UNL     1     -12.049  95.655  19.934  1.00  0.00     0.167 HD
BRANCH  13  15
HETATM   15  C8  UNL     1     -12.145  94.580  21.920  1.00  0.00     0.080 A 
HETATM   16  C9  UNL     1     -13.078  94.631  22.923  1.00  0.00     0.144 A 
HETATM   17  N5  UNL     1     -12.496  95.324  23.925  1.00  0.00    -0.137 N 
HETATM   18  C10 UNL     1     -13.131  95.611  25.177  1.00  0.00     0.500 C 
HETATM   19  C11 UNL     1     -11.250  95.697  23.574  1.00  0.00     0.681 A 
HETATM   20  N6  UNL     1     -14.564  95.363  25.103  1.00  0.00    -0.032 N 
HETATM   21  N7  UNL     1     -12.630  94.761  26.258  1.00  0.00    -0.032 N 
ATOM     22  H63 UNL     1     -14.997  95.878  24.336  1.00  0.00     0.279 HD
ATOM     23  H62 UNL     1     -14.766  94.415  24.787  1.00  0.00     0.279 HD
ATOM     24  H61 UNL     1     -15.016  95.568  25.994  1.00  0.00     0.279 HD
ATOM     25  H73 UNL     1     -12.714  93.773  26.020  1.00  0.00     0.279 HD
ATOM     26  H72 UNL     1     -11.615  94.823  26.337  1.00  0.00     0.279 HD
ATOM     27  H71 UNL     1     -13.081  94.965  27.149  1.00  0.00     0.279 HD
HETATM   28  N9  UNL     1     -11.039  95.227  22.319  1.00  0.00    -0.189 N 
ATOM     29  H9  UNL     1     -10.186  95.345  21.772  1.00  0.00     0.184 HD
BRANCH  19  30
HETATM   30  N8  UNL     1     -10.394  96.368  24.268  1.00  0.00    -0.234 N 
ATOM     31  H82 UNL     1     -10.354  97.385  24.324  1.00  0.00     0.174 HD
ATOM     32  H81 UNL     1      -9.641  96.009  24.855  1.00  0.00     0.174 HD
ENDBRANCH  19  30
ENDBRANCH  13  15
ENDBRANCH   9  12
BRANCH   6  33
HETATM   33  S2  UNL     1     -13.696  92.843  15.164  1.00  0.00    -0.025 SA
BRANCH  33  34
HETATM   34  C5  UNL     1     -14.807  93.485  13.937  1.00  0.00     0.312 C 
HETATM   35  O3  UNL     1     -15.515  94.451  14.089  1.00  0.00    -0.295 OA
ENDBRANCH  33  34
ENDBRANCH   6  33
BRANCH  11  36
HETATM   36  O4  UNL     1     -11.607  97.896  19.449  1.00  0.00    -0.282 OA
ATOM     37  H4  UNL     1     -10.976  98.496  19.830  1.00  0.00     0.245 HD
ENDBRANCH  11  36
BRANCH   2  38
HETATM   38  O2  UNL     1     -12.154  98.341  14.883  1.00  0.00    -0.281 OA
ATOM     39  H2  UNL     1     -12.087  98.037  13.985  1.00  0.00     0.245 HD
ENDBRANCH   2  38
BRANCH   1  40
HETATM   40  S1  UNL     1      -9.305  97.433  16.747  1.00  0.00    -0.086 SA
HETATM   41  C1  UNL     1      -8.155  98.844  16.821  1.00  0.00     0.097 C 
ENDBRANCH   1  40
BRANCH   1  42
HETATM   42  O1  UNL     1     -10.996  99.450  17.197  1.00  0.00    -0.342 OA
ATOM     43  H1  UNL     1     -10.373  99.895  16.634  1.00  0.00     0.215 HD
ENDBRANCH   1  42
TORSDOF 9
ENDMDL
MODEL 5
REMARK VINA RESULT: -6.736583159      5.071      8.547
REMARK  9 active torsions:
REMARK  status: ('A' for Active; 'I' for Inactive)
REMARK    1  A    between atoms: S1_2  and  C2_3 
REMARK    2  A    between atoms: C2_3  and  O1_4 
REMARK    3  A    between atoms: N1_6  and  O2_7 
REMARK    4  A    between atoms: C4_12  and  S2_13 
REMARK    5  A    between atoms: S2_13  and  C5_14 
REMARK    6  A    between atoms: C6_18  and  N4_19 
REMARK    7  A    between atoms: C7_21  and  C8_22 
REMARK       I    between atoms: N5_24  and  C10_25 
REMARK       I    between atoms: C10_25  and  N6_26 
REMARK       I    between atoms: C10_25  and  N7_30 
REMARK    8  A    between atoms: C11_34  and  N8_35 
REMARK    9  A    between atoms: N10_41  and  O4_42 
ROOT
HETATM    1  C2  UNL     1     -10.325  98.239  18.898  1.00  0.00     0.320 C 
HETATM    2  N1  UNL     1     -11.134  98.482  17.723  1.00  0.00    -0.175 N 
HETATM    3  C3  UNL     1     -11.813  97.251  17.487  1.00  0.00     0.169 A 
HETATM    4  N2  UNL     1     -12.375  96.803  16.355  1.00  0.00    -0.319 N 
ATOM      5  H2  UNL     1     -12.357  97.356  15.498  1.00  0.00     0.169 HD
HETATM    6  C4  UNL     1     -12.963  95.597  16.397  1.00  0.00     0.154 A 
HETATM    7  N3  UNL     1     -12.994  94.874  17.500  1.00  0.00    -0.321 N 
ATOM      8  H3  UNL     1     -13.457  93.966  17.467  1.00  0.00     0.169 HD
HETATM    9  C6  UNL     1     -12.432  95.281  18.699  1.00  0.00     0.140 A 
HETATM   10  C12 UNL     1     -11.830  96.516  18.655  1.00  0.00     0.153 A 
HETATM   11  N10 UNL     1     -11.155  97.299  19.632  1.00  0.00    -0.187 N 
ENDROOT
BRANCH   9  12
HETATM   12  N4  UNL     1     -12.499  94.558  19.669  1.00  0.00    -0.348 N 
HETATM   13  C7  UNL     1     -12.437  93.324  20.242  1.00  0.00     0.121 C 
ATOM     14  H4  UNL     1     -12.703  95.189  20.443  1.00  0.00     0.167 HD
BRANCH  13  15
HETATM   15  C8  UNL     1     -12.806  93.323  21.716  1.00  0.00     0.080 A 
HETATM   16  C9  UNL     1     -12.665  94.392  22.564  1.00  0.00     0.144 A 
HETATM   17  N5  UNL     1     -13.108  93.962  23.765  1.00  0.00    -0.137 N 
HETATM   18  C10 UNL     1     -13.138  94.772  24.946  1.00  0.00     0.500 C 
HETATM   19  C11 UNL     1     -13.512  92.680  23.684  1.00  0.00     0.681 A 
HETATM   20  N6  UNL     1     -12.334  95.975  24.774  1.00  0.00    -0.032 N 
HETATM   21  N7  UNL     1     -14.490  95.233  25.267  1.00  0.00    -0.032 N 
ATOM     22  H63 UNL     1     -11.379  95.753  24.494  1.00  0.00     0.279 HD
ATOM     23  H62 UNL     1     -12.619  96.502  23.948  1.00  0.00     0.279 HD
ATOM     24  H61 UNL     1     -12.355  96.551  25.615  1.00  0.00     0.279 HD
ATOM     25  H73 UNL     1     -14.910  95.720  24.475  1.00  0.00     0.279 HD
ATOM     26  H72 UNL     1     -15.139  94.451  25.340  1.00  0.00     0.279 HD
ATOM     27  H71 UNL     1     -14.511  95.810  26.107  1.00  0.00     0.279 HD
HETATM   28  N9  UNL     1     -13.319  92.288  22.399  1.00  0.00    -0.189 N 
ATOM     29  H9  UNL     1     -13.528  91.366  22.017  1.00  0.00     0.184 HD
BRANCH  19  30
HETATM   30  N8  UNL     1     -13.994  91.935  24.621  1.00  0.00    -0.234 N 
ATOM     31  H82 UNL     1     -14.953  91.976  24.967  1.00  0.00     0.174 HD
ATOM     32  H81 UNL     1     -13.517  91.210  25.156  1.00  0.00     0.174 HD
ENDBRANCH  19  30
ENDBRANCH  13  15
ENDBRANCH   9  12
BRANCH   6  33
HETATM   33  S2  UNL     1     -13.722  94.986  14.882  1.00  0.00    -0.025 SA
BRANCH  33  34
HETATM   34  C5  UNL     1     -14.254  93.304  15.085  1.00  0.00     0.312 C 
HETATM   35  O3  UNL     1     -14.690  92.840  16.111  1.00  0.00    -0.295 OA
ENDBRANCH  33  34
ENDBRANCH   6  33
BRANCH  11  36
HETATM   36  O4  UNL     1     -11.248  97.215  20.978  1.00  0.00    -0.282 OA
ATOM     37  H4  UNL     1     -11.544  96.455  21.466  1.00  0.00     0.245 HD
ENDBRANCH  11  36
BRANCH   2  38
HETATM   38  O2  UNL     1     -11.193  99.635  17.043  1.00  0.00    -0.281 OA
ATOM     39  H2  UNL     1     -10.974 100.492  17.389  1.00  0.00     0.245 HD
ENDBRANCH   2  38
BRANCH   1  40
HETATM   40  S1  UNL     1      -8.780  97.452  18.396  1.00  0.00    -0.086 SA
HETATM   41  C1  UNL     1      -8.593  97.699  16.601  1.00  0.00     0.097 C 
ENDBRANCH   1  40
BRANCH   1  42
HETATM   42  O1  UNL     1     -10.120  99.402  19.635  1.00  0.00    -0.342 OA
ATOM     43  H1  UNL     1      -9.535  99.272  20.372  1.00  0.00     0.215 HD
ENDBRANCH   1  42
TORSDOF 9
ENDMDL
