MODEL 1
REMARK VINA RESULT: -8.053273586      0.000      0.000
REMARK  7 active torsions:
REMARK  status: ('A' for Active; 'I' for Inactive)
REMARK    1  A    between atoms: C5_10  and  S1_11 
REMARK    2  A    between atoms: S1_11  and  C6_12 
REMARK    3  A    between atoms: N4_14  and  C7_15 
REMARK       I    between atoms: N6_18  and  C8_19 
REMARK       I    between atoms: C8_19  and  N7_20 
REMARK       I    between atoms: C8_19  and  N8_24 
REMARK    4  A    between atoms: C9_28  and  C10_29 
REMARK    5  A    between atoms: N9_30  and  N10_32 
REMARK       I    between atoms: N10_32  and  C11_34 
REMARK       I    between atoms: C11_34  and  N12_38 
REMARK    6  A    between atoms: N12_38  and  N13_40 
REMARK    7  A    between atoms: C12_44  and  N14_45 
ROOT
HETATM    1  N1  UNL     1     -13.536  91.690  20.890  1.00  0.00    -0.188 NA
HETATM    2  C1  UNL     1     -12.970  92.696  20.808  1.00  0.00     0.137 C 
HETATM    3  C2  UNL     1     -12.247  93.953  20.704  1.00  0.00     0.191 A 
HETATM    4  N2  UNL     1     -12.151  94.603  19.528  1.00  0.00    -0.317 N 
ATOM      5  H2  UNL     1     -12.590  94.211  18.695  1.00  0.00     0.169 HD
HETATM    6  C3  UNL     1     -11.486  95.756  19.447  1.00  0.00     0.150 A 
HETATM    7  C4  UNL     1     -10.907  96.255  20.595  1.00  0.00     0.123 A 
HETATM    8  N3  UNL     1     -10.312  97.398  20.251  1.00  0.00    -0.330 N 
ATOM      9  H3  UNL     1      -9.791  98.012  20.877  1.00  0.00     0.168 HD
HETATM   10  C5  UNL     1     -10.518  97.600  18.930  1.00  0.00     0.163 A 
HETATM   11  N4  UNL     1     -11.244  96.589  18.419  1.00  0.00    -0.238 N 
HETATM   12  C12 UNL     1     -11.020  95.565  21.801  1.00  0.00     0.132 A 
HETATM   13  N15 UNL     1     -11.698  94.404  21.846  1.00  0.00    -0.318 N 
ATOM     14  H15 UNL     1     -11.793  93.884  22.718  1.00  0.00     0.169 HD
ENDROOT
BRANCH  12  15
HETATM   15  N14 UNL     1     -10.479  96.027  22.885  1.00  0.00    -0.383 N 
ATOM     16 2H14 UNL     1      -9.475  95.917  23.028  1.00  0.00     0.157 HD
ATOM     17 1H14 UNL     1     -11.043  96.496  23.594  1.00  0.00     0.157 HD
ENDBRANCH  12  15
BRANCH  11  18
HETATM   18  C7  UNL     1     -11.667  96.447  17.047  1.00  0.00     0.251 C 
HETATM   19  N5  UNL     1     -11.025  95.922  16.078  1.00  0.00    -0.261 N 
HETATM   20  N6  UNL     1     -11.744  95.956  14.880  1.00  0.00    -0.237 N 
ATOM     21  H5  UNL     1     -10.090  95.523  16.168  1.00  0.00     0.190 HD
HETATM   22  C8  UNL     1     -11.163  95.663  13.584  1.00  0.00     0.499 C 
HETATM   23  C9  UNL     1     -13.092  96.321  15.238  1.00  0.00     0.293 C 
HETATM   24  N7  UNL     1     -10.623  94.306  13.546  1.00  0.00    -0.031 N 
HETATM   25  N8  UNL     1     -12.127  95.773  12.537  1.00  0.00    -0.031 N 
ATOM     26  H73 UNL     1      -9.957  94.145  14.303  1.00  0.00     0.279 HD
ATOM     27  H72 UNL     1     -11.324  93.614  13.809  1.00  0.00     0.279 HD
ATOM     28  H71 UNL     1     -10.213  94.101  12.635  1.00  0.00     0.279 HD
ATOM     29  H83 UNL     1     -12.942  95.188  12.718  1.00  0.00     0.279 HD
ATOM     30  H82 UNL     1     -12.581  96.687  12.543  1.00  0.00     0.279 HD
ATOM     31  H81 UNL     1     -11.718  95.568  11.625  1.00  0.00     0.279 HD
HETATM   32  O2  UNL     1     -12.886  96.871  16.545  1.00  0.00    -0.288 OA
BRANCH  23  33
HETATM   33  C10 UNL     1     -13.658  97.382  14.384  1.00  0.00     0.136 C 
HETATM   34  N9  UNL     1     -13.518  98.632  14.608  1.00  0.00    -0.297 N 
ATOM     35  H9  UNL     1     -12.981  98.900  15.432  1.00  0.00     0.186 HD
BRANCH  34  36
HETATM   36  N10 UNL     1     -14.030  99.647  13.835  1.00  0.00    -0.132 N 
HETATM   37  C11 UNL     1     -13.671 100.980  14.138  1.00  0.00     0.704 C 
HETATM   38  N11 UNL     1     -12.550 101.445  13.725  1.00  0.00    -0.232 N 
HETATM   39  N12 UNL     1     -14.532 101.812  14.893  1.00  0.00    -0.138 N 
ATOM     40 2H11 UNL     1     -11.929 100.845  13.181  1.00  0.00     0.174 HD
ATOM     41 1H11 UNL     1     -12.292 102.408  13.944  1.00  0.00     0.174 HD
ATOM     42  H12 UNL     1     -14.519 101.791  15.913  1.00  0.00     0.205 HD
ATOM     43  H10 UNL     1     -14.656  99.441  13.056  1.00  0.00     0.205 HD
BRANCH  39  44
HETATM   44  N13 UNL     1     -15.392 102.656  14.211  1.00  0.00    -0.331 N 
ATOM     45 2H13 UNL     1     -15.494 102.570  13.200  1.00  0.00     0.177 HD
ATOM     46 1H13 UNL     1     -15.910 103.354  14.746  1.00  0.00     0.177 HD
ENDBRANCH  39  44
ENDBRANCH  34  36
ENDBRANCH  23  33
ENDBRANCH  11  18
BRANCH  10  47
HETATM   47  S1  UNL     1      -9.940  98.983  17.939  1.00  0.00    -0.024 SA
BRANCH  47  48
HETATM   48  C6  UNL     1      -8.587  98.390  16.946  1.00  0.00     0.312 C 
HETATM   49  O1  UNL     1      -8.745  98.119  15.789  1.00  0.00    -0.295 OA
ENDBRANCH  47  48
ENDBRANCH  10  47
TORSDOF 7
ENDMDL
MODEL 2
REMARK VINA RESULT: -7.697718515      0.882      1.145
REMARK  7 active torsions:
REMARK  status: ('A' for Active; 'I' for Inactive)
REMARK    1  A    between atoms: C5_10  and  S1_11 
REMARK    2  A    between atoms: S1_11  and  C6_12 
REMARK    3  A    between atoms: N4_14  and  C7_15 
REMARK       I    between atoms: N6_18  and  C8_19 
REMARK       I    between atoms: C8_19  and  N7_20 
REMARK       I    between atoms: C8_19  and  N8_24 
REMARK    4  A    between atoms: C9_28  and  C10_29 
REMARK    5  A    between atoms: N9_30  and  N10_32 
REMARK       I    between atoms: N10_32  and  C11_34 
REMARK       I    between atoms: C11_34  and  N12_38 
REMARK    6  A    between atoms: N12_38  and  N13_40 
REMARK    7  A    between atoms: C12_44  and  N14_45 
ROOT
HETATM    1  N1  UNL     1     -13.522  91.783  20.964  1.00  0.00    -0.188 NA
HETATM    2  C1  UNL     1     -12.951  92.789  20.930  1.00  0.00     0.137 C 
HETATM    3  C2  UNL     1     -12.223  94.047  20.885  1.00  0.00     0.191 A 
HETATM    4  N2  UNL     1     -12.116  94.747  19.740  1.00  0.00    -0.317 N 
ATOM      5  H2  UNL     1     -12.550  94.393  18.887  1.00  0.00     0.169 HD
HETATM    6  C3  UNL     1     -11.446  95.899  19.713  1.00  0.00     0.150 A 
HETATM    7  C4  UNL     1     -10.873  96.346  20.885  1.00  0.00     0.123 A 
HETATM    8  N3  UNL     1     -10.271  97.500  20.596  1.00  0.00    -0.330 N 
ATOM      9  H3  UNL     1      -9.752  98.084  21.251  1.00  0.00     0.168 HD
HETATM   10  C5  UNL     1     -10.466  97.759  19.283  1.00  0.00     0.163 A 
HETATM   11  N4  UNL     1     -11.193  96.775  18.724  1.00  0.00    -0.238 N 
HETATM   12  C12 UNL     1     -10.997  95.605  22.059  1.00  0.00     0.132 A 
HETATM   13  N15 UNL     1     -11.681  94.446  22.049  1.00  0.00    -0.318 N 
ATOM     14  H15 UNL     1     -11.784  93.889  22.897  1.00  0.00     0.169 HD
ENDROOT
BRANCH  12  15
HETATM   15  N14 UNL     1     -10.463  96.017  23.167  1.00  0.00    -0.383 N 
ATOM     16 2H14 UNL     1      -9.497  95.764  23.379  1.00  0.00     0.157 HD
ATOM     17 1H14 UNL     1     -10.993  96.587  23.825  1.00  0.00     0.157 HD
ENDBRANCH  12  15
BRANCH  11  18
HETATM   18  C7  UNL     1     -11.606  96.693  17.343  1.00  0.00     0.251 C 
HETATM   19  N5  UNL     1     -11.101  95.983  16.413  1.00  0.00    -0.261 N 
HETATM   20  N6  UNL     1     -11.758  96.155  15.192  1.00  0.00    -0.237 N 
ATOM     21  H5  UNL     1     -10.305  95.358  16.546  1.00  0.00     0.190 HD
HETATM   22  C8  UNL     1     -11.243  95.671  13.926  1.00  0.00     0.499 C 
HETATM   23  C9  UNL     1     -12.972  96.872  15.494  1.00  0.00     0.293 C 
HETATM   24  N7  UNL     1     -11.076  94.220  13.949  1.00  0.00    -0.031 N 
HETATM   25  N8  UNL     1     -12.121  95.987  12.844  1.00  0.00    -0.031 N 
ATOM     26  H73 UNL     1     -10.493  93.921  14.731  1.00  0.00     0.279 HD
ATOM     27  H72 UNL     1     -11.940  93.745  14.210  1.00  0.00     0.279 HD
ATOM     28  H71 UNL     1     -10.713  93.879  13.058  1.00  0.00     0.279 HD
ATOM     29  H83 UNL     1     -13.065  95.642  13.018  1.00  0.00     0.279 HD
ATOM     30  H82 UNL     1     -12.321  96.986  12.807  1.00  0.00     0.279 HD
ATOM     31  H81 UNL     1     -11.759  95.646  11.953  1.00  0.00     0.279 HD
HETATM   32  O2  UNL     1     -12.660  97.400  16.789  1.00  0.00    -0.288 OA
BRANCH  23  33
HETATM   33  C10 UNL     1     -13.221  98.010  14.588  1.00  0.00     0.136 C 
HETATM   34  N9  UNL     1     -12.795  99.196  14.795  1.00  0.00    -0.297 N 
ATOM     35  H9  UNL     1     -12.250  99.353  15.643  1.00  0.00     0.186 HD
BRANCH  34  36
HETATM   36  N10 UNL     1     -13.006 100.278  13.975  1.00  0.00    -0.132 N 
HETATM   37  C11 UNL     1     -14.311 100.516  13.487  1.00  0.00     0.704 C 
HETATM   38  N11 UNL     1     -15.167 101.115  14.231  1.00  0.00    -0.232 N 
HETATM   39  N12 UNL     1     -14.690 100.103  12.187  1.00  0.00    -0.138 N 
ATOM     40 2H11 UNL     1     -14.894 101.412  15.168  1.00  0.00     0.174 HD
ATOM     41 1H11 UNL     1     -16.109 101.287  13.878  1.00  0.00     0.174 HD
ATOM     42  H12 UNL     1     -15.018  99.153  12.014  1.00  0.00     0.205 HD
ATOM     43  H10 UNL     1     -12.236 100.897  13.722  1.00  0.00     0.205 HD
BRANCH  39  44
HETATM   44  N13 UNL     1     -14.604 101.023  11.156  1.00  0.00    -0.331 N 
ATOM     45 2H13 UNL     1     -13.782 101.621  11.074  1.00  0.00     0.177 HD
ATOM     46 1H13 UNL     1     -15.378 101.080  10.493  1.00  0.00     0.177 HD
ENDBRANCH  39  44
ENDBRANCH  34  36
ENDBRANCH  23  33
ENDBRANCH  11  18
BRANCH  10  47
HETATM   47  S1  UNL     1      -9.876  99.181  18.357  1.00  0.00    -0.024 SA
BRANCH  47  48
HETATM   48  C6  UNL     1      -8.599  98.602  17.260  1.00  0.00     0.312 C 
HETATM   49  O1  UNL     1      -8.171  99.305  16.389  1.00  0.00    -0.295 OA
ENDBRANCH  47  48
ENDBRANCH  10  47
TORSDOF 7
ENDMDL
MODEL 3
REMARK VINA RESULT: -7.685900747      1.309      1.530
REMARK  7 active torsions:
REMARK  status: ('A' for Active; 'I' for Inactive)
REMARK    1  A    between atoms: C5_10  and  S1_11 
REMARK    2  A    between atoms: S1_11  and  C6_12 
REMARK    3  A    between atoms: N4_14  and  C7_15 
REMARK       I    between atoms: N6_18  and  C8_19 
REMARK       I    between atoms: C8_19  and  N7_20 
REMARK       I    between atoms: C8_19  and  N8_24 
REMARK    4  A    between atoms: C9_28  and  C10_29 
REMARK    5  A    between atoms: N9_30  and  N10_32 
REMARK       I    between atoms: N10_32  and  C11_34 
REMARK       I    between atoms: C11_34  and  N12_38 
REMARK    6  A    between atoms: N12_38  and  N13_40 
REMARK    7  A    between atoms: C12_44  and  N14_45 
ROOT
HETATM    1  N1  UNL     1     -13.779  90.640  20.254  1.00  0.00    -0.188 NA
HETATM    2  C1  UNL     1     -13.341  91.698  20.418  1.00  0.00     0.137 C 
HETATM    3  C2  UNL     1     -12.778  93.023  20.624  1.00  0.00     0.191 A 
HETATM    4  N2  UNL     1     -12.599  93.870  19.592  1.00  0.00    -0.317 N 
ATOM      5  H2  UNL     1     -12.861  93.582  18.649  1.00  0.00     0.169 HD
HETATM    6  C3  UNL     1     -12.083  95.082  19.795  1.00  0.00     0.150 A 
HETATM    7  C4  UNL     1     -11.742  95.437  21.083  1.00  0.00     0.123 A 
HETATM    8  N3  UNL     1     -11.255  96.676  21.018  1.00  0.00    -0.330 N 
ATOM      9  H3  UNL     1     -10.912  97.226  21.805  1.00  0.00     0.168 HD
HETATM   10  C5  UNL     1     -11.295  97.077  19.727  1.00  0.00     0.163 A 
HETATM   11  N4  UNL     1     -11.805  96.098  18.958  1.00  0.00    -0.238 N 
HETATM   12  C12 UNL     1     -11.936  94.544  22.136  1.00  0.00     0.132 A 
HETATM   13  N15 UNL     1     -12.460  93.328  21.895  1.00  0.00    -0.318 N 
ATOM     14  H15 UNL     1     -12.610  92.661  22.651  1.00  0.00     0.169 HD
ENDROOT
BRANCH  12  15
HETATM   15  N14 UNL     1     -11.618  94.868  23.351  1.00  0.00    -0.383 N 
ATOM     16 2H14 UNL     1     -12.057  94.377  24.130  1.00  0.00     0.157 HD
ATOM     17 1H14 UNL     1     -10.939  95.606  23.536  1.00  0.00     0.157 HD
ENDBRANCH  12  15
BRANCH  11  18
HETATM   18  C7  UNL     1     -12.007  96.147  17.530  1.00  0.00     0.251 C 
HETATM   19  N5  UNL     1     -11.312  95.586  16.620  1.00  0.00    -0.261 N 
HETATM   20  N6  UNL     1     -11.799  95.851  15.337  1.00  0.00    -0.237 N 
ATOM     21  H5  UNL     1     -10.492  95.008  16.807  1.00  0.00     0.190 HD
HETATM   22  C8  UNL     1     -11.067  95.554  14.120  1.00  0.00     0.499 C 
HETATM   23  C9  UNL     1     -13.102  96.441  15.522  1.00  0.00     0.293 C 
HETATM   24  N7  UNL     1     -10.778  94.126  14.019  1.00  0.00    -0.031 N 
HETATM   25  N8  UNL     1     -11.804  95.930  12.956  1.00  0.00    -0.031 N 
ATOM     26  H73 UNL     1     -10.290  93.781  14.846  1.00  0.00     0.279 HD
ATOM     27  H72 UNL     1     -11.626  93.564  14.094  1.00  0.00     0.279 HD
ATOM     28  H71 UNL     1     -10.263  93.917  13.163  1.00  0.00     0.279 HD
ATOM     29  H83 UNL     1     -12.729  95.501  12.947  1.00  0.00     0.279 HD
ATOM     30  H82 UNL     1     -12.083  96.910  12.993  1.00  0.00     0.279 HD
ATOM     31  H81 UNL     1     -11.288  95.721  12.101  1.00  0.00     0.279 HD
HETATM   32  O2  UNL     1     -13.027  96.837  16.897  1.00  0.00    -0.288 OA
BRANCH  23  33
HETATM   33  C10 UNL     1     -13.317  97.655  14.711  1.00  0.00     0.136 C 
HETATM   34  N9  UNL     1     -12.908  98.819  15.044  1.00  0.00    -0.297 N 
ATOM     35  H9  UNL     1     -12.405  98.901  15.927  1.00  0.00     0.186 HD
BRANCH  34  36
HETATM   36  N10 UNL     1     -13.088  99.969  14.315  1.00  0.00    -0.132 N 
HETATM   37  C11 UNL     1     -14.381 100.271  13.829  1.00  0.00     0.704 C 
HETATM   38  N11 UNL     1     -15.240 100.820  14.608  1.00  0.00    -0.232 N 
HETATM   39  N12 UNL     1     -14.745  99.976  12.494  1.00  0.00    -0.138 N 
ATOM     40 2H11 UNL     1     -14.977 101.032  15.571  1.00  0.00     0.174 HD
ATOM     41 1H11 UNL     1     -16.173 101.037  14.257  1.00  0.00     0.174 HD
ATOM     42  H12 UNL     1     -15.085  99.050  12.236  1.00  0.00     0.205 HD
ATOM     43  H10 UNL     1     -12.304 100.594  14.128  1.00  0.00     0.205 HD
BRANCH  39  44
HETATM   44  N13 UNL     1     -14.627 100.978  11.546  1.00  0.00    -0.331 N 
ATOM     45 2H13 UNL     1     -13.704 101.325  11.283  1.00  0.00     0.177 HD
ATOM     46 1H13 UNL     1     -15.480 101.350  11.126  1.00  0.00     0.177 HD
ENDBRANCH  39  44
ENDBRANCH  34  36
ENDBRANCH  23  33
ENDBRANCH  11  18
BRANCH  10  47
HETATM   47  S1  UNL     1     -10.763  98.660  19.063  1.00  0.00    -0.024 SA
BRANCH  47  48
HETATM   48  C6  UNL     1      -9.027  98.522  18.698  1.00  0.00     0.312 C 
HETATM   49  O1  UNL     1      -8.312  97.826  19.363  1.00  0.00    -0.295 OA
ENDBRANCH  47  48
ENDBRANCH  10  47
TORSDOF 7
ENDMDL
MODEL 4
REMARK VINA RESULT: -7.168971744      1.860      4.660
REMARK  7 active torsions:
REMARK  status: ('A' for Active; 'I' for Inactive)
REMARK    1  A    between atoms: C5_10  and  S1_11 
REMARK    2  A    between atoms: S1_11  and  C6_12 
REMARK    3  A    between atoms: N4_14  and  C7_15 
REMARK       I    between atoms: N6_18  and  C8_19 
REMARK       I    between atoms: C8_19  and  N7_20 
REMARK       I    between atoms: C8_19  and  N8_24 
REMARK    4  A    between atoms: C9_28  and  C10_29 
REMARK    5  A    between atoms: N9_30  and  N10_32 
REMARK       I    between atoms: N10_32  and  C11_34 
REMARK       I    between atoms: C11_34  and  N12_38 
REMARK    6  A    between atoms: N12_38  and  N13_40 
REMARK    7  A    between atoms: C12_44  and  N14_45 
ROOT
HETATM    1  N1  UNL     1     -13.325  91.686  20.392  1.00  0.00    -0.188 NA
HETATM    2  C1  UNL     1     -12.867  92.748  20.385  1.00  0.00     0.137 C 
HETATM    3  C2  UNL     1     -12.280  94.078  20.376  1.00  0.00     0.191 A 
HETATM    4  N2  UNL     1     -12.106  94.753  19.224  1.00  0.00    -0.317 N 
ATOM      5  H2  UNL     1     -12.388  94.328  18.341  1.00  0.00     0.169 HD
HETATM    6  C3  UNL     1     -11.567  95.972  19.231  1.00  0.00     0.150 A 
HETATM    7  C4  UNL     1     -11.198  96.514  20.444  1.00  0.00     0.123 A 
HETATM    8  N3  UNL     1     -10.692  97.719  20.182  1.00  0.00    -0.330 N 
ATOM      9  H3  UNL     1     -10.327  98.377  20.870  1.00  0.00     0.168 HD
HETATM   10  C5  UNL     1     -10.748  97.918  18.845  1.00  0.00     0.163 A 
HETATM   11  N4  UNL     1     -11.288  96.842  18.244  1.00  0.00    -0.238 N 
HETATM   12  C12 UNL     1     -11.388  95.797  21.624  1.00  0.00     0.132 A 
HETATM   13  N15 UNL     1     -11.935  94.569  21.580  1.00  0.00    -0.318 N 
ATOM     14  H15 UNL     1     -12.083  94.028  22.432  1.00  0.00     0.169 HD
ENDROOT
BRANCH  12  15
HETATM   15  N14 UNL     1     -11.044  96.298  22.770  1.00  0.00    -0.383 N 
ATOM     16 2H14 UNL     1     -10.889  95.674  23.562  1.00  0.00     0.157 HD
ATOM     17 1H14 UNL     1     -10.928  97.304  22.889  1.00  0.00     0.157 HD
ENDBRANCH  12  15
BRANCH  11  18
HETATM   18  C7  UNL     1     -11.513  96.676  16.828  1.00  0.00     0.251 C 
HETATM   19  N5  UNL     1     -12.577  96.919  16.169  1.00  0.00    -0.261 N 
HETATM   20  N6  UNL     1     -12.437  96.640  14.807  1.00  0.00    -0.237 N 
ATOM     21  H5  UNL     1     -13.435  97.278  16.589  1.00  0.00     0.190 HD
HETATM   22  C8  UNL     1     -13.549  96.584  13.878  1.00  0.00     0.499 C 
HETATM   23  C9  UNL     1     -11.026  96.442  14.586  1.00  0.00     0.293 C 
HETATM   24  N7  UNL     1     -14.254  97.863  13.828  1.00  0.00    -0.031 N 
HETATM   25  N8  UNL     1     -13.114  96.279  12.552  1.00  0.00    -0.031 N 
ATOM     26  H73 UNL     1     -14.553  98.164  14.756  1.00  0.00     0.279 HD
ATOM     27  H72 UNL     1     -13.622  98.633  13.612  1.00  0.00     0.279 HD
ATOM     28  H71 UNL     1     -15.037  97.823  13.175  1.00  0.00     0.279 HD
ATOM     29  H83 UNL     1     -12.399  96.933  12.235  1.00  0.00     0.279 HD
ATOM     30  H82 UNL     1     -12.567  95.419  12.529  1.00  0.00     0.279 HD
ATOM     31  H81 UNL     1     -13.897  96.240  11.899  1.00  0.00     0.279 HD
HETATM   32  O2  UNL     1     -10.572  96.209  15.925  1.00  0.00    -0.288 OA
BRANCH  23  33
HETATM   33  C10 UNL     1     -10.719  95.240  13.788  1.00  0.00     0.136 C 
HETATM   34  N9  UNL     1      -9.545  94.917  13.402  1.00  0.00    -0.297 N 
ATOM     35  H9  UNL     1      -8.781  95.537  13.668  1.00  0.00     0.186 HD
BRANCH  34  36
HETATM   36  N10 UNL     1      -9.223  93.806  12.661  1.00  0.00    -0.132 N 
HETATM   37  C11 UNL     1      -7.878  93.613  12.273  1.00  0.00     0.704 C 
HETATM   38  N11 UNL     1      -7.045  93.104  13.104  1.00  0.00    -0.232 N 
HETATM   39  N12 UNL     1      -7.434  93.975  10.979  1.00  0.00    -0.138 N 
ATOM     40 2H11 UNL     1      -7.365  92.843  14.037  1.00  0.00     0.174 HD
ATOM     41 1H11 UNL     1      -6.073  92.965  12.823  1.00  0.00     0.174 HD
ATOM     42  H12 UNL     1      -7.144  94.931  10.773  1.00  0.00     0.205 HD
ATOM     43  H10 UNL     1      -9.942  93.132  12.395  1.00  0.00     0.205 HD
BRANCH  39  44
HETATM   44  N13 UNL     1      -7.402  92.997   9.999  1.00  0.00    -0.331 N 
ATOM     45 2H13 UNL     1      -6.524  92.775   9.529  1.00  0.00     0.177 HD
ATOM     46 1H13 UNL     1      -8.272  92.516   9.769  1.00  0.00     0.177 HD
ENDBRANCH  39  44
ENDBRANCH  34  36
ENDBRANCH  23  33
ENDBRANCH  11  18
BRANCH  10  47
HETATM   47  S1  UNL     1     -10.203  99.371  17.939  1.00  0.00    -0.024 SA
BRANCH  47  48
HETATM   48  C6  UNL     1      -8.564  99.031  17.335  1.00  0.00     0.312 C 
HETATM   49  O1  UNL     1      -8.185  99.487  16.293  1.00  0.00    -0.295 OA
ENDBRANCH  47  48
ENDBRANCH  10  47
TORSDOF 7
ENDMDL
MODEL 5
REMARK VINA RESULT: -7.125709804      1.396      1.870
REMARK  7 active torsions:
REMARK  status: ('A' for Active; 'I' for Inactive)
REMARK    1  A    between atoms: C5_10  and  S1_11 
REMARK    2  A    between atoms: S1_11  and  C6_12 
REMARK    3  A    between atoms: N4_14  and  C7_15 
REMARK       I    between atoms: N6_18  and  C8_19 
REMARK       I    between atoms: C8_19  and  N7_20 
REMARK       I    between atoms: C8_19  and  N8_24 
REMARK    4  A    between atoms: C9_28  and  C10_29 
REMARK    5  A    between atoms: N9_30  and  N10_32 
REMARK       I    between atoms: N10_32  and  C11_34 
REMARK       I    between atoms: C11_34  and  N12_38 
REMARK    6  A    between atoms: N12_38  and  N13_40 
REMARK    7  A    between atoms: C12_44  and  N14_45 
ROOT
HETATM    1  N1  UNL     1     -13.521  91.524  20.802  1.00  0.00    -0.188 NA
HETATM    2  C1  UNL     1     -13.027  92.568  20.739  1.00  0.00     0.137 C 
HETATM    3  C2  UNL     1     -12.394  93.875  20.659  1.00  0.00     0.191 A 
HETATM    4  N2  UNL     1     -12.233  94.497  19.476  1.00  0.00    -0.317 N 
ATOM      5  H2  UNL     1     -12.558  94.049  18.619  1.00  0.00     0.169 HD
HETATM    6  C3  UNL     1     -11.652  95.695  19.417  1.00  0.00     0.150 A 
HETATM    7  C4  UNL     1     -11.227  96.271  20.596  1.00  0.00     0.123 A 
HETATM    8  N3  UNL     1     -10.689  97.447  20.270  1.00  0.00    -0.330 N 
ATOM      9  H3  UNL     1     -10.279  98.118  20.920  1.00  0.00     0.168 HD
HETATM   10  C5  UNL     1     -10.779  97.595  18.929  1.00  0.00     0.163 A 
HETATM   11  N4  UNL     1     -11.374  96.516  18.388  1.00  0.00    -0.238 N 
HETATM   12  C12 UNL     1     -11.405  95.609  21.809  1.00  0.00     0.132 A 
HETATM   13  N15 UNL     1     -11.995  94.400  21.831  1.00  0.00    -0.318 N 
ATOM     14  H15 UNL     1     -12.135  93.899  22.708  1.00  0.00     0.169 HD
ENDROOT
BRANCH  12  15
HETATM   15  N14 UNL     1     -11.008  96.142  22.923  1.00  0.00    -0.383 N 
ATOM     16 2H14 UNL     1     -10.733  97.124  22.937  1.00  0.00     0.157 HD
ATOM     17 1H14 UNL     1     -10.969  95.593  23.782  1.00  0.00     0.157 HD
ENDBRANCH  12  15
BRANCH  11  18
HETATM   18  C7  UNL     1     -11.649  96.302  16.987  1.00  0.00     0.251 C 
HETATM   19  N5  UNL     1     -10.816  96.063  16.052  1.00  0.00    -0.261 N 
HETATM   20  N6  UNL     1     -11.438  95.909  14.810  1.00  0.00    -0.237 N 
ATOM     21  H5  UNL     1      -9.808  95.993  16.194  1.00  0.00     0.190 HD
HETATM   22  C8  UNL     1     -10.722  95.883  13.548  1.00  0.00     0.499 C 
HETATM   23  C9  UNL     1     -12.848  95.791  15.085  1.00  0.00     0.293 C 
HETATM   24  N7  UNL     1      -9.759  94.785  13.516  1.00  0.00    -0.031 N 
HETATM   25  N8  UNL     1     -11.608  95.713  12.442  1.00  0.00    -0.031 N 
ATOM     26  H73 UNL     1      -9.121  94.820  14.311  1.00  0.00     0.279 HD
ATOM     27  H72 UNL     1     -10.203  93.889  13.715  1.00  0.00     0.279 HD
ATOM     28  H71 UNL     1      -9.255  94.767  12.629  1.00  0.00     0.279 HD
ATOM     29  H83 UNL     1     -12.191  94.884  12.555  1.00  0.00     0.279 HD
ATOM     30  H82 UNL     1     -12.340  96.423  12.440  1.00  0.00     0.279 HD
ATOM     31  H81 UNL     1     -11.104  95.695  11.555  1.00  0.00     0.279 HD
HETATM   32  O2  UNL     1     -12.910  96.320  16.415  1.00  0.00    -0.288 OA
BRANCH  23  33
HETATM   33  C10 UNL     1     -13.688  96.641  14.220  1.00  0.00     0.136 C 
HETATM   34  N9  UNL     1     -13.681  97.919  14.248  1.00  0.00    -0.297 N 
ATOM     35  H9  UNL     1     -13.054  98.366  14.915  1.00  0.00     0.186 HD
BRANCH  34  36
HETATM   36  N10 UNL     1     -14.447  98.741  13.458  1.00  0.00    -0.132 N 
HETATM   37  C11 UNL     1     -15.208  98.166  12.415  1.00  0.00     0.704 C 
HETATM   38  N11 UNL     1     -16.343  97.629  12.678  1.00  0.00    -0.232 N 
HETATM   39  N12 UNL     1     -14.738  98.173  11.080  1.00  0.00    -0.138 N 
ATOM     40 2H11 UNL     1     -16.682  97.623  13.641  1.00  0.00     0.174 HD
ATOM     41 1H11 UNL     1     -16.892  97.213  11.925  1.00  0.00     0.174 HD
ATOM     42  H12 UNL     1     -14.104  97.447  10.744  1.00  0.00     0.205 HD
ATOM     43  H10 UNL     1     -14.467  99.748  13.621  1.00  0.00     0.205 HD
BRANCH  39  44
HETATM   44  N13 UNL     1     -15.160  99.190  10.241  1.00  0.00    -0.331 N 
ATOM     45 2H13 UNL     1     -16.044  99.666  10.422  1.00  0.00     0.177 HD
ATOM     46 1H13 UNL     1     -14.565  99.444   9.452  1.00  0.00     0.177 HD
ENDBRANCH  39  44
ENDBRANCH  34  36
ENDBRANCH  23  33
ENDBRANCH  11  18
BRANCH  10  47
HETATM   47  S1  UNL     1     -10.213  98.990  17.948  1.00  0.00    -0.024 SA
BRANCH  47  48
HETATM   48  C6  UNL     1      -8.697  98.497  17.156  1.00  0.00     0.312 C 
HETATM   49  O1  UNL     1      -8.669  98.243  15.985  1.00  0.00    -0.295 OA
ENDBRANCH  47  48
ENDBRANCH  10  47
TORSDOF 7
ENDMDL
