MODEL 1
REMARK VINA RESULT: -9.002929865      0.000      0.000
REMARK  10 active torsions:
REMARK  status: ('A' for Active; 'I' for Inactive)
REMARK    1  A    between atoms: S1_2  and  N1_4 
REMARK    2  A    between atoms: S1_2  and  C3_14 
REMARK    3  A    between atoms: N1_4  and  O2_6 
REMARK    4  A    between atoms: O2_6  and  C2_7 
REMARK    5  A    between atoms: C6_17  and  N6_18 
REMARK    6  A    between atoms: N6_18  and  N7_20 
REMARK    7  A    between atoms: N7_20  and  C7_22 
REMARK    8  A    between atoms: C7_22  and  C8_26 
REMARK    9  A    between atoms: C8_26  and  O3_27 
REMARK   10  A    between atoms: C8_26  and  N10_31 
ROOT
HETATM    1  C8  UNL     1      -9.663  97.816  18.446  1.00  0.00     0.307 C 
HETATM    2  C9  UNL     1      -9.498  99.307  18.602  1.00  0.00     0.131 C 
HETATM    3  N9  UNL     1      -9.363 100.450  18.726  1.00  0.00    -0.191 NA
ENDROOT
BRANCH   1   4
HETATM    4  C7  UNL     1     -10.969  97.527  19.101  1.00  0.00     0.164 C 
HETATM    5  N8  UNL     1     -11.911  98.357  18.851  1.00  0.00    -0.383 N 
ATOM      6  H82 UNL     1     -12.805  98.159  19.300  1.00  0.00     0.157 HD
ATOM      7  H81 UNL     1     -11.726  99.163  18.253  1.00  0.00     0.157 HD
BRANCH   4   8
HETATM    8  N7  UNL     1     -11.224  96.415  19.928  1.00  0.00    -0.284 N 
ATOM      9  H7  UNL     1     -12.022  95.831  19.675  1.00  0.00     0.188 HD
BRANCH   8  10
HETATM   10  N6  UNL     1     -10.504  96.029  21.050  1.00  0.00    -0.299 N 
ATOM     11  H6  UNL     1      -9.497  95.881  20.990  1.00  0.00     0.187 HD
BRANCH  10  12
HETATM   12  C6  UNL     1     -11.195  95.842  22.298  1.00  0.00     0.048 A 
HETATM   13  C5  UNL     1     -10.699  96.345  23.482  1.00  0.00     0.032 A 
HETATM   14  C4  UNL     1     -11.336  96.173  24.690  1.00  0.00     0.024 A 
HETATM   15  C3  UNL     1     -12.510  95.476  24.759  1.00  0.00     0.040 A 
HETATM   16  C12 UNL     1     -13.026  94.959  23.568  1.00  0.00     0.024 A 
HETATM   17  C11 UNL     1     -12.379  95.141  22.363  1.00  0.00     0.032 A 
BRANCH  15  18
HETATM   18  S1  UNL     1     -13.344  95.194  26.286  1.00  0.00     0.071 S 
HETATM   19  C1  UNL     1     -12.770  96.212  27.586  1.00  0.00     0.144 C 
HETATM   20  O1  UNL     1     -14.811  95.415  25.990  1.00  0.00    -0.243 OA
BRANCH  18  21
HETATM   21  N1  UNL     1     -13.221  93.660  26.590  1.00  0.00    -0.211 N 
ATOM     22  H1  UNL     1     -12.444  93.251  27.109  1.00  0.00     0.205 HD
BRANCH  21  23
HETATM   23  O2  UNL     1     -14.284  92.910  26.078  1.00  0.00    -0.191 OA
BRANCH  23  24
HETATM   24  C2  UNL     1     -14.119  91.602  25.674  1.00  0.00     0.273 A 
HETATM   25  N2  UNL     1     -13.853  90.633  26.481  1.00  0.00    -0.248 N 
HETATM   26  N3  UNL     1     -13.767  89.488  25.689  1.00  0.00    -0.006 NA
ATOM     27  H2  UNL     1     -13.731  90.692  27.492  1.00  0.00     0.187 HD
HETATM   28  N4  UNL     1     -13.914  89.796  24.336  1.00  0.00    -0.006 NA
HETATM   29  N5  UNL     1     -14.218  91.148  24.338  1.00  0.00    -0.248 N 
ATOM     30  H5  UNL     1     -14.467  91.712  23.525  1.00  0.00     0.187 HD
ENDBRANCH  23  24
ENDBRANCH  21  23
ENDBRANCH  18  21
ENDBRANCH  15  18
ENDBRANCH  10  12
ENDBRANCH   8  10
ENDBRANCH   4   8
ENDBRANCH   1   4
BRANCH   1  31
HETATM   31  O3  UNL     1      -8.569  97.291  19.086  1.00  0.00    -0.352 OA
ATOM     32  H3  UNL     1      -7.789  97.219  18.549  1.00  0.00     0.214 HD
ENDBRANCH   1  31
BRANCH   1  33
HETATM   33  N10 UNL     1      -9.758  97.519  17.037  1.00  0.00    -0.167 N 
HETATM   34  N11 UNL     1     -10.735  98.019  16.248  1.00  0.00     0.004 NA
HETATM   35  N12 UNL     1     -10.552  97.571  15.009  1.00  0.00    -0.222 N 
HETATM   36  N13 UNL     1      -9.491  96.801  14.968  1.00  0.00    -0.237 N 
ATOM     37  H12 UNL     1     -11.147  97.792  14.211  1.00  0.00     0.205 HD
HETATM   38  C10 UNL     1      -9.021  96.785  16.228  1.00  0.00     0.359 A 
ATOM     39  H13 UNL     1      -9.106  96.319  14.156  1.00  0.00     0.193 HD
HETATM   40  O4  UNL     1      -7.992  96.130  16.557  1.00  0.00    -0.244 OA
ENDBRANCH   1  33
TORSDOF 10
ENDMDL
MODEL 2
REMARK VINA RESULT: -8.915772423      2.871     10.264
REMARK  10 active torsions:
REMARK  status: ('A' for Active; 'I' for Inactive)
REMARK    1  A    between atoms: S1_2  and  N1_4 
REMARK    2  A    between atoms: S1_2  and  C3_14 
REMARK    3  A    between atoms: N1_4  and  O2_6 
REMARK    4  A    between atoms: O2_6  and  C2_7 
REMARK    5  A    between atoms: C6_17  and  N6_18 
REMARK    6  A    between atoms: N6_18  and  N7_20 
REMARK    7  A    between atoms: N7_20  and  C7_22 
REMARK    8  A    between atoms: C7_22  and  C8_26 
REMARK    9  A    between atoms: C8_26  and  O3_27 
REMARK   10  A    between atoms: C8_26  and  N10_31 
ROOT
HETATM    1  C8  UNL     1     -13.656  95.149  25.601  1.00  0.00     0.307 C 
HETATM    2  C9  UNL     1     -13.075  95.694  26.882  1.00  0.00     0.131 C 
HETATM    3  N9  UNL     1     -12.639  96.117  27.867  1.00  0.00    -0.191 NA
ENDROOT
BRANCH   1   4
HETATM    4  C7  UNL     1     -12.754  95.680  24.541  1.00  0.00     0.164 C 
HETATM    5  N8  UNL     1     -11.625  96.128  24.946  1.00  0.00    -0.383 N 
ATOM      6  H82 UNL     1     -11.008  96.493  24.220  1.00  0.00     0.157 HD
ATOM      7  H81 UNL     1     -11.409  96.120  25.943  1.00  0.00     0.157 HD
BRANCH   4   8
HETATM    8  N7  UNL     1     -13.053  95.691  23.164  1.00  0.00    -0.284 N 
ATOM      9  H7  UNL     1     -13.888  96.206  22.882  1.00  0.00     0.188 HD
BRANCH   8  10
HETATM   10  N6  UNL     1     -12.332  95.076  22.151  1.00  0.00    -0.299 N 
ATOM     11  H6  UNL     1     -12.235  94.061  22.130  1.00  0.00     0.187 HD
BRANCH  10  12
HETATM   12  C6  UNL     1     -11.722  95.887  21.130  1.00  0.00     0.048 A 
HETATM   13  C5  UNL     1     -12.410  96.905  20.506  1.00  0.00     0.032 A 
HETATM   14  C4  UNL     1     -11.853  97.689  19.522  1.00  0.00     0.024 A 
HETATM   15  C3  UNL     1     -10.565  97.475  19.116  1.00  0.00     0.040 A 
HETATM   16  C12 UNL     1      -9.852  96.447  19.738  1.00  0.00     0.024 A 
HETATM   17  C11 UNL     1     -10.423  95.670  20.725  1.00  0.00     0.032 A 
BRANCH  15  18
HETATM   18  S1  UNL     1      -9.818  98.425  17.833  1.00  0.00     0.071 S 
HETATM   19  C1  UNL     1      -9.128  97.447  16.558  1.00  0.00     0.144 C 
HETATM   20  O1  UNL     1     -10.909  99.342  17.324  1.00  0.00    -0.243 OA
BRANCH  18  21
HETATM   21  N1  UNL     1      -8.780  99.378  18.523  1.00  0.00    -0.211 N 
ATOM     22  H1  UNL     1      -7.779  99.189  18.556  1.00  0.00     0.205 HD
BRANCH  21  23
HETATM   23  O2  UNL     1      -9.367 100.514  19.088  1.00  0.00    -0.191 OA
BRANCH  23  24
HETATM   24  C2  UNL     1      -9.024 101.786  18.680  1.00  0.00     0.273 A 
HETATM   25  N2  UNL     1      -9.119 102.195  17.461  1.00  0.00    -0.248 N 
HETATM   26  N3  UNL     1      -8.681 103.519  17.467  1.00  0.00    -0.006 NA
ATOM     27  H2  UNL     1      -9.446 101.659  16.657  1.00  0.00     0.187 HD
HETATM   28  N4  UNL     1      -8.235 103.899  18.733  1.00  0.00    -0.006 NA
HETATM   29  N5  UNL     1      -8.530 102.804  19.528  1.00  0.00    -0.248 N 
ATOM     30  H5  UNL     1      -8.412 102.743  20.540  1.00  0.00     0.187 HD
ENDBRANCH  23  24
ENDBRANCH  21  23
ENDBRANCH  18  21
ENDBRANCH  15  18
ENDBRANCH  10  12
ENDBRANCH   8  10
ENDBRANCH   4   8
ENDBRANCH   1   4
BRANCH   1  31
HETATM   31  O3  UNL     1     -14.933  95.648  25.575  1.00  0.00    -0.352 OA
ATOM     32  H3  UNL     1     -15.573  95.133  26.052  1.00  0.00     0.214 HD
ENDBRANCH   1  31
BRANCH   1  33
HETATM   33  N10 UNL     1     -13.554  93.709  25.638  1.00  0.00    -0.167 N 
HETATM   34  N11 UNL     1     -12.640  93.021  24.918  1.00  0.00     0.004 NA
HETATM   35  N12 UNL     1     -12.793  91.724  25.166  1.00  0.00    -0.222 N 
HETATM   36  N13 UNL     1     -13.771  91.547  26.021  1.00  0.00    -0.237 N 
ATOM     37  H12 UNL     1     -12.234  90.978  24.753  1.00  0.00     0.205 HD
HETATM   38  C10 UNL     1     -14.223  92.784  26.296  1.00  0.00     0.359 A 
ATOM     39  H13 UNL     1     -14.115  90.663  26.396  1.00  0.00     0.193 HD
HETATM   40  O4  UNL     1     -15.179  92.992  27.095  1.00  0.00    -0.244 OA
ENDBRANCH   1  33
TORSDOF 10
ENDMDL
MODEL 3
REMARK VINA RESULT: -8.879064014      2.350      3.519
REMARK  10 active torsions:
REMARK  status: ('A' for Active; 'I' for Inactive)
REMARK    1  A    between atoms: S1_2  and  N1_4 
REMARK    2  A    between atoms: S1_2  and  C3_14 
REMARK    3  A    between atoms: N1_4  and  O2_6 
REMARK    4  A    between atoms: O2_6  and  C2_7 
REMARK    5  A    between atoms: C6_17  and  N6_18 
REMARK    6  A    between atoms: N6_18  and  N7_20 
REMARK    7  A    between atoms: N7_20  and  C7_22 
REMARK    8  A    between atoms: C7_22  and  C8_26 
REMARK    9  A    between atoms: C8_26  and  O3_27 
REMARK   10  A    between atoms: C8_26  and  N10_31 
ROOT
HETATM    1  C8  UNL     1      -8.989  96.911  16.573  1.00  0.00     0.307 C 
HETATM    2  C9  UNL     1      -8.350  98.277  16.608  1.00  0.00     0.131 C 
HETATM    3  N9  UNL     1      -7.852  99.322  16.633  1.00  0.00    -0.191 NA
ENDROOT
BRANCH   1   4
HETATM    4  C7  UNL     1      -9.692  96.807  17.882  1.00  0.00     0.164 C 
HETATM    5  N8  UNL     1      -9.147  97.435  18.855  1.00  0.00    -0.383 N 
ATOM      6  H82 UNL     1      -9.629  97.363  19.752  1.00  0.00     0.157 HD
ATOM      7  H81 UNL     1      -8.276  97.944  18.702  1.00  0.00     0.157 HD
BRANCH   4   8
HETATM    8  N7  UNL     1     -10.894  96.104  18.093  1.00  0.00    -0.284 N 
ATOM      9  H7  UNL     1     -10.998  95.217  17.599  1.00  0.00     0.188 HD
BRANCH   8  10
HETATM   10  N6  UNL     1     -11.953  96.491  18.903  1.00  0.00    -0.299 N 
ATOM     11  H6  UNL     1     -12.525  97.298  18.653  1.00  0.00     0.187 HD
BRANCH  10  12
HETATM   12  C6  UNL     1     -12.234  95.741  20.099  1.00  0.00     0.048 A 
HETATM   13  C5  UNL     1     -12.345  96.354  21.328  1.00  0.00     0.032 A 
HETATM   14  C4  UNL     1     -12.605  95.659  22.487  1.00  0.00     0.024 A 
HETATM   15  C3  UNL     1     -12.762  94.301  22.458  1.00  0.00     0.040 A 
HETATM   16  C12 UNL     1     -12.653  93.664  21.219  1.00  0.00     0.024 A 
HETATM   17  C11 UNL     1     -12.394  94.373  20.065  1.00  0.00     0.032 A 
BRANCH  15  18
HETATM   18  S1  UNL     1     -13.057  93.361  23.919  1.00  0.00     0.071 S 
HETATM   19  C1  UNL     1     -13.877  91.847  23.616  1.00  0.00     0.144 C 
HETATM   20  O1  UNL     1     -11.697  93.159  24.550  1.00  0.00    -0.243 OA
BRANCH  18  21
HETATM   21  N1  UNL     1     -13.826  94.302  24.913  1.00  0.00    -0.211 N 
ATOM     22  H1  UNL     1     -14.840  94.298  25.020  1.00  0.00     0.205 HD
BRANCH  21  23
HETATM   23  O2  UNL     1     -12.979  95.146  25.637  1.00  0.00    -0.191 OA
BRANCH  23  24
HETATM   24  C2  UNL     1     -13.137  95.340  26.993  1.00  0.00     0.273 A 
HETATM   25  N2  UNL     1     -14.244  95.133  27.620  1.00  0.00    -0.248 N 
HETATM   26  N3  UNL     1     -13.990  95.440  28.957  1.00  0.00    -0.006 NA
ATOM     27  H2  UNL     1     -15.125  94.810  27.221  1.00  0.00     0.187 HD
HETATM   28  N4  UNL     1     -12.693  95.925  29.127  1.00  0.00    -0.006 NA
HETATM   29  N5  UNL     1     -12.122  95.785  27.872  1.00  0.00    -0.248 N 
ATOM     30  H5  UNL     1     -11.149  95.970  27.626  1.00  0.00     0.187 HD
ENDBRANCH  23  24
ENDBRANCH  21  23
ENDBRANCH  18  21
ENDBRANCH  15  18
ENDBRANCH  10  12
ENDBRANCH   8  10
ENDBRANCH   4   8
ENDBRANCH   1   4
BRANCH   1  31
HETATM   31  O3  UNL     1      -7.930  96.053  16.417  1.00  0.00    -0.352 OA
ATOM     32  H3  UNL     1      -7.081  96.474  16.353  1.00  0.00     0.214 HD
ENDBRANCH   1  31
BRANCH   1  33
HETATM   33  N10 UNL     1      -9.960  96.896  15.505  1.00  0.00    -0.167 N 
HETATM   34  N11 UNL     1     -11.076  97.658  15.520  1.00  0.00     0.004 NA
HETATM   35  N12 UNL     1     -11.764  97.427  14.406  1.00  0.00    -0.222 N 
HETATM   36  N13 UNL     1     -11.132  96.545  13.669  1.00  0.00    -0.237 N 
ATOM     37  H12 UNL     1     -12.649  97.870  14.160  1.00  0.00     0.205 HD
HETATM   38  C10 UNL     1     -10.026  96.234  14.368  1.00  0.00     0.359 A 
ATOM     39  H13 UNL     1     -11.419  96.175  12.763  1.00  0.00     0.193 HD
HETATM   40  O4  UNL     1      -9.175  95.399  13.949  1.00  0.00    -0.244 OA
ENDBRANCH   1  33
TORSDOF 10
ENDMDL
MODEL 4
REMARK VINA RESULT: -8.670058648      2.150      3.442
REMARK  10 active torsions:
REMARK  status: ('A' for Active; 'I' for Inactive)
REMARK    1  A    between atoms: S1_2  and  N1_4 
REMARK    2  A    between atoms: S1_2  and  C3_14 
REMARK    3  A    between atoms: N1_4  and  O2_6 
REMARK    4  A    between atoms: O2_6  and  C2_7 
REMARK    5  A    between atoms: C6_17  and  N6_18 
REMARK    6  A    between atoms: N6_18  and  N7_20 
REMARK    7  A    between atoms: N7_20  and  C7_22 
REMARK    8  A    between atoms: C7_22  and  C8_26 
REMARK    9  A    between atoms: C8_26  and  O3_27 
REMARK   10  A    between atoms: C8_26  and  N10_31 
ROOT
HETATM    1  C8  UNL     1      -9.378  97.585  17.209  1.00  0.00     0.307 C 
HETATM    2  C9  UNL     1      -8.251  98.514  16.829  1.00  0.00     0.131 C 
HETATM    3  N9  UNL     1      -7.380  99.220  16.540  1.00  0.00    -0.191 NA
ENDROOT
BRANCH   1   4
HETATM    4  C7  UNL     1     -10.109  98.322  18.277  1.00  0.00     0.164 C 
HETATM    5  N8  UNL     1      -9.823  99.565  18.389  1.00  0.00    -0.383 N 
ATOM      6  H82 UNL     1     -10.323 100.069  19.121  1.00  0.00     0.157 HD
ATOM      7  H81 UNL     1      -9.118  99.976  17.778  1.00  0.00     0.157 HD
BRANCH   4   8
HETATM    8  N7  UNL     1     -11.083  97.754  19.122  1.00  0.00    -0.284 N 
ATOM      9  H7  UNL     1     -11.336  98.289  19.953  1.00  0.00     0.188 HD
BRANCH   8  10
HETATM   10  N6  UNL     1     -11.735  96.542  18.943  1.00  0.00    -0.299 N 
ATOM     11  H6  UNL     1     -11.980  96.222  18.006  1.00  0.00     0.187 HD
BRANCH  10  12
HETATM   12  C6  UNL     1     -12.059  95.741  20.094  1.00  0.00     0.048 A 
HETATM   13  C5  UNL     1     -12.279  94.384  19.994  1.00  0.00     0.032 A 
HETATM   14  C4  UNL     1     -12.599  93.598  21.077  1.00  0.00     0.024 A 
HETATM   15  C3  UNL     1     -12.716  94.153  22.322  1.00  0.00     0.040 A 
HETATM   16  C12 UNL     1     -12.497  95.527  22.441  1.00  0.00     0.024 A 
HETATM   17  C11 UNL     1     -12.175  96.303  21.347  1.00  0.00     0.032 A 
BRANCH  15  18
HETATM   18  S1  UNL     1     -13.162  93.197  23.734  1.00  0.00     0.071 S 
HETATM   19  C1  UNL     1     -13.820  91.629  23.330  1.00  0.00     0.144 C 
HETATM   20  O1  UNL     1     -11.901  93.093  24.564  1.00  0.00    -0.243 OA
BRANCH  18  21
HETATM   21  N1  UNL     1     -14.135  94.083  24.589  1.00  0.00    -0.211 N 
ATOM     22  H1  UNL     1     -14.732  94.807  24.191  1.00  0.00     0.205 HD
BRANCH  21  23
HETATM   23  O2  UNL     1     -14.100  93.779  25.954  1.00  0.00    -0.191 OA
BRANCH  23  24
HETATM   24  C2  UNL     1     -13.663  94.694  26.889  1.00  0.00     0.273 A 
HETATM   25  N2  UNL     1     -12.621  95.435  26.730  1.00  0.00    -0.248 N 
HETATM   26  N3  UNL     1     -12.523  96.211  27.885  1.00  0.00    -0.006 NA
ATOM     27  H2  UNL     1     -11.995  95.451  25.924  1.00  0.00     0.187 HD
HETATM   28  N4  UNL     1     -13.509  95.866  28.810  1.00  0.00    -0.006 NA
HETATM   29  N5  UNL     1     -14.288  94.942  28.133  1.00  0.00    -0.248 N 
ATOM     30  H5  UNL     1     -15.153  94.519  28.469  1.00  0.00     0.187 HD
ENDBRANCH  23  24
ENDBRANCH  21  23
ENDBRANCH  18  21
ENDBRANCH  15  18
ENDBRANCH  10  12
ENDBRANCH   8  10
ENDBRANCH   4   8
ENDBRANCH   1   4
BRANCH   1  31
HETATM   31  O3  UNL     1      -8.742  96.444  17.627  1.00  0.00    -0.352 OA
ATOM     32  H3  UNL     1      -7.875  96.580  17.990  1.00  0.00     0.214 HD
ENDBRANCH   1  31
BRANCH   1  33
HETATM   33  N10 UNL     1     -10.238  97.430  16.060  1.00  0.00    -0.167 N 
HETATM   34  N11 UNL     1     -11.405  98.099  15.923  1.00  0.00     0.004 NA
HETATM   35  N12 UNL     1     -11.963  97.749  14.768  1.00  0.00    -0.222 N 
HETATM   36  N13 UNL     1     -11.199  96.879  14.152  1.00  0.00    -0.237 N 
ATOM     37  H12 UNL     1     -12.851  98.103  14.414  1.00  0.00     0.205 HD
HETATM   38  C10 UNL     1     -10.145  96.699  14.968  1.00  0.00     0.359 A 
ATOM     39  H13 UNL     1     -11.368  96.435  13.249  1.00  0.00     0.193 HD
HETATM   40  O4  UNL     1      -9.197  95.913  14.684  1.00  0.00    -0.244 OA
ENDBRANCH   1  33
TORSDOF 10
ENDMDL
MODEL 5
REMARK VINA RESULT: -8.495669510      1.088      1.349
REMARK  10 active torsions:
REMARK  status: ('A' for Active; 'I' for Inactive)
REMARK    1  A    between atoms: S1_2  and  N1_4 
REMARK    2  A    between atoms: S1_2  and  C3_14 
REMARK    3  A    between atoms: N1_4  and  O2_6 
REMARK    4  A    between atoms: O2_6  and  C2_7 
REMARK    5  A    between atoms: C6_17  and  N6_18 
REMARK    6  A    between atoms: N6_18  and  N7_20 
REMARK    7  A    between atoms: N7_20  and  C7_22 
REMARK    8  A    between atoms: C7_22  and  C8_26 
REMARK    9  A    between atoms: C8_26  and  O3_27 
REMARK   10  A    between atoms: C8_26  and  N10_31 
ROOT
HETATM    1  C8  UNL     1      -9.492  97.419  17.894  1.00  0.00     0.307 C 
HETATM    2  C9  UNL     1      -8.790  98.561  17.203  1.00  0.00     0.131 C 
HETATM    3  N9  UNL     1      -8.242  99.432  16.672  1.00  0.00    -0.191 NA
ENDROOT
BRANCH   1   4
HETATM    4  C7  UNL     1     -10.179  98.064  19.048  1.00  0.00     0.164 C 
HETATM    5  N8  UNL     1     -10.080  99.339  19.111  1.00  0.00    -0.383 N 
ATOM      6  H82 UNL     1     -10.550  99.781  19.901  1.00  0.00     0.157 HD
ATOM      7  H81 UNL     1      -9.538  99.837  18.404  1.00  0.00     0.157 HD
BRANCH   4   8
HETATM    8  N7  UNL     1     -10.927  97.377  20.024  1.00  0.00    -0.284 N 
ATOM      9  H7  UNL     1     -11.888  97.690  20.169  1.00  0.00     0.188 HD
BRANCH   8  10
HETATM   10  N6  UNL     1     -10.496  96.317  20.809  1.00  0.00    -0.299 N 
ATOM     11  H6  UNL     1      -9.723  95.727  20.500  1.00  0.00     0.187 HD
BRANCH  10  12
HETATM   12  C6  UNL     1     -11.151  96.059  22.064  1.00  0.00     0.048 A 
HETATM   13  C5  UNL     1     -10.593  96.442  23.265  1.00  0.00     0.032 A 
HETATM   14  C4  UNL     1     -11.195  96.200  24.478  1.00  0.00     0.024 A 
HETATM   15  C3  UNL     1     -12.397  95.552  24.536  1.00  0.00     0.040 A 
HETATM   16  C12 UNL     1     -12.978  95.157  23.328  1.00  0.00     0.024 A 
HETATM   17  C11 UNL     1     -12.364  95.407  22.118  1.00  0.00     0.032 A 
BRANCH  15  18
HETATM   18  S1  UNL     1     -13.190  95.184  26.066  1.00  0.00     0.071 S 
HETATM   19  C1  UNL     1     -12.628  96.173  27.393  1.00  0.00     0.144 C 
HETATM   20  O1  UNL     1     -14.670  95.361  25.806  1.00  0.00    -0.243 OA
BRANCH  18  21
HETATM   21  N1  UNL     1     -13.006  93.645  26.311  1.00  0.00    -0.211 N 
ATOM     22  H1  UNL     1     -12.174  93.239  26.738  1.00  0.00     0.205 HD
BRANCH  21  23
HETATM   23  O2  UNL     1     -14.099  92.885  25.883  1.00  0.00    -0.191 OA
BRANCH  23  24
HETATM   24  C2  UNL     1     -13.940  91.625  25.347  1.00  0.00     0.273 A 
HETATM   25  N2  UNL     1     -14.177  91.339  24.112  1.00  0.00    -0.248 N 
HETATM   26  N3  UNL     1     -13.897  89.979  23.973  1.00  0.00    -0.006 NA
ATOM     27  H2  UNL     1     -14.503  91.976  23.385  1.00  0.00     0.187 HD
HETATM   28  N4  UNL     1     -13.547  89.408  25.197  1.00  0.00    -0.006 NA
HETATM   29  N5  UNL     1     -13.501  90.488  26.064  1.00  0.00    -0.248 N 
ATOM     30  H5  UNL     1     -13.205  90.467  27.040  1.00  0.00     0.187 HD
ENDBRANCH  23  24
ENDBRANCH  21  23
ENDBRANCH  18  21
ENDBRANCH  15  18
ENDBRANCH  10  12
ENDBRANCH   8  10
ENDBRANCH   4   8
ENDBRANCH   1   4
BRANCH   1  31
HETATM   31  O3  UNL     1      -8.478  96.561  18.234  1.00  0.00    -0.352 OA
ATOM     32  H3  UNL     1      -8.762  95.707  18.537  1.00  0.00     0.214 HD
ENDBRANCH   1  31
BRANCH   1  33
HETATM   33  N10 UNL     1     -10.480  96.884  16.988  1.00  0.00    -0.167 N 
HETATM   34  N11 UNL     1     -11.810  97.011  17.196  1.00  0.00     0.004 NA
HETATM   35  N12 UNL     1     -12.455  96.422  16.194  1.00  0.00    -0.222 N 
HETATM   36  N13 UNL     1     -11.592  95.920  15.344  1.00  0.00    -0.237 N 
ATOM     37  H12 UNL     1     -13.469  96.369  16.099  1.00  0.00     0.205 HD
HETATM   38  C10 UNL     1     -10.384  96.217  15.856  1.00  0.00     0.359 A 
ATOM     39  H13 UNL     1     -11.793  95.414  14.482  1.00  0.00     0.193 HD
HETATM   40  O4  UNL     1      -9.307  95.878  15.288  1.00  0.00    -0.244 OA
ENDBRANCH   1  33
TORSDOF 10
ENDMDL
