MODEL 1
REMARK VINA RESULT: -8.081772090      0.000      0.000
REMARK  11 active torsions:
REMARK  status: ('A' for Active; 'I' for Inactive)
REMARK    1  A    between atoms: N1_1  and  C1_4 
REMARK    2  A    between atoms: C2_7  and  O1_8 
REMARK    3  A    between atoms: C4_11  and  C5_12 
REMARK    4  A    between atoms: C7_20  and  N6_21 
REMARK    5  A    between atoms: N6_21  and  C8_23 
REMARK    6  A    between atoms: C9_29  and  C10_30 
REMARK    7  A    between atoms: C10_30  and  O3_31 
REMARK    8  A    between atoms: C10_30  and  N9_33 
REMARK    9  A    between atoms: N9_33  and  C11_35 
REMARK   10  A    between atoms: C12_40  and  C13_41 
REMARK   11  A    between atoms: C13_41  and  O4_42 
ROOT
HETATM    1  N6  UNL     1     -11.721  96.533  19.400  1.00  0.00    -0.323 N 
ATOM      2  H6  UNL     1     -12.390  97.159  19.847  1.00  0.00     0.169 HD
ENDROOT
BRANCH   1   3
HETATM    3  C7  UNL     1     -12.115  95.200  19.511  1.00  0.00     0.138 A 
HETATM    4  C5  UNL     1     -12.197  94.553  20.806  1.00  0.00     0.119 A 
HETATM    5  N3  UNL     1     -12.616  93.299  20.754  1.00  0.00    -0.294 N 
HETATM    6  N4  UNL     1     -12.931  92.609  19.625  1.00  0.00    -0.296 N 
ATOM      7  H3  UNL     1     -12.710  92.804  21.641  1.00  0.00     0.187 HD
HETATM    8  C6  UNL     1     -12.873  93.220  18.329  1.00  0.00     0.199 A 
ATOM      9  H4  UNL     1     -13.215  91.632  19.703  1.00  0.00     0.187 HD
HETATM   10  N5  UNL     1     -12.433  94.554  18.410  1.00  0.00    -0.336 N 
ATOM     11  H5  UNL     1     -12.352  95.068  17.533  1.00  0.00     0.168 HD
BRANCH   4  12
HETATM   12  C4  UNL     1     -11.910  95.119  22.098  1.00  0.00     0.085 A 
HETATM   13  C3  UNL     1     -12.948  95.139  23.040  1.00  0.00     0.089 A 
HETATM   14  C2  UNL     1     -12.769  95.613  24.323  1.00  0.00     0.157 A 
HETATM   15  N2  UNL     1     -11.541  96.059  24.627  1.00  0.00    -0.171 N 
HETATM   16  C1  UNL     1     -10.527  96.056  23.762  1.00  0.00     0.678 A 
ATOM     17  H2  UNL     1     -11.375  96.418  25.568  1.00  0.00     0.186 HD
HETATM   18  N12 UNL     1     -10.752  95.577  22.505  1.00  0.00    -0.190 N 
ATOM     19  H12 UNL     1      -9.975  95.576  21.844  1.00  0.00     0.184 HD
BRANCH  14  20
HETATM   20  O1  UNL     1     -13.808  95.626  25.240  1.00  0.00    -0.346 OA
ATOM     21  H1  UNL     1     -14.676  95.939  25.017  1.00  0.00     0.219 HD
ENDBRANCH  14  20
BRANCH  16  22
HETATM   22  N1  UNL     1      -9.376  96.496  24.112  1.00  0.00    -0.234 N 
ATOM     23  H12 UNL     1      -9.199  97.494  24.221  1.00  0.00     0.174 HD
ATOM     24  H11 UNL     1      -8.610  95.847  24.292  1.00  0.00     0.174 HD
ENDBRANCH  16  22
ENDBRANCH   4  12
ENDBRANCH   1   3
BRANCH   1  25
HETATM   25  C8  UNL     1     -10.773  97.160  18.902  1.00  0.00     0.158 A 
HETATM   26  N7  UNL     1      -9.579  97.310  19.589  1.00  0.00    -0.223 N 
HETATM   27  O2  UNL     1      -8.769  97.988  18.850  1.00  0.00    -0.155 OA
ATOM     28  H7  UNL     1      -9.375  96.946  20.519  1.00  0.00     0.198 HD
HETATM   29  N8  UNL     1      -9.318  98.297  17.743  1.00  0.00    -0.238 N 
HETATM   30  C9  UNL     1     -10.591  97.801  17.714  1.00  0.00     0.128 A 
ATOM     31  H8  UNL     1      -8.877  98.832  16.995  1.00  0.00     0.196 HD
BRANCH  30  32
HETATM   32  C10 UNL     1     -11.483  98.047  16.564  1.00  0.00     0.276 C 
BRANCH  32  33
HETATM   33  O3  UNL     1     -12.329  96.988  16.301  1.00  0.00    -0.371 OA
ATOM     34  H3  UNL     1     -13.243  97.192  16.466  1.00  0.00     0.212 HD
ENDBRANCH  32  33
BRANCH  32  35
HETATM   35  N9  UNL     1     -12.202  99.292  16.699  1.00  0.00    -0.338 N 
ATOM     36  H9  UNL     1     -12.278  99.713  17.625  1.00  0.00     0.164 HD
BRANCH  35  37
HETATM   37  C11 UNL     1     -12.814  99.963  15.588  1.00  0.00     0.163 A 
HETATM   38  N10 UNL     1     -13.344  99.435  14.491  1.00  0.00    -0.279 N 
HETATM   39  N11 UNL     1     -13.843 100.180  13.606  1.00  0.00    -0.294 N 
ATOM     40  H10 UNL     1     -13.346  98.422  14.363  1.00  0.00     0.189 HD
HETATM   41  C12 UNL     1     -13.846 101.497  13.765  1.00  0.00     0.093 A 
ATOM     42  H11 UNL     1     -14.248  99.769  12.765  1.00  0.00     0.187 HD
HETATM   43  S1  UNL     1     -13.066 101.628  15.302  1.00  0.00    -0.036 SA
BRANCH  41  44
HETATM   44  C13 UNL     1     -14.375 102.568  12.865  1.00  0.00     0.230 C 
BRANCH  44  45
HETATM   45  O4  UNL     1     -14.452 103.785  13.533  1.00  0.00    -0.394 OA
ATOM     46  H4  UNL     1     -13.612 104.228  13.532  1.00  0.00     0.209 HD
ENDBRANCH  44  45
ENDBRANCH  41  44
ENDBRANCH  35  37
ENDBRANCH  32  35
ENDBRANCH  30  32
ENDBRANCH   1  25
TORSDOF 11
ENDMDL
MODEL 2
REMARK VINA RESULT: -8.069189165      2.556      8.545
REMARK  11 active torsions:
REMARK  status: ('A' for Active; 'I' for Inactive)
REMARK    1  A    between atoms: N1_1  and  C1_4 
REMARK    2  A    between atoms: C2_7  and  O1_8 
REMARK    3  A    between atoms: C4_11  and  C5_12 
REMARK    4  A    between atoms: C7_20  and  N6_21 
REMARK    5  A    between atoms: N6_21  and  C8_23 
REMARK    6  A    between atoms: C9_29  and  C10_30 
REMARK    7  A    between atoms: C10_30  and  O3_31 
REMARK    8  A    between atoms: C10_30  and  N9_33 
REMARK    9  A    between atoms: N9_33  and  C11_35 
REMARK   10  A    between atoms: C12_40  and  C13_41 
REMARK   11  A    between atoms: C13_41  and  O4_42 
ROOT
HETATM    1  N6  UNL     1     -11.886  98.103  16.950  1.00  0.00    -0.323 N 
ATOM      2  H6  UNL     1     -12.260  99.025  17.172  1.00  0.00     0.169 HD
ENDROOT
BRANCH   1   3
HETATM    3  C7  UNL     1     -12.627  97.479  15.948  1.00  0.00     0.138 A 
HETATM    4  C5  UNL     1     -13.327  98.258  14.945  1.00  0.00     0.119 A 
HETATM    5  N3  UNL     1     -13.960  97.525  14.042  1.00  0.00    -0.294 N 
HETATM    6  N4  UNL     1     -14.014  96.167  14.012  1.00  0.00    -0.296 N 
ATOM      7  H3  UNL     1     -14.452  98.025  13.302  1.00  0.00     0.187 HD
HETATM    8  C6  UNL     1     -13.325  95.365  14.980  1.00  0.00     0.199 A 
ATOM      9  H4  UNL     1     -14.560  95.708  13.282  1.00  0.00     0.187 HD
HETATM   10  N5  UNL     1     -12.654  96.164  15.925  1.00  0.00    -0.336 N 
ATOM     11  H5  UNL     1     -12.141  95.678  16.661  1.00  0.00     0.168 HD
BRANCH   4  12
HETATM   12  C4  UNL     1     -13.381  99.690  14.814  1.00  0.00     0.085 A 
HETATM   13  C3  UNL     1     -14.645 100.296  14.848  1.00  0.00     0.089 A 
HETATM   14  C2  UNL     1     -14.809 101.663  14.780  1.00  0.00     0.157 A 
HETATM   15  N2  UNL     1     -13.687 102.393  14.680  1.00  0.00    -0.171 N 
HETATM   16  C1  UNL     1     -12.466 101.857  14.646  1.00  0.00     0.678 A 
ATOM     17  H2  UNL     1     -13.772 103.408  14.627  1.00  0.00     0.186 HD
HETATM   18  N12 UNL     1     -12.355 100.500  14.716  1.00  0.00    -0.190 N 
ATOM     19  H12 UNL     1     -11.421 100.091  14.690  1.00  0.00     0.184 HD
BRANCH  14  20
HETATM   20  O1  UNL     1     -16.066 102.243  14.815  1.00  0.00    -0.346 OA
ATOM     21  H1  UNL     1     -16.707 102.022  15.479  1.00  0.00     0.219 HD
ENDBRANCH  14  20
BRANCH  16  22
HETATM   22  N1  UNL     1     -11.433 102.607  14.549  1.00  0.00    -0.234 N 
ATOM     23  H12 UNL     1     -11.514 103.593  14.302  1.00  0.00     0.174 HD
ATOM     24  H11 UNL     1     -10.503 102.227  14.721  1.00  0.00     0.174 HD
ENDBRANCH  16  22
ENDBRANCH   4  12
ENDBRANCH   1   3
BRANCH   1  25
HETATM   25  C8  UNL     1     -10.892  97.835  17.643  1.00  0.00     0.158 A 
HETATM   26  N7  UNL     1      -9.639  98.324  17.311  1.00  0.00    -0.223 N 
HETATM   27  O2  UNL     1      -8.795  97.907  18.191  1.00  0.00    -0.155 OA
ATOM     28  H7  UNL     1      -9.421  98.914  16.508  1.00  0.00     0.198 HD
HETATM   29  N8  UNL     1      -9.375  97.190  19.070  1.00  0.00    -0.238 N 
HETATM   30  C9  UNL     1     -10.707  97.105  18.778  1.00  0.00     0.128 A 
ATOM     31  H8  UNL     1      -8.917  96.748  19.867  1.00  0.00     0.196 HD
BRANCH  30  32
HETATM   32  C10 UNL     1     -11.623  96.296  19.606  1.00  0.00     0.276 C 
BRANCH  32  33
HETATM   33  O3  UNL     1     -12.466  95.499  18.858  1.00  0.00    -0.371 OA
ATOM     34  H3  UNL     1     -13.385  95.691  19.003  1.00  0.00     0.212 HD
ENDBRANCH  32  33
BRANCH  32  35
HETATM   35  N9  UNL     1     -10.911  95.538  20.608  1.00  0.00    -0.338 N 
ATOM     36  H9  UNL     1     -10.209  94.865  20.303  1.00  0.00     0.164 HD
BRANCH  35  37
HETATM   37  C11 UNL     1     -11.149  95.690  22.015  1.00  0.00     0.163 A 
HETATM   38  N10 UNL     1     -10.274  95.948  22.981  1.00  0.00    -0.279 N 
HETATM   39  N11 UNL     1     -10.660  96.049  24.176  1.00  0.00    -0.294 N 
ATOM     40  H10 UNL     1      -9.286  96.063  22.754  1.00  0.00     0.189 HD
HETATM   41  C12 UNL     1     -11.943  95.901  24.478  1.00  0.00     0.093 A 
ATOM     42  H11 UNL     1      -9.984  96.246  24.913  1.00  0.00     0.187 HD
HETATM   43  S1  UNL     1     -12.601  95.595  22.909  1.00  0.00    -0.036 SA
BRANCH  41  44
HETATM   44  C13 UNL     1     -12.628  95.977  25.806  1.00  0.00     0.230 C 
BRANCH  44  45
HETATM   45  O4  UNL     1     -13.975  95.655  25.690  1.00  0.00    -0.394 OA
ATOM     46  H4  UNL     1     -14.523  96.390  25.939  1.00  0.00     0.209 HD
ENDBRANCH  44  45
ENDBRANCH  41  44
ENDBRANCH  35  37
ENDBRANCH  32  35
ENDBRANCH  30  32
ENDBRANCH   1  25
TORSDOF 11
ENDMDL
MODEL 3
REMARK VINA RESULT: -7.939571447      1.444      1.758
REMARK  11 active torsions:
REMARK  status: ('A' for Active; 'I' for Inactive)
REMARK    1  A    between atoms: N1_1  and  C1_4 
REMARK    2  A    between atoms: C2_7  and  O1_8 
REMARK    3  A    between atoms: C4_11  and  C5_12 
REMARK    4  A    between atoms: C7_20  and  N6_21 
REMARK    5  A    between atoms: N6_21  and  C8_23 
REMARK    6  A    between atoms: C9_29  and  C10_30 
REMARK    7  A    between atoms: C10_30  and  O3_31 
REMARK    8  A    between atoms: C10_30  and  N9_33 
REMARK    9  A    between atoms: N9_33  and  C11_35 
REMARK   10  A    between atoms: C12_40  and  C13_41 
REMARK   11  A    between atoms: C13_41  and  O4_42 
ROOT
HETATM    1  N6  UNL     1     -12.270  96.942  19.501  1.00  0.00    -0.323 N 
ATOM      2  H6  UNL     1     -13.096  97.360  19.927  1.00  0.00     0.169 HD
ENDROOT
BRANCH   1   3
HETATM    3  C7  UNL     1     -12.385  95.556  19.416  1.00  0.00     0.138 A 
HETATM    4  C5  UNL     1     -12.291  94.726  20.602  1.00  0.00     0.119 A 
HETATM    5  N3  UNL     1     -12.451  93.434  20.367  1.00  0.00    -0.294 N 
HETATM    6  N4  UNL     1     -12.660  92.864  19.150  1.00  0.00    -0.296 N 
ATOM      7  H3  UNL     1     -12.414  92.808  21.172  1.00  0.00     0.187 HD
HETATM    8  C6  UNL     1     -12.770  93.653  17.958  1.00  0.00     0.199 A 
ATOM      9  H4  UNL     1     -12.740  91.849  19.084  1.00  0.00     0.187 HD
HETATM   10  N5  UNL     1     -12.604  95.024  18.234  1.00  0.00    -0.336 N 
ATOM     11  H5  UNL     1     -12.657  95.664  17.441  1.00  0.00     0.168 HD
BRANCH   4  12
HETATM   12  C4  UNL     1     -12.078  95.147  21.962  1.00  0.00     0.085 A 
HETATM   13  C3  UNL     1     -10.817  95.663  22.290  1.00  0.00     0.089 A 
HETATM   14  C2  UNL     1     -10.520  96.140  23.549  1.00  0.00     0.157 A 
HETATM   15  N2  UNL     1     -11.509  96.085  24.454  1.00  0.00    -0.171 N 
HETATM   16  C1  UNL     1     -12.722  95.603  24.184  1.00  0.00     0.678 A 
ATOM     17  H2  UNL     1     -11.323  96.428  25.397  1.00  0.00     0.186 HD
HETATM   18  N12 UNL     1     -12.968  95.143  22.924  1.00  0.00    -0.190 N 
ATOM     19  H12 UNL     1     -13.897  94.775  22.718  1.00  0.00     0.184 HD
BRANCH  14  20
HETATM   20  O1  UNL     1      -9.267  96.647  23.854  1.00  0.00    -0.346 OA
ATOM     21  H1  UNL     1      -8.944  96.694  24.746  1.00  0.00     0.219 HD
ENDBRANCH  14  20
BRANCH  16  22
HETATM   22  N1  UNL     1     -13.625  95.576  25.092  1.00  0.00    -0.234 N 
ATOM     23  H12 UNL     1     -13.565  96.171  25.918  1.00  0.00     0.174 HD
ATOM     24  H11 UNL     1     -14.428  94.954  25.002  1.00  0.00     0.174 HD
ENDBRANCH  16  22
ENDBRANCH   4  12
ENDBRANCH   1   3
BRANCH   1  25
HETATM   25  C8  UNL     1     -11.428  97.803  19.197  1.00  0.00     0.158 A 
HETATM   26  N7  UNL     1     -10.903  98.656  20.155  1.00  0.00    -0.223 N 
HETATM   27  O2  UNL     1     -10.056  99.438  19.579  1.00  0.00    -0.155 OA
ATOM     28  H7  UNL     1     -11.146  98.664  21.145  1.00  0.00     0.198 HD
HETATM   29  N8  UNL     1      -9.974  99.179  18.334  1.00  0.00    -0.238 N 
HETATM   30  C9  UNL     1     -10.821  98.151  18.029  1.00  0.00     0.128 A 
ATOM     31  H8  UNL     1      -9.370  99.663  17.670  1.00  0.00     0.196 HD
BRANCH  30  32
HETATM   32  C10 UNL     1     -10.969  97.667  16.642  1.00  0.00     0.276 C 
BRANCH  32  33
HETATM   33  O3  UNL     1     -10.409  96.420  16.444  1.00  0.00    -0.371 OA
ATOM     34  H3  UNL     1      -9.529  96.461  16.088  1.00  0.00     0.212 HD
ENDBRANCH  32  33
BRANCH  32  35
HETATM   35  N9  UNL     1     -12.342  97.719  16.199  1.00  0.00    -0.338 N 
ATOM     36  H9  UNL     1     -12.968  96.958  16.462  1.00  0.00     0.164 HD
BRANCH  35  37
HETATM   37  C11 UNL     1     -12.864  98.794  15.406  1.00  0.00     0.163 A 
HETATM   38  N10 UNL     1     -13.528  98.730  14.257  1.00  0.00    -0.279 N 
HETATM   39  N11 UNL     1     -13.917  99.786  13.690  1.00  0.00    -0.294 N 
ATOM     40  H10 UNL     1     -13.723  97.823  13.832  1.00  0.00     0.189 HD
HETATM   41  C12 UNL     1     -13.668 100.969  14.236  1.00  0.00     0.093 A 
ATOM     42  H11 UNL     1     -14.425  99.731  12.807  1.00  0.00     0.187 HD
HETATM   43  S1  UNL     1     -12.814 100.483  15.659  1.00  0.00    -0.036 SA
BRANCH  41  44
HETATM   44  C13 UNL     1     -14.026 102.339  13.755  1.00  0.00     0.230 C 
BRANCH  44  45
HETATM   45  O4  UNL     1     -13.541 103.313  14.621  1.00  0.00    -0.394 OA
ATOM     46  H4  UNL     1     -14.031 103.318  15.435  1.00  0.00     0.209 HD
ENDBRANCH  44  45
ENDBRANCH  41  44
ENDBRANCH  35  37
ENDBRANCH  32  35
ENDBRANCH  30  32
ENDBRANCH   1  25
TORSDOF 11
ENDMDL
MODEL 4
REMARK VINA RESULT: -7.887562430      2.435      4.520
REMARK  11 active torsions:
REMARK  status: ('A' for Active; 'I' for Inactive)
REMARK    1  A    between atoms: N1_1  and  C1_4 
REMARK    2  A    between atoms: C2_7  and  O1_8 
REMARK    3  A    between atoms: C4_11  and  C5_12 
REMARK    4  A    between atoms: C7_20  and  N6_21 
REMARK    5  A    between atoms: N6_21  and  C8_23 
REMARK    6  A    between atoms: C9_29  and  C10_30 
REMARK    7  A    between atoms: C10_30  and  O3_31 
REMARK    8  A    between atoms: C10_30  and  N9_33 
REMARK    9  A    between atoms: N9_33  and  C11_35 
REMARK   10  A    between atoms: C12_40  and  C13_41 
REMARK   11  A    between atoms: C13_41  and  O4_42 
ROOT
HETATM    1  N6  UNL     1     -12.724  96.299  18.594  1.00  0.00    -0.323 N 
ATOM      2  H6  UNL     1     -13.393  97.029  18.838  1.00  0.00     0.169 HD
ENDROOT
BRANCH   1   3
HETATM    3  C7  UNL     1     -11.968  95.908  19.697  1.00  0.00     0.138 A 
HETATM    4  C5  UNL     1     -10.646  96.459  19.926  1.00  0.00     0.119 A 
HETATM    5  N3  UNL     1     -10.064  96.017  21.030  1.00  0.00    -0.294 N 
HETATM    6  N4  UNL     1     -10.587  95.111  21.899  1.00  0.00    -0.296 N 
ATOM      7  H3  UNL     1      -9.140  96.389  21.248  1.00  0.00     0.187 HD
HETATM    8  C6  UNL     1     -11.895  94.555  21.711  1.00  0.00     0.199 A 
ATOM      9  H4  UNL     1     -10.034  94.820  22.706  1.00  0.00     0.187 HD
HETATM   10  N5  UNL     1     -12.496  95.045  20.536  1.00  0.00    -0.336 N 
ATOM     11  H5  UNL     1     -13.429  94.696  20.315  1.00  0.00     0.168 HD
BRANCH   4  12
HETATM   12  C4  UNL     1      -9.937  97.422  19.125  1.00  0.00     0.085 A 
HETATM   13  C3  UNL     1      -9.117  96.931  18.099  1.00  0.00     0.089 A 
HETATM   14  C2  UNL     1      -8.431  97.766  17.242  1.00  0.00     0.157 A 
HETATM   15  N2  UNL     1      -8.589  99.083  17.440  1.00  0.00    -0.171 N 
HETATM   16  C1  UNL     1      -9.359  99.591  18.403  1.00  0.00     0.678 A 
ATOM     17  H2  UNL     1      -8.094  99.729  16.824  1.00  0.00     0.186 HD
HETATM   18  N12 UNL     1     -10.018  98.726  19.226  1.00  0.00    -0.190 N 
ATOM     19  H12 UNL     1     -10.607  99.115  19.962  1.00  0.00     0.184 HD
BRANCH  14  20
HETATM   20  O1  UNL     1      -7.626  97.262  16.233  1.00  0.00    -0.346 OA
ATOM     21  H1  UNL     1      -7.720  96.376  15.905  1.00  0.00     0.219 HD
ENDBRANCH  14  20
BRANCH  16  22
HETATM   22  N1  UNL     1      -9.469 100.859  18.543  1.00  0.00    -0.234 N 
ATOM     23  H12 UNL     1     -10.361 101.334  18.405  1.00  0.00     0.174 HD
ATOM     24  H11 UNL     1      -8.657 101.421  18.799  1.00  0.00     0.174 HD
ENDBRANCH  16  22
ENDBRANCH   4  12
ENDBRANCH   1   3
BRANCH   1  25
HETATM   25  C8  UNL     1     -12.800  95.995  17.392  1.00  0.00     0.158 A 
HETATM   26  N7  UNL     1     -13.376  94.799  16.995  1.00  0.00    -0.223 N 
HETATM   27  O2  UNL     1     -13.333  94.737  15.708  1.00  0.00    -0.155 OA
ATOM     28  H7  UNL     1     -13.767  94.089  17.614  1.00  0.00     0.198 HD
HETATM   29  N8  UNL     1     -12.785  95.778  15.223  1.00  0.00    -0.238 N 
HETATM   30  C9  UNL     1     -12.423  96.616  16.241  1.00  0.00     0.128 A 
ATOM     31  H8  UNL     1     -12.638  95.960  14.230  1.00  0.00     0.196 HD
BRANCH  30  32
HETATM   32  C10 UNL     1     -11.721  97.887  15.974  1.00  0.00     0.276 C 
BRANCH  32  33
HETATM   33  O3  UNL     1     -11.183  97.951  14.704  1.00  0.00    -0.371 OA
ATOM     34  H3  UNL     1     -10.719  98.763  14.537  1.00  0.00     0.212 HD
ENDBRANCH  32  33
BRANCH  32  35
HETATM   35  N9  UNL     1     -12.553  99.030  16.266  1.00  0.00    -0.338 N 
ATOM     36  H9  UNL     1     -12.733  99.264  17.242  1.00  0.00     0.164 HD
BRANCH  35  37
HETATM   37  C11 UNL     1     -13.136  99.852  15.245  1.00  0.00     0.163 A 
HETATM   38  N10 UNL     1     -13.668  99.480  14.085  1.00  0.00    -0.279 N 
HETATM   39  N11 UNL     1     -14.139 100.344  13.298  1.00  0.00    -0.294 N 
ATOM     40  H10 UNL     1     -13.694  98.492  13.831  1.00  0.00     0.189 HD
HETATM   41  C12 UNL     1     -14.110 101.629  13.622  1.00  0.00     0.093 A 
ATOM     42  H11 UNL     1     -14.545 100.053  12.409  1.00  0.00     0.187 HD
HETATM   43  S1  UNL     1     -13.343 101.546  15.169  1.00  0.00    -0.036 SA
BRANCH  41  44
HETATM   44  C13 UNL     1     -14.603 102.819  12.860  1.00  0.00     0.230 C 
BRANCH  44  45
HETATM   45  O4  UNL     1     -14.379 103.992  13.572  1.00  0.00    -0.394 OA
ATOM     46  H4  UNL     1     -14.728 104.744  13.107  1.00  0.00     0.209 HD
ENDBRANCH  44  45
ENDBRANCH  41  44
ENDBRANCH  35  37
ENDBRANCH  32  35
ENDBRANCH  30  32
ENDBRANCH   1  25
TORSDOF 11
ENDMDL
MODEL 5
REMARK VINA RESULT: -7.854676509      2.646      3.511
REMARK  11 active torsions:
REMARK  status: ('A' for Active; 'I' for Inactive)
REMARK    1  A    between atoms: N1_1  and  C1_4 
REMARK    2  A    between atoms: C2_7  and  O1_8 
REMARK    3  A    between atoms: C4_11  and  C5_12 
REMARK    4  A    between atoms: C7_20  and  N6_21 
REMARK    5  A    between atoms: N6_21  and  C8_23 
REMARK    6  A    between atoms: C9_29  and  C10_30 
REMARK    7  A    between atoms: C10_30  and  O3_31 
REMARK    8  A    between atoms: C10_30  and  N9_33 
REMARK    9  A    between atoms: N9_33  and  C11_35 
REMARK   10  A    between atoms: C12_40  and  C13_41 
REMARK   11  A    between atoms: C13_41  and  O4_42 
ROOT
HETATM    1  N6  UNL     1     -11.952  96.056  19.628  1.00  0.00    -0.323 N 
ATOM      2  H6  UNL     1     -12.745  96.677  19.786  1.00  0.00     0.169 HD
ENDROOT
BRANCH   1   3
HETATM    3  C7  UNL     1     -12.289  94.725  19.870  1.00  0.00     0.138 A 
HETATM    4  C5  UNL     1     -12.347  94.207  21.223  1.00  0.00     0.119 A 
HETATM    5  N3  UNL     1     -12.711  92.936  21.296  1.00  0.00    -0.294 N 
HETATM    6  N4  UNL     1     -12.992  92.125  20.241  1.00  0.00    -0.296 N 
ATOM      7  H3  UNL     1     -12.787  92.528  22.227  1.00  0.00     0.187 HD
HETATM    8  C6  UNL     1     -12.956  92.607  18.891  1.00  0.00     0.199 A 
ATOM      9  H4  UNL     1     -13.235  91.150  20.415  1.00  0.00     0.187 HD
HETATM   10  N5  UNL     1     -12.574  93.960  18.839  1.00  0.00    -0.336 N 
ATOM     11  H5  UNL     1     -12.512  94.388  17.915  1.00  0.00     0.168 HD
BRANCH   4  12
HETATM   12  C4  UNL     1     -12.089  94.910  22.453  1.00  0.00     0.085 A 
HETATM   13  C3  UNL     1     -13.139  95.004  23.376  1.00  0.00     0.089 A 
HETATM   14  C2  UNL     1     -12.988  95.612  24.605  1.00  0.00     0.157 A 
HETATM   15  N2  UNL     1     -11.773  96.114  24.874  1.00  0.00    -0.171 N 
HETATM   16  C1  UNL     1     -10.748  96.045  24.025  1.00  0.00     0.678 A 
ATOM     17  H2  UNL     1     -11.627  96.572  25.774  1.00  0.00     0.186 HD
HETATM   18  N12 UNL     1     -10.946  95.434  22.822  1.00  0.00    -0.190 N 
ATOM     19  H12 UNL     1     -10.161  95.381  22.173  1.00  0.00     0.184 HD
BRANCH  14  20
HETATM   20  O1  UNL     1     -14.038  95.695  25.505  1.00  0.00    -0.346 OA
ATOM     21  H1  UNL     1     -14.898  96.007  25.251  1.00  0.00     0.219 HD
ENDBRANCH  14  20
BRANCH  16  22
HETATM   22  N1  UNL     1      -9.612  96.544  24.340  1.00  0.00    -0.234 N 
ATOM     23  H12 UNL     1      -9.376  96.757  25.309  1.00  0.00     0.174 HD
ATOM     24  H11 UNL     1      -8.916  96.737  23.619  1.00  0.00     0.174 HD
ENDBRANCH  16  22
ENDBRANCH   4  12
ENDBRANCH   1   3
BRANCH   1  25
HETATM   25  C8  UNL     1     -10.944  96.686  19.270  1.00  0.00     0.158 A 
HETATM   26  N7  UNL     1      -9.703  96.418  19.825  1.00  0.00    -0.223 N 
HETATM   27  O2  UNL     1      -8.837  97.201  19.278  1.00  0.00    -0.155 OA
ATOM     28  H7  UNL     1      -9.507  95.721  20.544  1.00  0.00     0.198 HD
HETATM   29  N8  UNL     1      -9.392  97.956  18.415  1.00  0.00    -0.238 N 
HETATM   30  C9  UNL     1     -10.729  97.679  18.364  1.00  0.00     0.128 A 
ATOM     31  H8  UNL     1      -8.913  98.659  17.852  1.00  0.00     0.196 HD
BRANCH  30  32
HETATM   32  C10 UNL     1     -11.635  98.438  17.479  1.00  0.00     0.276 C 
BRANCH  32  33
HETATM   33  O3  UNL     1     -11.052  99.575  16.956  1.00  0.00    -0.371 OA
ATOM     34  H3  UNL     1     -11.687 100.226  16.681  1.00  0.00     0.212 HD
ENDBRANCH  32  33
BRANCH  32  35
HETATM   35  N9  UNL     1     -12.205  97.601  16.450  1.00  0.00    -0.338 N 
ATOM     36  H9  UNL     1     -13.207  97.414  16.474  1.00  0.00     0.164 HD
BRANCH  35  37
HETATM   37  C11 UNL     1     -11.424  97.021  15.396  1.00  0.00     0.163 A 
HETATM   38  N10 UNL     1     -10.523  97.606  14.614  1.00  0.00    -0.279 N 
HETATM   39  N11 UNL     1      -9.925  96.939  13.727  1.00  0.00    -0.294 N 
ATOM     40  H10 UNL     1     -10.316  98.598  14.730  1.00  0.00     0.189 HD
HETATM   41  C12 UNL     1     -10.188  95.649  13.570  1.00  0.00     0.093 A 
ATOM     42  H11 UNL     1      -9.236  97.394  13.129  1.00  0.00     0.187 HD
HETATM   43  S1  UNL     1     -11.384  95.421  14.798  1.00  0.00    -0.036 SA
BRANCH  41  44
HETATM   44  C13 UNL     1      -9.612  94.666  12.600  1.00  0.00     0.230 C 
BRANCH  44  45
HETATM   45  O4  UNL     1      -8.303  94.344  12.937  1.00  0.00    -0.394 OA
ATOM     46  H4  UNL     1      -7.830  95.113  13.236  1.00  0.00     0.209 HD
ENDBRANCH  44  45
ENDBRANCH  41  44
ENDBRANCH  35  37
ENDBRANCH  32  35
ENDBRANCH  30  32
ENDBRANCH   1  25
TORSDOF 11
ENDMDL
