MODEL 1
REMARK VINA RESULT: -8.589091005      0.000      0.000
REMARK  10 active torsions:
REMARK  status: ('A' for Active; 'I' for Inactive)
REMARK    1  A    between atoms: C2_7  and  N3_8 
REMARK    2  A    between atoms: C3_11  and  C4_12 
REMARK    3  A    between atoms: C4_12  and  O1_13 
REMARK    4  A    between atoms: C4_12  and  N4_15 
REMARK    5  A    between atoms: N4_15  and  C5_17 
REMARK    6  A    between atoms: C7_19  and  N5_20 
REMARK    7  A    between atoms: C8_25  and  N7_26 
REMARK    8  A    between atoms: C9_35  and  O4_36 
REMARK    9  A    between atoms: C9_35  and  C10_38 
REMARK   10  A    between atoms: C10_38  and  N12_39 
ROOT
HETATM    1  N1  UNL     1     -14.096  92.154  24.257  1.00  0.00    -0.383 N 
ATOM      2  H11 UNL     1     -14.409  92.193  25.227  1.00  0.00     0.157 HD
ATOM      3  H12 UNL     1     -14.255  91.334  23.673  1.00  0.00     0.157 HD
HETATM    4  C1  UNL     1     -13.525  92.991  23.647  1.00  0.00     0.145 A 
HETATM    5  N2  UNL     1     -13.067  92.935  22.225  1.00  0.00    -0.325 N 
ATOM      6  H2  UNL     1     -13.288  92.060  21.751  1.00  0.00     0.169 HD
HETATM    7  C2  UNL     1     -12.362  93.901  21.393  1.00  0.00     0.136 A 
HETATM    8  C3  UNL     1     -11.926  95.169  21.740  1.00  0.00     0.180 A 
HETATM    9  N9  UNL     1     -12.163  95.652  23.052  1.00  0.00    -0.105 N 
HETATM   10  N10 UNL     1     -11.989  96.701  23.888  1.00  0.00     0.011 NA
HETATM   11  N11 UNL     1     -12.557  96.355  25.114  1.00  0.00    -0.275 N 
ATOM     12  H11 UNL     1     -12.491  97.072  25.837  1.00  0.00     0.181 HD
HETATM   13  C9  UNL     1     -13.275  95.045  25.548  1.00  0.00     0.227 A 
HETATM   14  C11 UNL     1     -13.297  94.173  24.488  1.00  0.00     0.211 A 
HETATM   15  N16 UNL     1     -12.749  94.862  23.765  1.00  0.00    -0.299 NA
ENDROOT
BRANCH   8  16
HETATM   16  C4  UNL     1     -11.260  96.154  21.048  1.00  0.00     0.177 C 
BRANCH  16  17
HETATM   17  O1  UNL     1      -9.986  96.323  21.365  1.00  0.00    -0.344 OA
ATOM     18  H1  UNL     1      -9.454  96.775  20.720  1.00  0.00     0.219 HD
ENDBRANCH  16  17
BRANCH  16  19
HETATM   19  N4  UNL     1     -11.678  97.026  20.059  1.00  0.00    -0.321 N 
ATOM     20  H4  UNL     1     -12.678  97.170  19.914  1.00  0.00     0.169 HD
BRANCH  19  21
HETATM   21  C5  UNL     1     -10.768  97.716  19.252  1.00  0.00     0.126 A 
HETATM   22  C6  UNL     1     -10.235  97.100  18.149  1.00  0.00     0.104 A 
HETATM   23  C7  UNL     1      -9.340  97.774  17.353  1.00  0.00     0.192 A 
HETATM   24  N6  UNL     1      -8.965  99.051  17.634  1.00  0.00    -0.171 N 
HETATM   25  C8  UNL     1      -9.505  99.624  18.720  1.00  0.00     0.679 A 
ATOM     26  H6  UNL     1      -8.303  99.553  17.043  1.00  0.00     0.186 HD
HETATM   27  N8  UNL     1     -10.385  98.962  19.501  1.00  0.00    -0.177 N 
ATOM     28  H8  UNL     1     -10.770  99.439  20.316  1.00  0.00     0.185 HD
BRANCH  23  29
HETATM   29  N5  UNL     1      -8.788  97.147  16.218  1.00  0.00    -0.097 N 
HETATM   30  O2  UNL     1      -9.095  97.527  15.087  1.00  0.00    -0.531 OA
HETATM   31  O3  UNL     1      -7.901  96.103  16.352  1.00  0.00    -0.531 OA
ENDBRANCH  23  29
BRANCH  25  32
HETATM   32  N7  UNL     1      -9.188 100.830  19.034  1.00  0.00    -0.234 N 
ATOM     33  H72 UNL     1      -9.866 101.573  18.865  1.00  0.00     0.174 HD
ATOM     34  H71 UNL     1      -8.273 101.026  19.440  1.00  0.00     0.174 HD
ENDBRANCH  25  32
ENDBRANCH  19  21
ENDBRANCH  16  19
ENDBRANCH   8  16
BRANCH   7  35
HETATM   35  N3  UNL     1     -12.057  93.580  20.087  1.00  0.00    -0.383 N 
ATOM     36  H32 UNL     1     -12.884  93.325  19.547  1.00  0.00     0.157 HD
ATOM     37  H31 UNL     1     -11.088  93.618  19.772  1.00  0.00     0.157 HD
ENDBRANCH   7  35
BRANCH  13  38
HETATM   38  O4  UNL     1     -14.581  95.585  25.727  1.00  0.00    -0.362 OA
ATOM     39  H4  UNL     1     -14.755  95.814  24.821  1.00  0.00     0.213 HD
ENDBRANCH  13  38
BRANCH  13  40
HETATM   40  C10 UNL     1     -12.769  94.774  26.890  1.00  0.00     0.243 C 
BRANCH  40  41
HETATM   41  N12 UNL     1     -13.960  94.541  27.693  1.00  0.00    -0.198 N 
HETATM   42  N13 UNL     1     -14.985  93.726  27.750  1.00  0.00    -0.209 N 
HETATM   43  N14 UNL     1     -15.465  94.322  28.822  1.00  0.00    -0.211 N 
ATOM     44  H13 UNL     1     -15.293  92.937  27.183  1.00  0.00     0.211 HD
HETATM   45  N15 UNL     1     -14.444  95.148  28.781  1.00  0.00    -0.209 N 
ATOM     46  H14 UNL     1     -16.279  94.197  29.425  1.00  0.00     0.211 HD
ATOM     47  H15 UNL     1     -14.141  95.937  29.351  1.00  0.00     0.211 HD
ENDBRANCH  40  41
ENDBRANCH  13  40
TORSDOF 10
ENDMDL
MODEL 2
REMARK VINA RESULT: -8.404262921      1.503      1.593
REMARK  10 active torsions:
REMARK  status: ('A' for Active; 'I' for Inactive)
REMARK    1  A    between atoms: C2_7  and  N3_8 
REMARK    2  A    between atoms: C3_11  and  C4_12 
REMARK    3  A    between atoms: C4_12  and  O1_13 
REMARK    4  A    between atoms: C4_12  and  N4_15 
REMARK    5  A    between atoms: N4_15  and  C5_17 
REMARK    6  A    between atoms: C7_19  and  N5_20 
REMARK    7  A    between atoms: C8_25  and  N7_26 
REMARK    8  A    between atoms: C9_35  and  O4_36 
REMARK    9  A    between atoms: C9_35  and  C10_38 
REMARK   10  A    between atoms: C10_38  and  N12_39 
ROOT
HETATM    1  N1  UNL     1     -14.214  91.755  24.797  1.00  0.00    -0.383 N 
ATOM      2  H11 UNL     1     -14.410  92.056  25.751  1.00  0.00     0.157 HD
ATOM      3  H12 UNL     1     -14.382  90.797  24.489  1.00  0.00     0.157 HD
HETATM    4  C1  UNL     1     -13.783  92.405  23.907  1.00  0.00     0.145 A 
HETATM    5  N2  UNL     1     -13.495  91.964  22.509  1.00  0.00    -0.325 N 
ATOM      6  H2  UNL     1     -13.707  90.983  22.329  1.00  0.00     0.169 HD
HETATM    7  C2  UNL     1     -12.967  92.679  21.354  1.00  0.00     0.136 A 
HETATM    8  C3  UNL     1     -12.586  94.009  21.274  1.00  0.00     0.180 A 
HETATM    9  N9  UNL     1     -12.698  94.834  22.422  1.00  0.00    -0.105 N 
HETATM   10  N10 UNL     1     -12.503  96.083  22.903  1.00  0.00     0.011 NA
HETATM   11  N11 UNL     1     -12.893  96.079  24.241  1.00  0.00    -0.275 N 
ATOM     12  H11 UNL     1     -12.793  96.973  24.723  1.00  0.00     0.181 HD
HETATM   13  C9  UNL     1     -13.457  94.920  25.115  1.00  0.00     0.227 A 
HETATM   14  C11 UNL     1     -13.542  93.783  24.350  1.00  0.00     0.211 A 
HETATM   15  N16 UNL     1     -13.136  94.259  23.397  1.00  0.00    -0.299 NA
ENDROOT
BRANCH   8  16
HETATM   16  C4  UNL     1     -12.081  94.780  20.254  1.00  0.00     0.177 C 
BRANCH  16  17
HETATM   17  O1  UNL     1     -12.532  94.501  19.041  1.00  0.00    -0.344 OA
ATOM     18  H1  UNL     1     -12.292  95.116  18.357  1.00  0.00     0.219 HD
ENDBRANCH  16  17
BRANCH  16  19
HETATM   19  N4  UNL     1     -11.168  95.819  20.252  1.00  0.00    -0.321 N 
ATOM     20  H4  UNL     1     -10.654  96.030  21.107  1.00  0.00     0.169 HD
BRANCH  19  21
HETATM   21  C5  UNL     1     -10.931  96.589  19.108  1.00  0.00     0.126 A 
HETATM   22  C6  UNL     1      -9.720  96.504  18.472  1.00  0.00     0.104 A 
HETATM   23  C7  UNL     1      -9.482  97.258  17.348  1.00  0.00     0.192 A 
HETATM   24  N6  UNL     1     -10.429  98.097  16.844  1.00  0.00    -0.171 N 
HETATM   25  C8  UNL     1     -11.601  98.156  17.492  1.00  0.00     0.679 A 
ATOM     26  H6  UNL     1     -10.254  98.656  16.010  1.00  0.00     0.186 HD
HETATM   27  N8  UNL     1     -11.835  97.414  18.596  1.00  0.00    -0.177 N 
ATOM     28  H8  UNL     1     -12.743  97.491  19.054  1.00  0.00     0.185 HD
BRANCH  23  29
HETATM   29  N5  UNL     1      -8.239  97.177  16.688  1.00  0.00    -0.097 N 
HETATM   30  O2  UNL     1      -7.592  98.199  16.453  1.00  0.00    -0.531 OA
HETATM   31  O3  UNL     1      -7.729  95.961  16.296  1.00  0.00    -0.531 OA
ENDBRANCH  23  29
BRANCH  25  32
HETATM   32  N7  UNL     1     -12.533  98.931  17.061  1.00  0.00    -0.234 N 
ATOM     33  H72 UNL     1     -12.489  99.259  16.097  1.00  0.00     0.174 HD
ATOM     34  H71 UNL     1     -13.294  99.206  17.683  1.00  0.00     0.174 HD
ENDBRANCH  25  32
ENDBRANCH  19  21
ENDBRANCH  16  19
ENDBRANCH   8  16
BRANCH   7  35
HETATM   35  N3  UNL     1     -12.799  92.012  20.159  1.00  0.00    -0.383 N 
ATOM     36  H32 UNL     1     -13.564  91.368  19.963  1.00  0.00     0.157 HD
ATOM     37  H31 UNL     1     -11.973  92.198  19.590  1.00  0.00     0.157 HD
ENDBRANCH   7  35
BRANCH  13  38
HETATM   38  O4  UNL     1     -14.768  95.442  25.312  1.00  0.00    -0.362 OA
ATOM     39  H4  UNL     1     -15.204  94.974  24.610  1.00  0.00     0.213 HD
ENDBRANCH  13  38
BRANCH  13  40
HETATM   40  C10 UNL     1     -12.775  95.060  26.398  1.00  0.00     0.243 C 
BRANCH  40  41
HETATM   41  N12 UNL     1     -13.797  94.769  27.392  1.00  0.00    -0.198 N 
HETATM   42  N13 UNL     1     -14.773  93.920  27.604  1.00  0.00    -0.209 N 
HETATM   43  N14 UNL     1     -15.071  94.474  28.762  1.00  0.00    -0.211 N 
ATOM     44  H13 UNL     1     -15.154  93.135  27.078  1.00  0.00     0.211 HD
HETATM   45  N15 UNL     1     -14.096  95.333  28.565  1.00  0.00    -0.209 N 
ATOM     46  H14 UNL     1     -15.760  94.307  29.496  1.00  0.00     0.211 HD
ATOM     47  H15 UNL     1     -13.719  96.118  29.097  1.00  0.00     0.211 HD
ENDBRANCH  40  41
ENDBRANCH  13  40
TORSDOF 10
ENDMDL
MODEL 3
REMARK VINA RESULT: -8.402877692      4.608      9.904
REMARK  10 active torsions:
REMARK  status: ('A' for Active; 'I' for Inactive)
REMARK    1  A    between atoms: C2_7  and  N3_8 
REMARK    2  A    between atoms: C3_11  and  C4_12 
REMARK    3  A    between atoms: C4_12  and  O1_13 
REMARK    4  A    between atoms: C4_12  and  N4_15 
REMARK    5  A    between atoms: N4_15  and  C5_17 
REMARK    6  A    between atoms: C7_19  and  N5_20 
REMARK    7  A    between atoms: C8_25  and  N7_26 
REMARK    8  A    between atoms: C9_35  and  O4_36 
REMARK    9  A    between atoms: C9_35  and  C10_38 
REMARK   10  A    between atoms: C10_38  and  N12_39 
ROOT
HETATM    1  N1  UNL     1     -15.058  97.795  13.071  1.00  0.00    -0.383 N 
ATOM      2  H11 UNL     1     -15.453  98.658  12.697  1.00  0.00     0.157 HD
ATOM      3  H12 UNL     1     -15.321  96.880  12.706  1.00  0.00     0.157 HD
HETATM    4  C1  UNL     1     -14.266  97.680  13.942  1.00  0.00     0.145 A 
HETATM    5  N2  UNL     1     -13.686  96.416  14.489  1.00  0.00    -0.325 N 
ATOM      6  H2  UNL     1     -14.031  95.570  14.038  1.00  0.00     0.169 HD
HETATM    7  C2  UNL     1     -12.718  96.171  15.551  1.00  0.00     0.136 A 
HETATM    8  C3  UNL     1     -12.070  97.102  16.346  1.00  0.00     0.180 A 
HETATM    9  N9  UNL     1     -12.335  98.483  16.158  1.00  0.00    -0.105 N 
HETATM   10  N10 UNL     1     -12.036  99.730  16.588  1.00  0.00     0.011 NA
HETATM   11  N11 UNL     1     -12.784 100.624  15.823  1.00  0.00    -0.275 N 
ATOM     12  H11 UNL     1     -12.646 101.609  16.053  1.00  0.00     0.181 HD
HETATM   13  C9  UNL     1     -13.797 100.352  14.674  1.00  0.00     0.227 A 
HETATM   14  C11 UNL     1     -13.887  98.997  14.466  1.00  0.00     0.211 A 
HETATM   15  N16 UNL     1     -13.140  98.711  15.278  1.00  0.00    -0.299 NA
ENDROOT
BRANCH   8  16
HETATM   16  C4  UNL     1     -11.152  96.989  17.363  1.00  0.00     0.177 C 
BRANCH  16  17
HETATM   17  O1  UNL     1      -9.986  96.456  17.033  1.00  0.00    -0.344 OA
ATOM     18  H1  UNL     1      -9.216  96.950  17.289  1.00  0.00     0.219 HD
ENDBRANCH  16  17
BRANCH  16  19
HETATM   19  N4  UNL     1     -11.214  97.335  18.702  1.00  0.00    -0.321 N 
ATOM     20  H4  UNL     1     -11.076  98.309  18.969  1.00  0.00     0.169 HD
BRANCH  19  21
HETATM   21  C5  UNL     1     -11.460  96.384  19.697  1.00  0.00     0.126 A 
HETATM   22  C6  UNL     1     -11.173  96.680  21.005  1.00  0.00     0.104 A 
HETATM   23  C7  UNL     1     -11.414  95.748  21.986  1.00  0.00     0.192 A 
HETATM   24  N6  UNL     1     -11.936  94.527  21.691  1.00  0.00    -0.171 N 
HETATM   25  C8  UNL     1     -12.204  94.270  20.402  1.00  0.00     0.679 A 
ATOM     26  H6  UNL     1     -12.116  93.836  22.419  1.00  0.00     0.186 HD
HETATM   27  N8  UNL     1     -11.968  95.185  19.438  1.00  0.00    -0.177 N 
ATOM     28  H8  UNL     1     -12.190  94.946  18.472  1.00  0.00     0.185 HD
BRANCH  23  29
HETATM   29  N5  UNL     1     -11.121  96.045  23.333  1.00  0.00    -0.097 N 
HETATM   30  O2  UNL     1     -11.863  95.646  24.232  1.00  0.00    -0.531 OA
HETATM   31  O3  UNL     1     -10.008  96.782  23.665  1.00  0.00    -0.531 OA
ENDBRANCH  23  29
BRANCH  25  32
HETATM   32  N7  UNL     1     -12.698  93.132  20.064  1.00  0.00    -0.234 N 
ATOM     33  H72 UNL     1     -12.090  92.452  19.609  1.00  0.00     0.174 HD
ATOM     34  H71 UNL     1     -13.679  92.927  20.253  1.00  0.00     0.174 HD
ENDBRANCH  25  32
ENDBRANCH  19  21
ENDBRANCH  16  19
ENDBRANCH   8  16
BRANCH   7  35
HETATM   35  N3  UNL     1     -12.355  94.877  15.855  1.00  0.00    -0.383 N 
ATOM     36  H32 UNL     1     -11.627  94.522  15.236  1.00  0.00     0.157 HD
ATOM     37  H31 UNL     1     -12.810  94.395  16.631  1.00  0.00     0.157 HD
ENDBRANCH   7  35
BRANCH  13  38
HETATM   38  O4  UNL     1     -13.049 100.932  13.609  1.00  0.00    -0.362 OA
ATOM     39  H4  UNL     1     -12.581 101.585  14.116  1.00  0.00     0.213 HD
ENDBRANCH  13  38
BRANCH  13  40
HETATM   40  C10 UNL     1     -14.902 101.270  14.931  1.00  0.00     0.243 C 
BRANCH  40  41
HETATM   41  N12 UNL     1     -14.741 102.326  13.944  1.00  0.00    -0.198 N 
HETATM   42  N13 UNL     1     -15.105 102.615  12.718  1.00  0.00    -0.209 N 
HETATM   43  N14 UNL     1     -14.478 103.773  12.749  1.00  0.00    -0.211 N 
ATOM     44  H13 UNL     1     -15.660 102.130  12.012  1.00  0.00     0.211 HD
HETATM   45  N15 UNL     1     -14.104 103.500  13.979  1.00  0.00    -0.209 N 
ATOM     46  H14 UNL     1     -14.342 104.548  12.099  1.00  0.00     0.211 HD
ATOM     47  H15 UNL     1     -13.549 103.989  14.681  1.00  0.00     0.211 HD
ENDBRANCH  40  41
ENDBRANCH  13  40
TORSDOF 10
ENDMDL
MODEL 4
REMARK VINA RESULT: -8.304692921      4.698      6.740
REMARK  10 active torsions:
REMARK  status: ('A' for Active; 'I' for Inactive)
REMARK    1  A    between atoms: C2_7  and  N3_8 
REMARK    2  A    between atoms: C3_11  and  C4_12 
REMARK    3  A    between atoms: C4_12  and  O1_13 
REMARK    4  A    between atoms: C4_12  and  N4_15 
REMARK    5  A    between atoms: N4_15  and  C5_17 
REMARK    6  A    between atoms: C7_19  and  N5_20 
REMARK    7  A    between atoms: C8_25  and  N7_26 
REMARK    8  A    between atoms: C9_35  and  O4_36 
REMARK    9  A    between atoms: C9_35  and  C10_38 
REMARK   10  A    between atoms: C10_38  and  N12_39 
ROOT
HETATM    1  N1  UNL     1     -12.735  93.455  18.998  1.00  0.00    -0.383 N 
ATOM      2  H11 UNL     1     -12.368  93.425  19.949  1.00  0.00     0.157 HD
ATOM      3  H12 UNL     1     -13.192  92.650  18.571  1.00  0.00     0.157 HD
HETATM    4  C1  UNL     1     -12.711  94.364  18.242  1.00  0.00     0.145 A 
HETATM    5  N2  UNL     1     -13.248  94.410  16.848  1.00  0.00    -0.325 N 
ATOM      6  H2  UNL     1     -13.682  93.540  16.541  1.00  0.00     0.169 HD
HETATM    7  C2  UNL     1     -13.265  95.468  15.847  1.00  0.00     0.136 A 
HETATM    8  C3  UNL     1     -12.761  96.754  15.956  1.00  0.00     0.180 A 
HETATM    9  N9  UNL     1     -12.138  97.157  17.164  1.00  0.00    -0.105 N 
HETATM   10  N10 UNL     1     -11.520  98.181  17.797  1.00  0.00     0.011 NA
HETATM   11  N11 UNL     1     -11.174  97.734  19.072  1.00  0.00    -0.275 N 
ATOM     12  H11 UNL     1     -10.697  98.422  19.655  1.00  0.00     0.181 HD
HETATM   13  C9  UNL     1     -11.404  96.348  19.742  1.00  0.00     0.227 A 
HETATM   14  C11 UNL     1     -12.052  95.524  18.856  1.00  0.00     0.211 A 
HETATM   15  N16 UNL     1     -12.111  96.290  18.014  1.00  0.00    -0.299 NA
ENDROOT
BRANCH   8  16
HETATM   16  C4  UNL     1     -12.720  97.822  15.090  1.00  0.00     0.177 C 
BRANCH  16  17
HETATM   17  O1  UNL     1     -11.518  98.182  14.672  1.00  0.00    -0.344 OA
ATOM     18  H1  UNL     1     -11.490  98.663  13.852  1.00  0.00     0.219 HD
ENDBRANCH  16  17
BRANCH  16  19
HETATM   19  N4  UNL     1     -13.723  98.614  14.560  1.00  0.00    -0.321 N 
ATOM     20  H4  UNL     1     -14.561  98.168  14.184  1.00  0.00     0.169 HD
BRANCH  19  21
HETATM   21  C5  UNL     1     -13.620 100.008  14.524  1.00  0.00     0.126 A 
HETATM   22  C6  UNL     1     -14.707 100.761  14.162  1.00  0.00     0.104 A 
HETATM   23  C7  UNL     1     -14.610 102.131  14.126  1.00  0.00     0.192 A 
HETATM   24  N6  UNL     1     -13.451 102.768  14.444  1.00  0.00    -0.171 N 
HETATM   25  C8  UNL     1     -12.407 102.001  14.793  1.00  0.00     0.679 A 
ATOM     26  H6  UNL     1     -13.378 103.784  14.419  1.00  0.00     0.186 HD
HETATM   27  N8  UNL     1     -12.502 100.655  14.829  1.00  0.00    -0.177 N 
ATOM     28  H8  UNL     1     -11.682 100.114  15.102  1.00  0.00     0.185 HD
BRANCH  23  29
HETATM   29  N5  UNL     1     -15.724 102.911  13.755  1.00  0.00    -0.097 N 
HETATM   30  O2  UNL     1     -16.726 102.946  14.471  1.00  0.00    -0.531 OA
HETATM   31  O3  UNL     1     -15.713 103.644  12.590  1.00  0.00    -0.531 OA
ENDBRANCH  23  29
BRANCH  25  32
HETATM   32  N7  UNL     1     -11.285 102.549  15.104  1.00  0.00    -0.234 N 
ATOM     33  H72 UNL     1     -10.550 102.590  14.398  1.00  0.00     0.174 HD
ATOM     34  H71 UNL     1     -11.146 102.927  16.040  1.00  0.00     0.174 HD
ENDBRANCH  25  32
ENDBRANCH  19  21
ENDBRANCH  16  19
ENDBRANCH   8  16
BRANCH   7  35
HETATM   35  N3  UNL     1     -13.838  95.232  14.616  1.00  0.00    -0.383 N 
ATOM     36  H32 UNL     1     -14.832  95.017  14.685  1.00  0.00     0.157 HD
ATOM     37  H31 UNL     1     -13.264  95.285  13.774  1.00  0.00     0.157 HD
ENDBRANCH   7  35
BRANCH  13  38
HETATM   38  O4  UNL     1     -12.327  96.764  20.745  1.00  0.00    -0.362 OA
ATOM     39  H4  UNL     1     -11.924  96.325  21.485  1.00  0.00     0.213 HD
ENDBRANCH  13  38
BRANCH  13  40
HETATM   40  C10 UNL     1     -10.155  96.066  20.443  1.00  0.00     0.243 C 
BRANCH  40  41
HETATM   41  N12 UNL     1     -10.563  95.691  21.787  1.00  0.00    -0.198 N 
HETATM   42  N13 UNL     1     -10.494  96.141  23.017  1.00  0.00    -0.209 N 
HETATM   43  N14 UNL     1     -11.164  95.109  23.487  1.00  0.00    -0.211 N 
ATOM     44  H13 UNL     1     -10.081  96.970  23.444  1.00  0.00     0.211 HD
HETATM   45  N15 UNL     1     -11.243  94.643  22.261  1.00  0.00    -0.209 N 
ATOM     46  H14 UNL     1     -11.484  94.802  24.407  1.00  0.00     0.211 HD
ATOM     47  H15 UNL     1     -11.658  93.812  21.839  1.00  0.00     0.211 HD
ENDBRANCH  40  41
ENDBRANCH  13  40
TORSDOF 10
ENDMDL
MODEL 5
REMARK VINA RESULT: -8.303883613      1.882      2.890
REMARK  10 active torsions:
REMARK  status: ('A' for Active; 'I' for Inactive)
REMARK    1  A    between atoms: C2_7  and  N3_8 
REMARK    2  A    between atoms: C3_11  and  C4_12 
REMARK    3  A    between atoms: C4_12  and  O1_13 
REMARK    4  A    between atoms: C4_12  and  N4_15 
REMARK    5  A    between atoms: N4_15  and  C5_17 
REMARK    6  A    between atoms: C7_19  and  N5_20 
REMARK    7  A    between atoms: C8_25  and  N7_26 
REMARK    8  A    between atoms: C9_35  and  O4_36 
REMARK    9  A    between atoms: C9_35  and  C10_38 
REMARK   10  A    between atoms: C10_38  and  N12_39 
ROOT
HETATM    1  N1  UNL     1     -14.331  91.872  26.416  1.00  0.00    -0.383 N 
ATOM      2  H11 UNL     1     -14.459  92.388  27.286  1.00  0.00     0.157 HD
ATOM      3  H12 UNL     1     -14.535  90.876  26.347  1.00  0.00     0.157 HD
HETATM    4  C1  UNL     1     -13.947  92.288  25.378  1.00  0.00     0.145 A 
HETATM    5  N2  UNL     1     -13.760  91.533  24.102  1.00  0.00    -0.325 N 
ATOM      6  H2  UNL     1     -14.000  90.544  24.165  1.00  0.00     0.169 HD
HETATM    7  C2  UNL     1     -13.296  91.949  22.785  1.00  0.00     0.136 A 
HETATM    8  C3  UNL     1     -12.898  93.213  22.381  1.00  0.00     0.180 A 
HETATM    9  N9  UNL     1     -12.920  94.281  23.313  1.00  0.00    -0.105 N 
HETATM   10  N10 UNL     1     -12.672  95.599  23.483  1.00  0.00     0.011 NA
HETATM   11  N11 UNL     1     -12.973  95.912  24.808  1.00  0.00    -0.275 N 
ATOM     12  H11 UNL     1     -12.827  96.889  25.065  1.00  0.00     0.181 HD
HETATM   13  C9  UNL     1     -13.499  95.001  25.955  1.00  0.00     0.227 A 
HETATM   14  C11 UNL     1     -13.654  93.723  25.478  1.00  0.00     0.211 A 
HETATM   15  N16 UNL     1     -13.303  93.957  24.419  1.00  0.00    -0.299 NA
ENDROOT
BRANCH   8  16
HETATM   16  C4  UNL     1     -12.447  93.715  21.182  1.00  0.00     0.177 C 
BRANCH  16  17
HETATM   17  O1  UNL     1     -12.972  93.173  20.095  1.00  0.00    -0.344 OA
ATOM     18  H1  UNL     1     -12.770  93.610  19.275  1.00  0.00     0.219 HD
ENDBRANCH  16  17
BRANCH  16  19
HETATM   19  N4  UNL     1     -11.526  94.704  20.888  1.00  0.00    -0.321 N 
ATOM     20  H4  UNL     1     -10.720  94.831  21.501  1.00  0.00     0.169 HD
BRANCH  19  21
HETATM   21  C5  UNL     1     -11.669  95.536  19.773  1.00  0.00     0.126 A 
HETATM   22  C6  UNL     1     -11.026  96.747  19.741  1.00  0.00     0.104 A 
HETATM   23  C7  UNL     1     -11.164  97.567  18.648  1.00  0.00     0.192 A 
HETATM   24  N6  UNL     1     -11.929  97.205  17.583  1.00  0.00    -0.171 N 
HETATM   25  C8  UNL     1     -12.545  96.015  17.646  1.00  0.00     0.679 A 
ATOM     26  H6  UNL     1     -12.031  97.813  16.770  1.00  0.00     0.186 HD
HETATM   27  N8  UNL     1     -12.409  95.209  18.721  1.00  0.00    -0.177 N 
ATOM     28  H8  UNL     1     -12.895  94.312  18.724  1.00  0.00     0.185 HD
BRANCH  23  29
HETATM   29  N5  UNL     1     -10.506  98.813  18.608  1.00  0.00    -0.097 N 
HETATM   30  O2  UNL     1     -10.024  99.294  19.635  1.00  0.00    -0.531 OA
HETATM   31  O3  UNL     1     -10.392  99.512  17.428  1.00  0.00    -0.531 OA
ENDBRANCH  23  29
BRANCH  25  32
HETATM   32  N7  UNL     1     -13.282  95.621  16.669  1.00  0.00    -0.234 N 
ATOM     33  H72 UNL     1     -12.833  95.387  15.783  1.00  0.00     0.174 HD
ATOM     34  H71 UNL     1     -14.292  95.550  16.790  1.00  0.00     0.174 HD
ENDBRANCH  25  32
ENDBRANCH  19  21
ENDBRANCH  16  19
ENDBRANCH   8  16
BRANCH   7  35
HETATM   35  N3  UNL     1     -13.218  91.023  21.767  1.00  0.00    -0.383 N 
ATOM     36  H32 UNL     1     -12.668  91.360  20.977  1.00  0.00     0.157 HD
ATOM     37  H31 UNL     1     -13.685  90.122  21.868  1.00  0.00     0.157 HD
ENDBRANCH   7  35
BRANCH  13  38
HETATM   38  O4  UNL     1     -14.785  95.596  26.106  1.00  0.00    -0.362 OA
ATOM     39  H4  UNL     1     -14.796  96.096  25.299  1.00  0.00     0.213 HD
ENDBRANCH  13  38
BRANCH  13  40
HETATM   40  C10 UNL     1     -12.733  95.408  27.129  1.00  0.00     0.243 C 
BRANCH  40  41
HETATM   41  N12 UNL     1     -13.680  95.334  28.231  1.00  0.00    -0.198 N 
HETATM   42  N13 UNL     1     -14.679  94.593  28.645  1.00  0.00    -0.209 N 
HETATM   43  N14 UNL     1     -14.846  95.330  29.724  1.00  0.00    -0.211 N 
ATOM     44  H13 UNL     1     -15.146  93.766  28.275  1.00  0.00     0.211 HD
HETATM   45  N15 UNL     1     -13.846  96.083  29.325  1.00  0.00    -0.209 N 
ATOM     46  H14 UNL     1     -15.478  95.320  30.526  1.00  0.00     0.211 HD
ATOM     47  H15 UNL     1     -13.383  96.911  29.700  1.00  0.00     0.211 HD
ENDBRANCH  40  41
ENDBRANCH  13  40
TORSDOF 10
ENDMDL
