MODEL 1
REMARK VINA RESULT: -11.044018405      0.000      0.000
REMARK  16 active torsions:
REMARK  status: ('A' for Active; 'I' for Inactive)
REMARK    1  A    between atoms: N1_2  and  S1_4 
REMARK    2  A    between atoms: S1_4  and  N2_7 
REMARK    3  A    between atoms: C3_9  and  C4_10 
REMARK    4  A    between atoms: C4_10  and  N3_11 
REMARK    5  A    between atoms: N3_11  and  C5_13 
REMARK    6  A    between atoms: C8_20  and  C9_21 
REMARK    7  A    between atoms: C9_21  and  N6_23 
REMARK    8  A    between atoms: C11_26  and  O3_27 
REMARK    9  A    between atoms: O3_27  and  C12_28 
REMARK   10  A    between atoms: C14_30  and  O4_31 
REMARK   11  A    between atoms: C15_33  and  C16_34 
REMARK   12  A    between atoms: C16_34  and  O5_35 
REMARK   13  A    between atoms: C19_43  and  N9_44 
REMARK   14  A    between atoms: N9_44  and  C20_46 
REMARK   15  A    between atoms: C20_46  and  C21_47 
REMARK   16  A    between atoms: C21_47  and  O8_48 
ROOT
HETATM    1  N6  UNL     1      29.994   3.578  36.234  1.00  0.00    -0.263 N 
HETATM    2  N7  UNL     1      29.751   4.239  37.326  1.00  0.00    -0.274 N 
ATOM      3  H7  UNL     1      28.816   4.388  37.706  1.00  0.00     0.189 HD
HETATM    4  C11 UNL     1      30.898   4.712  37.904  1.00  0.00     0.179 A 
HETATM    5  C17 UNL     1      31.918   4.280  37.056  1.00  0.00     0.131 A 
HETATM    6  C18 UNL     1      33.295   4.447  37.114  1.00  0.00     0.278 A 
HETATM    7  O7  UNL     1      33.811   5.089  38.057  1.00  0.00    -0.266 OA
HETATM    8  N8  UNL     1      34.022   3.895  36.123  1.00  0.00    -0.155 N 
ATOM      9  H8  UNL     1      35.036   4.004  36.140  1.00  0.00     0.187 HD
HETATM   10  C19 UNL     1      33.463   3.208  35.114  1.00  0.00     0.682 A 
HETATM   11  N10 UNL     1      32.132   3.062  35.084  1.00  0.00    -0.174 N 
ATOM     12  H10 UNL     1      31.713   2.540  34.315  1.00  0.00     0.186 HD
HETATM   13  C22 UNL     1      31.313   3.584  36.041  1.00  0.00     0.158 A 
ENDROOT
BRANCH   1  14
HETATM   14  C9  UNL     1      29.032   2.940  35.367  1.00  0.00     0.158 C 
HETATM   15  C10 UNL     1      29.105   3.442  33.946  1.00  0.00     0.041 C 
BRANCH  14  16
HETATM   16  C8  UNL     1      27.654   3.039  35.922  1.00  0.00     0.064 A 
HETATM   17  C7  UNL     1      26.466   2.617  35.325  1.00  0.00     0.099 A 
HETATM   18  C6  UNL     1      26.200   2.021  34.128  1.00  0.00     0.140 A 
HETATM   19  N12 UNL     1      25.428   2.878  36.138  1.00  0.00    -0.139 N 
HETATM   20  N5  UNL     1      24.935   1.712  33.790  1.00  0.00    -0.295 N 
HETATM   21  N4  UNL     1      23.908   1.965  34.583  1.00  0.00    -0.132 N 
ATOM     22  H5  UNL     1      24.762   1.266  32.889  1.00  0.00     0.186 HD
HETATM   23  C5  UNL     1      24.158   2.550  35.762  1.00  0.00     0.701 A 
ATOM     24  H4  UNL     1      22.956   1.722  34.307  1.00  0.00     0.205 HD
HETATM   25  C23 UNL     1      25.944   3.457  37.237  1.00  0.00     0.207 A 
HETATM   26  N11 UNL     1      27.276   3.553  37.106  1.00  0.00    -0.351 N 
ATOM     27  H11 UNL     1      27.906   3.955  37.800  1.00  0.00     0.166 HD
BRANCH  23  28
HETATM   28  N3  UNL     1      23.224   2.837  36.599  1.00  0.00    -0.218 N 
ATOM     29  H3  UNL     1      22.947   2.127  37.278  1.00  0.00     0.178 HD
BRANCH  28  30
HETATM   30  C4  UNL     1      22.549   4.111  36.625  1.00  0.00     0.198 C 
BRANCH  30  31
HETATM   31  C3  UNL     1      21.215   3.951  36.009  1.00  0.00     0.063 A 
HETATM   32  C2  UNL     1      20.417   4.973  35.551  1.00  0.00     0.160 A 
HETATM   33  N2  UNL     1      19.285   4.455  35.062  1.00  0.00    -0.159 N 
HETATM   34  N14 UNL     1      19.375   3.133  35.213  1.00  0.00    -0.225 N 
HETATM   35  N13 UNL     1      20.520   2.818  35.777  1.00  0.00    -0.286 N 
ATOM     36  H14 UNL     1      18.659   2.464  34.931  1.00  0.00     0.209 HD
ATOM     37  H13 UNL     1      20.831   1.873  36.002  1.00  0.00     0.188 HD
BRANCH  33  38
HETATM   38  S1  UNL     1      17.994   5.358  34.382  1.00  0.00     0.339 S 
HETATM   39  O1  UNL     1      17.234   4.525  33.385  1.00  0.00    -0.181 OA
HETATM   40  O2  UNL     1      17.077   5.796  35.459  1.00  0.00    -0.181 OA
BRANCH  38  41
HETATM   41  N1  UNL     1      18.680   6.753  33.623  1.00  0.00    -0.305 N 
HETATM   42  C1  UNL     1      19.202   6.470  32.321  1.00  0.00     0.161 C 
ATOM     43  H1  UNL     1      18.709   7.677  34.056  1.00  0.00     0.173 HD
ENDBRANCH  38  41
ENDBRANCH  33  38
ENDBRANCH  30  31
ENDBRANCH  28  30
ENDBRANCH  23  28
ENDBRANCH  14  16
ENDBRANCH   1  14
BRANCH   4  44
HETATM   44  O3  UNL     1      31.054   5.412  38.996  1.00  0.00    -0.302 OA
BRANCH  44  45
HETATM   45  C12 UNL     1      31.158   6.238  39.980  1.00  0.00     0.271 C 
HETATM   46  C13 UNL     1      31.391   7.723  39.594  1.00  0.00     0.095 C 
HETATM   47  C14 UNL     1      31.761   8.292  40.958  1.00  0.00     0.154 C 
HETATM   48  C15 UNL     1      32.331   7.097  41.665  1.00  0.00     0.177 C 
HETATM   49  O6  UNL     1      32.372   6.068  40.726  1.00  0.00    -0.351 OA
BRANCH  47  50
HETATM   50  O4  UNL     1      30.546   8.682  41.564  1.00  0.00    -0.393 OA
ATOM     51  H4  UNL     1      30.277   7.953  42.110  1.00  0.00     0.210 HD
ENDBRANCH  47  50
BRANCH  48  52
HETATM   52  C16 UNL     1      33.722   7.367  42.204  1.00  0.00     0.198 C 
BRANCH  52  53
HETATM   53  O5  UNL     1      34.242   8.557  41.692  1.00  0.00    -0.398 OA
ATOM     54  H5  UNL     1      35.087   8.759  42.079  1.00  0.00     0.209 HD
ENDBRANCH  52  53
ENDBRANCH  48  52
ENDBRANCH  44  45
ENDBRANCH   4  44
BRANCH  10  55
HETATM   55  N9  UNL     1      34.171   2.697  34.191  1.00  0.00    -0.224 N 
ATOM     56  H9  UNL     1      34.119   1.696  34.003  1.00  0.00     0.177 HD
BRANCH  55  57
HETATM   57  C20 UNL     1      35.045   3.531  33.413  1.00  0.00     0.164 C 
BRANCH  57  58
HETATM   58  C21 UNL     1      36.070   2.714  32.645  1.00  0.00     0.184 C 
BRANCH  58  59
HETATM   59  O8  UNL     1      37.037   2.167  33.455  1.00  0.00    -0.399 OA
ATOM     60  H8  UNL     1      37.346   2.768  34.121  1.00  0.00     0.209 HD
ENDBRANCH  58  59
ENDBRANCH  57  58
ENDBRANCH  55  57
ENDBRANCH  10  55
TORSDOF 16
ENDMDL
MODEL 2
REMARK VINA RESULT: -10.755219777      3.955     11.532
REMARK  16 active torsions:
REMARK  status: ('A' for Active; 'I' for Inactive)
REMARK    1  A    between atoms: N1_2  and  S1_4 
REMARK    2  A    between atoms: S1_4  and  N2_7 
REMARK    3  A    between atoms: C3_9  and  C4_10 
REMARK    4  A    between atoms: C4_10  and  N3_11 
REMARK    5  A    between atoms: N3_11  and  C5_13 
REMARK    6  A    between atoms: C8_20  and  C9_21 
REMARK    7  A    between atoms: C9_21  and  N6_23 
REMARK    8  A    between atoms: C11_26  and  O3_27 
REMARK    9  A    between atoms: O3_27  and  C12_28 
REMARK   10  A    between atoms: C14_30  and  O4_31 
REMARK   11  A    between atoms: C15_33  and  C16_34 
REMARK   12  A    between atoms: C16_34  and  O5_35 
REMARK   13  A    between atoms: C19_43  and  N9_44 
REMARK   14  A    between atoms: N9_44  and  C20_46 
REMARK   15  A    between atoms: C20_46  and  C21_47 
REMARK   16  A    between atoms: C21_47  and  O8_48 
ROOT
HETATM    1  N6  UNL     1      21.826   6.237  37.277  1.00  0.00    -0.263 N 
HETATM    2  N7  UNL     1      20.580   6.134  36.923  1.00  0.00    -0.274 N 
ATOM      3  H7  UNL     1      19.932   5.450  37.311  1.00  0.00     0.189 HD
HETATM    4  C11 UNL     1      20.242   7.053  35.966  1.00  0.00     0.179 A 
HETATM    5  C17 UNL     1      21.420   7.767  35.739  1.00  0.00     0.131 A 
HETATM    6  C18 UNL     1      21.705   8.822  34.884  1.00  0.00     0.278 A 
HETATM    7  O7  UNL     1      20.811   9.286  34.139  1.00  0.00    -0.266 OA
HETATM    8  N8  UNL     1      22.964   9.302  34.900  1.00  0.00    -0.155 N 
ATOM      9  H8  UNL     1      23.201  10.076  34.280  1.00  0.00     0.187 HD
HETATM   10  C19 UNL     1      23.918   8.799  35.700  1.00  0.00     0.682 A 
HETATM   11  N10 UNL     1      23.614   7.781  36.515  1.00  0.00    -0.174 N 
ATOM     12  H10 UNL     1      24.343   7.403  37.120  1.00  0.00     0.186 HD
HETATM   13  C22 UNL     1      22.368   7.229  36.570  1.00  0.00     0.158 A 
ENDROOT
BRANCH   1  14
HETATM   14  C9  UNL     1      22.525   5.438  38.256  1.00  0.00     0.158 C 
HETATM   15  C10 UNL     1      23.045   6.255  39.412  1.00  0.00     0.041 C 
BRANCH  14  16
HETATM   16  C8  UNL     1      23.598   4.623  37.623  1.00  0.00     0.064 A 
HETATM   17  C7  UNL     1      23.473   3.743  36.547  1.00  0.00     0.099 A 
HETATM   18  C6  UNL     1      22.407   3.372  35.782  1.00  0.00     0.140 A 
HETATM   19  N12 UNL     1      24.667   3.194  36.265  1.00  0.00    -0.139 N 
HETATM   20  N5  UNL     1      22.565   2.484  34.784  1.00  0.00    -0.295 N 
HETATM   21  N4  UNL     1      23.735   1.939  34.499  1.00  0.00    -0.132 N 
ATOM     22  H5  UNL     1      21.752   2.222  34.225  1.00  0.00     0.186 HD
HETATM   23  C5  UNL     1      24.789   2.297  35.244  1.00  0.00     0.701 A 
ATOM     24  H4  UNL     1      23.832   1.267  33.737  1.00  0.00     0.205 HD
HETATM   25  C23 UNL     1      25.541   3.714  37.145  1.00  0.00     0.207 A 
HETATM   26  N11 UNL     1      24.900   4.568  37.957  1.00  0.00    -0.351 N 
ATOM     27  H11 UNL     1      25.334   5.096  38.714  1.00  0.00     0.166 HD
BRANCH  23  28
HETATM   28  N3  UNL     1      25.967   1.819  35.044  1.00  0.00    -0.218 N 
ATOM     29  H3  UNL     1      26.290   1.060  35.643  1.00  0.00     0.178 HD
BRANCH  28  30
HETATM   30  C4  UNL     1      26.853   2.302  34.012  1.00  0.00     0.198 C 
BRANCH  30  31
HETATM   31  C3  UNL     1      28.153   2.638  34.628  1.00  0.00     0.063 A 
HETATM   32  C2  UNL     1      28.521   2.357  35.923  1.00  0.00     0.160 A 
HETATM   33  N2  UNL     1      29.763   2.809  36.130  1.00  0.00    -0.159 N 
HETATM   34  N14 UNL     1      30.163   3.361  34.984  1.00  0.00    -0.225 N 
HETATM   35  N13 UNL     1      29.213   3.267  34.080  1.00  0.00    -0.286 N 
ATOM     36  H14 UNL     1      31.074   3.793  34.831  1.00  0.00     0.209 HD
ATOM     37  H13 UNL     1      29.269   3.614  33.122  1.00  0.00     0.188 HD
BRANCH  33  38
HETATM   38  S1  UNL     1      30.634   2.678  37.603  1.00  0.00     0.339 S 
HETATM   39  O1  UNL     1      30.828   4.036  38.224  1.00  0.00    -0.181 OA
HETATM   40  O2  UNL     1      29.886   1.810  38.542  1.00  0.00    -0.181 OA
BRANCH  38  41
HETATM   41  N1  UNL     1      32.156   1.941  37.244  1.00  0.00    -0.305 N 
HETATM   42  C1  UNL     1      33.141   2.891  36.822  1.00  0.00     0.161 C 
ATOM     43  H1  UNL     1      32.334   0.940  37.324  1.00  0.00     0.173 HD
ENDBRANCH  38  41
ENDBRANCH  33  38
ENDBRANCH  30  31
ENDBRANCH  28  30
ENDBRANCH  23  28
ENDBRANCH  14  16
ENDBRANCH   1  14
BRANCH   4  44
HETATM   44  O3  UNL     1      19.097   7.255  35.371  1.00  0.00    -0.302 OA
BRANCH  44  45
HETATM   45  C12 UNL     1      18.039   7.381  34.645  1.00  0.00     0.271 C 
HETATM   46  C13 UNL     1      18.250   7.247  33.113  1.00  0.00     0.095 C 
HETATM   47  C14 UNL     1      16.901   7.751  32.619  1.00  0.00     0.154 C 
HETATM   48  C15 UNL     1      16.468   8.664  33.729  1.00  0.00     0.177 C 
HETATM   49  O6  UNL     1      17.534   8.725  34.625  1.00  0.00    -0.351 OA
BRANCH  47  50
HETATM   50  O4  UNL     1      16.055   6.620  32.562  1.00  0.00    -0.393 OA
ATOM     51  H4  UNL     1      16.546   5.947  32.104  1.00  0.00     0.210 HD
ENDBRANCH  47  50
BRANCH  48  52
HETATM   52  C16 UNL     1      16.133  10.054  33.222  1.00  0.00     0.198 C 
BRANCH  52  53
HETATM   53  O5  UNL     1      16.241  11.004  34.238  1.00  0.00    -0.398 OA
ATOM     54  H5  UNL     1      16.614  11.816  33.914  1.00  0.00     0.209 HD
ENDBRANCH  52  53
ENDBRANCH  48  52
ENDBRANCH  44  45
ENDBRANCH   4  44
BRANCH  10  55
HETATM   55  N9  UNL     1      25.098   9.269  35.697  1.00  0.00    -0.224 N 
ATOM     56  H9  UNL     1      25.896   8.645  35.572  1.00  0.00     0.177 HD
BRANCH  55  57
HETATM   57  C20 UNL     1      25.307  10.680  35.869  1.00  0.00     0.164 C 
BRANCH  57  58
HETATM   58  C21 UNL     1      26.408  10.970  36.876  1.00  0.00     0.184 C 
BRANCH  58  59
HETATM   59  O8  UNL     1      26.287  10.233  38.030  1.00  0.00    -0.399 OA
ATOM     60  H8  UNL     1      26.492  10.732  38.812  1.00  0.00     0.209 HD
ENDBRANCH  58  59
ENDBRANCH  57  58
ENDBRANCH  55  57
ENDBRANCH  10  55
TORSDOF 16
ENDMDL
MODEL 3
REMARK VINA RESULT: -10.578599381      1.854      5.459
REMARK  16 active torsions:
REMARK  status: ('A' for Active; 'I' for Inactive)
REMARK    1  A    between atoms: N1_2  and  S1_4 
REMARK    2  A    between atoms: S1_4  and  N2_7 
REMARK    3  A    between atoms: C3_9  and  C4_10 
REMARK    4  A    between atoms: C4_10  and  N3_11 
REMARK    5  A    between atoms: N3_11  and  C5_13 
REMARK    6  A    between atoms: C8_20  and  C9_21 
REMARK    7  A    between atoms: C9_21  and  N6_23 
REMARK    8  A    between atoms: C11_26  and  O3_27 
REMARK    9  A    between atoms: O3_27  and  C12_28 
REMARK   10  A    between atoms: C14_30  and  O4_31 
REMARK   11  A    between atoms: C15_33  and  C16_34 
REMARK   12  A    between atoms: C16_34  and  O5_35 
REMARK   13  A    between atoms: C19_43  and  N9_44 
REMARK   14  A    between atoms: N9_44  and  C20_46 
REMARK   15  A    between atoms: C20_46  and  C21_47 
REMARK   16  A    between atoms: C21_47  and  O8_48 
ROOT
HETATM    1  N6  UNL     1      29.594   2.762  37.198  1.00  0.00    -0.263 N 
HETATM    2  N7  UNL     1      30.499   2.327  36.373  1.00  0.00    -0.274 N 
ATOM      3  H7  UNL     1      30.398   1.484  35.809  1.00  0.00     0.189 HD
HETATM    4  C11 UNL     1      31.604   3.135  36.353  1.00  0.00     0.179 A 
HETATM    5  C17 UNL     1      31.310   4.149  37.266  1.00  0.00     0.131 A 
HETATM    6  C18 UNL     1      32.037   5.257  37.676  1.00  0.00     0.278 A 
HETATM    7  O7  UNL     1      33.176   5.471  37.201  1.00  0.00    -0.266 OA
HETATM    8  N8  UNL     1      31.464   6.064  38.590  1.00  0.00    -0.155 N 
ATOM      9  H8  UNL     1      31.978   6.885  38.910  1.00  0.00     0.187 HD
HETATM   10  C19 UNL     1      30.243   5.828  39.096  1.00  0.00     0.682 A 
HETATM   11  N10 UNL     1      29.563   4.751  38.682  1.00  0.00    -0.174 N 
ATOM     12  H10 UNL     1      28.637   4.577  39.071  1.00  0.00     0.186 HD
HETATM   13  C22 UNL     1      30.060   3.877  37.761  1.00  0.00     0.158 A 
ENDROOT
BRANCH   1  14
HETATM   14  C9  UNL     1      28.308   2.168  37.476  1.00  0.00     0.158 C 
HETATM   15  C10 UNL     1      28.338   0.660  37.426  1.00  0.00     0.041 C 
BRANCH  14  16
HETATM   16  C8  UNL     1      27.249   2.732  36.593  1.00  0.00     0.064 A 
HETATM   17  C7  UNL     1      26.131   3.473  36.975  1.00  0.00     0.099 A 
HETATM   18  C6  UNL     1      25.678   3.892  38.192  1.00  0.00     0.140 A 
HETATM   19  N12 UNL     1      25.410   3.805  35.891  1.00  0.00    -0.139 N 
HETATM   20  N5  UNL     1      24.545   4.611  38.283  1.00  0.00    -0.295 N 
HETATM   21  N4  UNL     1      23.828   4.941  37.221  1.00  0.00    -0.132 N 
ATOM     22  H5  UNL     1      24.226   4.912  39.204  1.00  0.00     0.186 HD
HETATM   23  C5  UNL     1      24.265   4.536  36.022  1.00  0.00     0.701 A 
ATOM     24  H4  UNL     1      22.971   5.487  37.313  1.00  0.00     0.205 HD
HETATM   25  C23 UNL     1      26.055   3.284  34.832  1.00  0.00     0.207 A 
HETATM   26  N11 UNL     1      27.156   2.642  35.254  1.00  0.00    -0.351 N 
ATOM     27  H11 UNL     1      27.821   2.158  34.651  1.00  0.00     0.166 HD
BRANCH  23  28
HETATM   28  N3  UNL     1      23.635   4.807  34.933  1.00  0.00    -0.218 N 
ATOM     29  H3  UNL     1      23.856   4.266  34.097  1.00  0.00     0.178 HD
BRANCH  28  30
HETATM   30  C4  UNL     1      22.631   5.838  34.836  1.00  0.00     0.198 C 
BRANCH  30  31
HETATM   31  C3  UNL     1      21.298   5.200  34.838  1.00  0.00     0.063 A 
HETATM   32  C2  UNL     1      20.108   5.831  34.561  1.00  0.00     0.160 A 
HETATM   33  N2  UNL     1      19.112   4.944  34.661  1.00  0.00    -0.159 N 
HETATM   34  N14 UNL     1      19.670   3.780  34.995  1.00  0.00    -0.225 N 
HETATM   35  N13 UNL     1      20.973   3.917  35.105  1.00  0.00    -0.286 N 
ATOM     36  H14 UNL     1      19.160   2.910  35.143  1.00  0.00     0.209 HD
ATOM     37  H13 UNL     1      21.629   3.177  35.352  1.00  0.00     0.188 HD
BRANCH  33  38
HETATM   38  S1  UNL     1      17.450   5.286  34.400  1.00  0.00     0.339 S 
HETATM   39  O1  UNL     1      16.863   4.321  33.405  1.00  0.00    -0.181 OA
HETATM   40  O2  UNL     1      16.717   5.178  35.682  1.00  0.00    -0.181 OA
BRANCH  38  41
HETATM   41  N1  UNL     1      17.339   6.912  33.822  1.00  0.00    -0.305 N 
HETATM   42  C1  UNL     1      17.210   6.981  32.397  1.00  0.00     0.161 C 
ATOM     43  H1  UNL     1      17.363   7.732  34.428  1.00  0.00     0.173 HD
ENDBRANCH  38  41
ENDBRANCH  33  38
ENDBRANCH  30  31
ENDBRANCH  28  30
ENDBRANCH  23  28
ENDBRANCH  14  16
ENDBRANCH   1  14
BRANCH   4  44
HETATM   44  O3  UNL     1      32.705   3.025  35.659  1.00  0.00    -0.302 OA
BRANCH  44  45
HETATM   45  C12 UNL     1      33.700   2.819  34.866  1.00  0.00     0.271 C 
HETATM   46  C13 UNL     1      35.053   3.442  35.303  1.00  0.00     0.095 C 
HETATM   47  C14 UNL     1      35.850   3.261  34.017  1.00  0.00     0.154 C 
HETATM   48  C15 UNL     1      34.778   3.253  32.968  1.00  0.00     0.177 C 
HETATM   49  O6  UNL     1      33.582   3.533  33.626  1.00  0.00    -0.351 OA
BRANCH  47  50
HETATM   50  O4  UNL     1      36.454   1.986  34.106  1.00  0.00    -0.393 OA
ATOM     51  H4  UNL     1      35.751   1.354  34.014  1.00  0.00     0.210 HD
ENDBRANCH  47  50
BRANCH  48  52
HETATM   52  C16 UNL     1      35.034   4.287  31.888  1.00  0.00     0.198 C 
BRANCH  52  53
HETATM   53  O5  UNL     1      36.086   3.902  31.056  1.00  0.00    -0.398 OA
ATOM     54  H5  UNL     1      36.453   3.068  31.327  1.00  0.00     0.209 HD
ENDBRANCH  52  53
ENDBRANCH  48  52
ENDBRANCH  44  45
ENDBRANCH   4  44
BRANCH  10  55
HETATM   55  N9  UNL     1      29.724   6.604  39.957  1.00  0.00    -0.224 N 
ATOM     56  H9  UNL     1      29.082   6.233  40.658  1.00  0.00     0.177 HD
BRANCH  55  57
HETATM   57  C20 UNL     1      30.043   8.005  39.943  1.00  0.00     0.164 C 
BRANCH  57  58
HETATM   58  C21 UNL     1      31.162   8.340  40.916  1.00  0.00     0.184 C 
BRANCH  58  59
HETATM   59  O8  UNL     1      32.381   8.493  40.299  1.00  0.00    -0.399 OA
ATOM     60  H8  UNL     1      33.056   8.810  40.886  1.00  0.00     0.209 HD
ENDBRANCH  58  59
ENDBRANCH  57  58
ENDBRANCH  55  57
ENDBRANCH  10  55
TORSDOF 16
ENDMDL
MODEL 4
REMARK VINA RESULT: -10.526179702      1.561      1.706
REMARK  16 active torsions:
REMARK  status: ('A' for Active; 'I' for Inactive)
REMARK    1  A    between atoms: N1_2  and  S1_4 
REMARK    2  A    between atoms: S1_4  and  N2_7 
REMARK    3  A    between atoms: C3_9  and  C4_10 
REMARK    4  A    between atoms: C4_10  and  N3_11 
REMARK    5  A    between atoms: N3_11  and  C5_13 
REMARK    6  A    between atoms: C8_20  and  C9_21 
REMARK    7  A    between atoms: C9_21  and  N6_23 
REMARK    8  A    between atoms: C11_26  and  O3_27 
REMARK    9  A    between atoms: O3_27  and  C12_28 
REMARK   10  A    between atoms: C14_30  and  O4_31 
REMARK   11  A    between atoms: C15_33  and  C16_34 
REMARK   12  A    between atoms: C16_34  and  O5_35 
REMARK   13  A    between atoms: C19_43  and  N9_44 
REMARK   14  A    between atoms: N9_44  and  C20_46 
REMARK   15  A    between atoms: C20_46  and  C21_47 
REMARK   16  A    between atoms: C21_47  and  O8_48 
ROOT
HETATM    1  N6  UNL     1      30.125   3.644  36.156  1.00  0.00    -0.263 N 
HETATM    2  N7  UNL     1      29.898   4.362  37.215  1.00  0.00    -0.274 N 
ATOM      3  H7  UNL     1      28.967   4.555  37.584  1.00  0.00     0.189 HD
HETATM    4  C11 UNL     1      31.056   4.830  37.774  1.00  0.00     0.179 A 
HETATM    5  C17 UNL     1      32.066   4.330  36.951  1.00  0.00     0.131 A 
HETATM    6  C18 UNL     1      33.446   4.462  37.005  1.00  0.00     0.278 A 
HETATM    7  O7  UNL     1      33.978   5.133  37.919  1.00  0.00    -0.266 OA
HETATM    8  N8  UNL     1      34.161   3.844  36.044  1.00  0.00    -0.155 N 
ATOM      9  H8  UNL     1      35.177   3.925  36.060  1.00  0.00     0.187 HD
HETATM   10  C19 UNL     1      33.584   3.126  35.067  1.00  0.00     0.682 A 
HETATM   11  N10 UNL     1      32.250   3.015  35.040  1.00  0.00    -0.174 N 
ATOM     12  H10 UNL     1      31.818   2.469  34.294  1.00  0.00     0.186 HD
HETATM   13  C22 UNL     1      31.444   3.604  35.968  1.00  0.00     0.158 A 
ENDROOT
BRANCH   1  14
HETATM   14  C9  UNL     1      29.147   2.992  35.317  1.00  0.00     0.158 C 
HETATM   15  C10 UNL     1      29.170   3.497  33.895  1.00  0.00     0.041 C 
BRANCH  14  16
HETATM   16  C8  UNL     1      27.785   3.070  35.913  1.00  0.00     0.064 A 
HETATM   17  C7  UNL     1      26.586   2.629  35.351  1.00  0.00     0.099 A 
HETATM   18  C6  UNL     1      26.295   2.029  34.162  1.00  0.00     0.140 A 
HETATM   19  N12 UNL     1      25.569   2.874  36.195  1.00  0.00    -0.139 N 
HETATM   20  N5  UNL     1      25.025   1.699  33.862  1.00  0.00    -0.295 N 
HETATM   21  N4  UNL     1      24.018   1.937  34.685  1.00  0.00    -0.132 N 
ATOM     22  H5  UNL     1      24.832   1.251  32.966  1.00  0.00     0.186 HD
HETATM   23  C5  UNL     1      24.294   2.526  35.856  1.00  0.00     0.701 A 
ATOM     24  H4  UNL     1      23.063   1.679  34.437  1.00  0.00     0.205 HD
HETATM   25  C23 UNL     1      26.108   3.462  37.278  1.00  0.00     0.207 A 
HETATM   26  N11 UNL     1      27.434   3.578  37.107  1.00  0.00    -0.351 N 
ATOM     27  H11 UNL     1      28.078   3.991  37.782  1.00  0.00     0.166 HD
BRANCH  23  28
HETATM   28  N3  UNL     1      23.380   2.799  36.721  1.00  0.00    -0.218 N 
ATOM     29  H3  UNL     1      23.668   3.063  37.663  1.00  0.00     0.178 HD
BRANCH  28  30
HETATM   30  C4  UNL     1      21.969   2.749  36.423  1.00  0.00     0.198 C 
BRANCH  30  31
HETATM   31  C3  UNL     1      21.631   3.895  35.553  1.00  0.00     0.063 A 
HETATM   32  C2  UNL     1      21.626   5.215  35.937  1.00  0.00     0.160 A 
HETATM   33  N2  UNL     1      21.268   5.970  34.891  1.00  0.00    -0.159 N 
HETATM   34  N14 UNL     1      21.055   5.134  33.874  1.00  0.00    -0.225 N 
HETATM   35  N13 UNL     1      21.267   3.894  34.254  1.00  0.00    -0.286 N 
ATOM     36  H14 UNL     1      20.770   5.418  32.937  1.00  0.00     0.209 HD
ATOM     37  H13 UNL     1      21.171   3.067  33.664  1.00  0.00     0.188 HD
BRANCH  33  38
HETATM   38  S1  UNL     1      21.127   7.680  34.905  1.00  0.00     0.339 S 
HETATM   39  O1  UNL     1      20.107   8.134  33.895  1.00  0.00    -0.181 OA
HETATM   40  O2  UNL     1      20.716   8.130  36.255  1.00  0.00    -0.181 OA
BRANCH  38  41
HETATM   41  N1  UNL     1      22.687   8.334  34.543  1.00  0.00    -0.305 N 
HETATM   42  C1  UNL     1      23.546   8.371  35.687  1.00  0.00     0.161 C 
ATOM     43  H1  UNL     1      22.964   8.657  33.616  1.00  0.00     0.173 HD
ENDBRANCH  38  41
ENDBRANCH  33  38
ENDBRANCH  30  31
ENDBRANCH  28  30
ENDBRANCH  23  28
ENDBRANCH  14  16
ENDBRANCH   1  14
BRANCH   4  44
HETATM   44  O3  UNL     1      31.229   5.577  38.832  1.00  0.00    -0.302 OA
BRANCH  44  45
HETATM   45  C12 UNL     1      31.240   6.269  39.919  1.00  0.00     0.271 C 
HETATM   46  C13 UNL     1      31.319   7.809  39.739  1.00  0.00     0.095 C 
HETATM   47  C14 UNL     1      31.619   8.224  41.173  1.00  0.00     0.154 C 
HETATM   48  C15 UNL     1      32.307   7.010  41.726  1.00  0.00     0.177 C 
HETATM   49  O6  UNL     1      32.461   6.127  40.660  1.00  0.00    -0.351 OA
BRANCH  47  50
HETATM   50  O4  UNL     1      30.366   8.402  41.801  1.00  0.00    -0.393 OA
ATOM     51  H4  UNL     1      30.483   8.134  42.705  1.00  0.00     0.210 HD
ENDBRANCH  47  50
BRANCH  48  52
HETATM   52  C16 UNL     1      33.659   7.348  42.324  1.00  0.00     0.198 C 
BRANCH  52  53
HETATM   53  O5  UNL     1      34.240   8.440  41.680  1.00  0.00    -0.398 OA
ATOM     54  H5  UNL     1      34.545   9.088  42.305  1.00  0.00     0.209 HD
ENDBRANCH  52  53
ENDBRANCH  48  52
ENDBRANCH  44  45
ENDBRANCH   4  44
BRANCH  10  55
HETATM   55  N9  UNL     1      34.280   2.552  34.172  1.00  0.00    -0.224 N 
ATOM     56  H9  UNL     1      34.287   1.534  34.105  1.00  0.00     0.177 HD
BRANCH  55  57
HETATM   57  C20 UNL     1      35.056   3.339  33.254  1.00  0.00     0.164 C 
BRANCH  57  58
HETATM   58  C21 UNL     1      36.179   2.530  32.625  1.00  0.00     0.184 C 
BRANCH  58  59
HETATM   59  O8  UNL     1      37.137   2.146  33.533  1.00  0.00    -0.399 OA
ATOM     60  H8  UNL     1      36.928   1.328  33.968  1.00  0.00     0.209 HD
ENDBRANCH  58  59
ENDBRANCH  57  58
ENDBRANCH  55  57
ENDBRANCH  10  55
TORSDOF 16
ENDMDL
MODEL 5
REMARK VINA RESULT: -10.506692679      1.628      1.720
REMARK  16 active torsions:
REMARK  status: ('A' for Active; 'I' for Inactive)
REMARK    1  A    between atoms: N1_2  and  S1_4 
REMARK    2  A    between atoms: S1_4  and  N2_7 
REMARK    3  A    between atoms: C3_9  and  C4_10 
REMARK    4  A    between atoms: C4_10  and  N3_11 
REMARK    5  A    between atoms: N3_11  and  C5_13 
REMARK    6  A    between atoms: C8_20  and  C9_21 
REMARK    7  A    between atoms: C9_21  and  N6_23 
REMARK    8  A    between atoms: C11_26  and  O3_27 
REMARK    9  A    between atoms: O3_27  and  C12_28 
REMARK   10  A    between atoms: C14_30  and  O4_31 
REMARK   11  A    between atoms: C15_33  and  C16_34 
REMARK   12  A    between atoms: C16_34  and  O5_35 
REMARK   13  A    between atoms: C19_43  and  N9_44 
REMARK   14  A    between atoms: N9_44  and  C20_46 
REMARK   15  A    between atoms: C20_46  and  C21_47 
REMARK   16  A    between atoms: C21_47  and  O8_48 
ROOT
HETATM    1  N6  UNL     1      29.457   3.524  36.145  1.00  0.00    -0.263 N 
HETATM    2  N7  UNL     1      29.119   4.224  37.186  1.00  0.00    -0.274 N 
ATOM      3  H7  UNL     1      28.160   4.331  37.515  1.00  0.00     0.189 HD
HETATM    4  C11 UNL     1      30.204   4.801  37.790  1.00  0.00     0.179 A 
HETATM    5  C17 UNL     1      31.291   4.393  37.014  1.00  0.00     0.131 A 
HETATM    6  C18 UNL     1      32.649   4.653  37.125  1.00  0.00     0.278 A 
HETATM    7  O7  UNL     1      33.076   5.377  38.055  1.00  0.00    -0.266 OA
HETATM    8  N8  UNL     1      33.458   4.100  36.201  1.00  0.00    -0.155 N 
ATOM      9  H8  UNL     1      34.461   4.276  36.258  1.00  0.00     0.187 HD
HETATM   10  C19 UNL     1      32.993   3.326  35.206  1.00  0.00     0.682 A 
HETATM   11  N10 UNL     1      31.677   3.092  35.124  1.00  0.00    -0.174 N 
ATOM     12  H10 UNL     1      31.331   2.504  34.366  1.00  0.00     0.186 HD
HETATM   13  C22 UNL     1      30.781   3.608  36.013  1.00  0.00     0.158 A 
ENDROOT
BRANCH   1  14
HETATM   14  C9  UNL     1      28.581   2.780  35.271  1.00  0.00     0.158 C 
HETATM   15  C10 UNL     1      28.759   3.145  33.818  1.00  0.00     0.041 C 
BRANCH  14  16
HETATM   16  C8  UNL     1      27.161   2.895  35.704  1.00  0.00     0.064 A 
HETATM   17  C7  UNL     1      26.038   2.343  35.086  1.00  0.00     0.099 A 
HETATM   18  C6  UNL     1      25.888   1.576  33.969  1.00  0.00     0.140 A 
HETATM   19  N12 UNL     1      24.932   2.668  35.775  1.00  0.00    -0.139 N 
HETATM   20  N5  UNL     1      24.665   1.168  33.585  1.00  0.00    -0.295 N 
HETATM   21  N4  UNL     1      23.570   1.483  34.257  1.00  0.00    -0.132 N 
ATOM     22  H5  UNL     1      24.578   0.594  32.746  1.00  0.00     0.186 HD
HETATM   23  C5  UNL     1      23.707   2.236  35.357  1.00  0.00     0.701 A 
ATOM     24  H4  UNL     1      22.652   1.163  33.948  1.00  0.00     0.205 HD
HETATM   25  C23 UNL     1      25.339   3.416  36.817  1.00  0.00     0.207 A 
HETATM   26  N11 UNL     1      26.673   3.551  36.772  1.00  0.00    -0.351 N 
ATOM     27  H11 UNL     1      27.233   4.072  37.446  1.00  0.00     0.166 HD
BRANCH  23  28
HETATM   28  N3  UNL     1      22.700   2.595  36.073  1.00  0.00    -0.218 N 
ATOM     29  H3  UNL     1      22.863   2.838  37.050  1.00  0.00     0.178 HD
BRANCH  28  30
HETATM   30  C4  UNL     1      21.353   2.670  35.563  1.00  0.00     0.198 C 
BRANCH  30  31
HETATM   31  C3  UNL     1      21.079   4.065  35.161  1.00  0.00     0.063 A 
HETATM   32  C2  UNL     1      20.688   5.079  36.004  1.00  0.00     0.160 A 
HETATM   33  N2  UNL     1      20.530   6.200  35.292  1.00  0.00    -0.159 N 
HETATM   34  N14 UNL     1      20.818   5.891  34.027  1.00  0.00    -0.225 N 
HETATM   35  N13 UNL     1      21.145   4.622  33.933  1.00  0.00    -0.286 N 
ATOM     36  H14 UNL     1      20.787   6.546  33.245  1.00  0.00     0.209 HD
ATOM     37  H13 UNL     1      21.406   4.138  33.074  1.00  0.00     0.188 HD
BRANCH  33  38
HETATM   38  S1  UNL     1      20.050   7.720  35.929  1.00  0.00     0.339 S 
HETATM   39  O1  UNL     1      20.076   7.694  37.434  1.00  0.00    -0.181 OA
HETATM   40  O2  UNL     1      20.970   8.773  35.439  1.00  0.00    -0.181 OA
BRANCH  38  41
HETATM   41  N1  UNL     1      18.456   8.048  35.345  1.00  0.00    -0.305 N 
HETATM   42  C1  UNL     1      17.544   6.974  35.602  1.00  0.00     0.161 C 
ATOM     43  H1  UNL     1      18.193   8.911  34.869  1.00  0.00     0.173 HD
ENDBRANCH  38  41
ENDBRANCH  33  38
ENDBRANCH  30  31
ENDBRANCH  28  30
ENDBRANCH  23  28
ENDBRANCH  14  16
ENDBRANCH   1  14
BRANCH   4  44
HETATM   44  O3  UNL     1      30.262   5.566  38.847  1.00  0.00    -0.302 OA
BRANCH  44  45
HETATM   45  C12 UNL     1      30.419   6.424  39.796  1.00  0.00     0.271 C 
HETATM   46  C13 UNL     1      30.698   7.884  39.348  1.00  0.00     0.095 C 
HETATM   47  C14 UNL     1      31.122   8.488  40.681  1.00  0.00     0.154 C 
HETATM   48  C15 UNL     1      31.663   7.300  41.420  1.00  0.00     0.177 C 
HETATM   49  O6  UNL     1      31.644   6.236  40.520  1.00  0.00    -0.351 OA
BRANCH  47  50
HETATM   50  O4  UNL     1      29.936   8.947  41.299  1.00  0.00    -0.393 OA
ATOM     51  H4  UNL     1      29.727   8.312  41.974  1.00  0.00     0.210 HD
ENDBRANCH  47  50
BRANCH  48  52
HETATM   52  C16 UNL     1      33.077   7.538  41.917  1.00  0.00     0.198 C 
BRANCH  52  53
HETATM   53  O5  UNL     1      33.922   6.484  41.566  1.00  0.00    -0.398 OA
ATOM     54  H5  UNL     1      33.809   6.241  40.654  1.00  0.00     0.209 HD
ENDBRANCH  52  53
ENDBRANCH  48  52
ENDBRANCH  44  45
ENDBRANCH   4  44
BRANCH  10  55
HETATM   55  N9  UNL     1      33.777   2.815  34.347  1.00  0.00    -0.224 N 
ATOM     56  H9  UNL     1      33.528   1.940  33.885  1.00  0.00     0.177 HD
BRANCH  55  57
HETATM   57  C20 UNL     1      35.014   3.472  34.025  1.00  0.00     0.164 C 
BRANCH  57  58
HETATM   58  C21 UNL     1      35.851   2.656  33.054  1.00  0.00     0.184 C 
BRANCH  58  59
HETATM   59  O8  UNL     1      37.047   2.245  33.591  1.00  0.00    -0.399 OA
ATOM     60  H8  UNL     1      37.500   1.612  33.047  1.00  0.00     0.209 HD
ENDBRANCH  58  59
ENDBRANCH  57  58
ENDBRANCH  55  57
ENDBRANCH  10  55
TORSDOF 16
ENDMDL
