MODEL 1
REMARK VINA RESULT: -10.431312059      0.000      0.000
REMARK  15 active torsions:
REMARK  status: ('A' for Active; 'I' for Inactive)
REMARK    1  A    between atoms: N1_4  and  C4_5 
REMARK    2  A    between atoms: C4_5  and  C5_6 
REMARK    3  A    between atoms: C8_11  and  N3_12 
REMARK       I    between atoms: N3_12  and  C9_14 
REMARK    4  A    between atoms: C9_14  and  C10_16 
REMARK    5  A    between atoms: N4_18  and  O2_19 
REMARK    6  A    between atoms: O2_19  and  C12_20 
REMARK    7  A    between atoms: C12_20  and  C13_22 
REMARK    8  A    between atoms: C13_22  and  N5_23 
REMARK    9  A    between atoms: C13_22  and  C14_27 
REMARK   10  A    between atoms: C14_27  and  C15_28 
REMARK   11  A    between atoms: C15_28  and  C16_29 
REMARK   12  A    between atoms: C21_39  and  C22_40 
REMARK   13  A    between atoms: N10_47  and  C23_48 
REMARK   14  A    between atoms: C24_53  and  N13_54 
REMARK   15  A    between atoms: N15_59  and  N16_60 
ROOT
HETATM    1  C5  UNL     1      26.427   2.996  35.862  1.00  0.00    -0.024 C 
HETATM    2  C6  UNL     1      27.587   3.337  36.271  1.00  0.00    -0.017 C 
HETATM    3  C7  UNL     1      28.376   3.516  37.493  1.00  0.00     0.093 C 
HETATM    4  N2  UNL     1      29.637   3.300  37.239  1.00  0.00    -0.376 N 
ATOM      5  H2  UNL     1      30.395   3.363  37.918  1.00  0.00     0.161 HD
HETATM    6  C8  UNL     1      29.792   2.951  35.811  1.00  0.00     0.202 C 
HETATM    7  C19 UNL     1      28.614   3.635  35.230  1.00  0.00     0.124 C 
HETATM    8  S1  UNL     1      27.920   2.765  33.798  1.00  0.00    -0.151 SA
HETATM    9  C20 UNL     1      26.230   3.071  34.365  1.00  0.00     0.115 C 
ENDROOT
BRANCH   1  10
HETATM   10  C4  UNL     1      25.222   2.572  36.640  1.00  0.00     0.106 C 
BRANCH  10  11
HETATM   11  N1  UNL     1      24.557   3.564  37.390  1.00  0.00    -0.312 N 
HETATM   12  C3  UNL     1      24.995   4.178  38.492  1.00  0.00     0.124 A 
HETATM   13  C2  UNL     1      24.044   5.109  38.886  1.00  0.00     0.048 A 
HETATM   14  C1  UNL     1      24.089   6.033  40.050  1.00  0.00     0.072 C 
HETATM   15  N15 UNL     1      23.052   5.039  38.010  1.00  0.00    -0.246 N 
HETATM   16  C21 UNL     1      23.357   4.089  37.084  1.00  0.00     0.181 A 
BRANCH  15  17
HETATM   17  N16 UNL     1      21.878   5.798  38.018  1.00  0.00    -0.337 N 
ATOM     18 2H16 UNL     1      21.134   5.713  38.712  1.00  0.00     0.177 HD
ATOM     19 1H16 UNL     1      21.618   6.523  37.350  1.00  0.00     0.177 HD
ENDBRANCH  15  17
BRANCH  16  20
HETATM   20  C22 UNL     1      22.466   3.759  35.962  1.00  0.00     0.209 A 
HETATM   21  N7  UNL     1      21.932   2.523  35.709  1.00  0.00    -0.265 N 
HETATM   22  N8  UNL     1      21.182   2.598  34.615  1.00  0.00    -0.226 N 
ATOM     23  H7  UNL     1      22.086   1.684  36.268  1.00  0.00     0.190 HD
HETATM   24  N9  UNL     1      21.202   3.819  34.147  1.00  0.00    -0.205 N 
ATOM     25  H8  UNL     1      20.668   1.819  34.203  1.00  0.00     0.210 HD
HETATM   26  N10 UNL     1      21.991   4.525  34.975  1.00  0.00    -0.047 N 
ATOM     27  H9  UNL     1      20.716   4.166  33.320  1.00  0.00     0.211 HD
BRANCH  26  28
HETATM   28  C23 UNL     1      22.284   5.918  34.822  1.00  0.00     0.736 A 
HETATM   29  N11 UNL     1      23.484   6.458  34.492  1.00  0.00    -0.115 N 
HETATM   30  N12 UNL     1      23.379   7.779  34.434  1.00  0.00    -0.117 N 
ATOM     31  H11 UNL     1      24.337   5.928  34.316  1.00  0.00     0.206 HD
HETATM   32  C24 UNL     1      22.118   8.121  34.727  1.00  0.00     0.705 A 
ATOM     33  H12 UNL     1      24.134   8.427  34.205  1.00  0.00     0.206 HD
HETATM   34  N14 UNL     1      21.456   6.953  34.964  1.00  0.00    -0.018 N 
ATOM     35  H14 UNL     1      20.470   6.881  35.215  1.00  0.00     0.203 HD
BRANCH  32  36
HETATM   36  N13 UNL     1      21.578   9.306  34.773  1.00  0.00    -0.233 N 
ATOM     37 2H13 UNL     1      21.884  10.063  35.384  1.00  0.00     0.174 HD
ATOM     38 1H13 UNL     1      20.785   9.672  34.245  1.00  0.00     0.174 HD
ENDBRANCH  32  36
ENDBRANCH  26  28
ENDBRANCH  16  20
ENDBRANCH  10  11
ENDBRANCH   1  10
BRANCH   6  39
HETATM   39  N3  UNL     1      31.047   3.377  35.273  1.00  0.00    -0.333 N 
HETATM   40  C9  UNL     1      32.300   3.002  35.844  1.00  0.00     0.271 C 
HETATM   41  O1  UNL     1      32.324   2.291  36.870  1.00  0.00    -0.266 OA
ATOM     42  H3  UNL     1      31.046   3.974  34.445  1.00  0.00     0.165 HD
BRANCH  40  43
HETATM   43  C10 UNL     1      33.553   3.436  35.249  1.00  0.00     0.124 A 
HETATM   44  C11 UNL     1      33.896   3.218  33.921  1.00  0.00     0.164 A 
HETATM   45  N4  UNL     1      35.084   3.724  33.698  1.00  0.00    -0.170 N 
HETATM   46  C17 UNL     1      35.514   4.271  34.871  1.00  0.00     0.353 A 
HETATM   47  O6  UNL     1      36.640   4.858  35.041  1.00  0.00    -0.244 OA
HETATM   48  N6  UNL     1      34.576   4.092  35.807  1.00  0.00    -0.296 N 
HETATM   49  C18 UNL     1      34.654   4.577  37.198  1.00  0.00     0.161 C 
BRANCH  45  50
HETATM   50  O2  UNL     1      35.885   3.734  32.573  1.00  0.00    -0.186 OA
BRANCH  50  51
HETATM   51  C12 UNL     1      35.424   3.887  31.280  1.00  0.00     0.312 C 
HETATM   52  O3  UNL     1      34.623   4.839  31.034  1.00  0.00    -0.261 OA
BRANCH  51  53
HETATM   53  C13 UNL     1      35.827   2.996  30.162  1.00  0.00     0.284 C 
BRANCH  53  54
HETATM   54  N5  UNL     1      34.648   2.945  29.248  1.00  0.00    -0.066 N 
ATOM     55  H53 UNL     1      33.827   3.430  29.610  1.00  0.00     0.275 HD
ATOM     56  H52 UNL     1      34.758   3.508  28.405  1.00  0.00     0.275 HD
ATOM     57  H51 UNL     1      34.490   1.955  29.062  1.00  0.00     0.275 HD
ENDBRANCH  53  54
BRANCH  53  58
HETATM   58  C14 UNL     1      36.084   1.576  30.573  1.00  0.00     0.054 C 
BRANCH  58  59
HETATM   59  C15 UNL     1      37.515   1.377  30.965  1.00  0.00     0.115 C 
BRANCH  59  60
HETATM   60  C16 UNL     1      37.704   0.677  32.254  1.00  0.00     0.172 C 
HETATM   61  O4  UNL     1      38.242  -0.445  32.398  1.00  0.00    -0.648 OA
HETATM   62  O5  UNL     1      37.269   1.286  33.440  1.00  0.00    -0.648 OA
ENDBRANCH  59  60
ENDBRANCH  58  59
ENDBRANCH  53  58
ENDBRANCH  51  53
ENDBRANCH  50  51
ENDBRANCH  45  50
ENDBRANCH  40  43
ENDBRANCH   6  39
TORSDOF 15
ENDMDL
MODEL 2
REMARK VINA RESULT: -10.304854645      0.985      1.831
REMARK  15 active torsions:
REMARK  status: ('A' for Active; 'I' for Inactive)
REMARK    1  A    between atoms: N1_4  and  C4_5 
REMARK    2  A    between atoms: C4_5  and  C5_6 
REMARK    3  A    between atoms: C8_11  and  N3_12 
REMARK       I    between atoms: N3_12  and  C9_14 
REMARK    4  A    between atoms: C9_14  and  C10_16 
REMARK    5  A    between atoms: N4_18  and  O2_19 
REMARK    6  A    between atoms: O2_19  and  C12_20 
REMARK    7  A    between atoms: C12_20  and  C13_22 
REMARK    8  A    between atoms: C13_22  and  N5_23 
REMARK    9  A    between atoms: C13_22  and  C14_27 
REMARK   10  A    between atoms: C14_27  and  C15_28 
REMARK   11  A    between atoms: C15_28  and  C16_29 
REMARK   12  A    between atoms: C21_39  and  C22_40 
REMARK   13  A    between atoms: N10_47  and  C23_48 
REMARK   14  A    between atoms: C24_53  and  N13_54 
REMARK   15  A    between atoms: N15_59  and  N16_60 
ROOT
HETATM    1  C5  UNL     1      26.400   2.971  35.929  1.00  0.00    -0.024 C 
HETATM    2  C6  UNL     1      27.565   3.247  36.371  1.00  0.00    -0.017 C 
HETATM    3  C7  UNL     1      28.333   3.363  37.614  1.00  0.00     0.093 C 
HETATM    4  N2  UNL     1      29.588   3.093  37.383  1.00  0.00    -0.376 N 
ATOM      5  H2  UNL     1      30.332   3.106  38.080  1.00  0.00     0.161 HD
HETATM    6  C8  UNL     1      29.760   2.767  35.952  1.00  0.00     0.202 C 
HETATM    7  C19 UNL     1      28.629   3.517  35.359  1.00  0.00     0.124 C 
HETATM    8  S1  UNL     1      27.928   2.712  33.894  1.00  0.00    -0.151 SA
HETATM    9  C20 UNL     1      26.241   3.086  34.429  1.00  0.00     0.115 C 
ENDROOT
BRANCH   1  10
HETATM   10  C4  UNL     1      25.158   2.588  36.670  1.00  0.00     0.106 C 
BRANCH  10  11
HETATM   11  N1  UNL     1      24.510   3.600  37.407  1.00  0.00    -0.312 N 
HETATM   12  C3  UNL     1      24.964   4.228  38.496  1.00  0.00     0.124 A 
HETATM   13  C2  UNL     1      24.026   5.178  38.879  1.00  0.00     0.048 A 
HETATM   14  C1  UNL     1      24.090   6.121  40.027  1.00  0.00     0.072 C 
HETATM   15  N15 UNL     1      23.027   5.103  38.012  1.00  0.00    -0.246 N 
HETATM   16  C21 UNL     1      23.315   4.134  37.100  1.00  0.00     0.181 A 
BRANCH  15  17
HETATM   17  N16 UNL     1      21.861   5.876  38.016  1.00  0.00    -0.337 N 
ATOM     18 2H16 UNL     1      21.775   6.802  37.596  1.00  0.00     0.177 HD
ATOM     19 1H16 UNL     1      20.964   5.619  38.425  1.00  0.00     0.177 HD
ENDBRANCH  15  17
BRANCH  16  20
HETATM   20  C22 UNL     1      22.411   3.794  35.991  1.00  0.00     0.209 A 
HETATM   21  N7  UNL     1      21.875   2.556  35.754  1.00  0.00    -0.265 N 
HETATM   22  N8  UNL     1      21.113   2.622  34.669  1.00  0.00    -0.226 N 
ATOM     23  H7  UNL     1      22.034   1.722  36.319  1.00  0.00     0.190 HD
HETATM   24  N9  UNL     1      21.128   3.839  34.189  1.00  0.00    -0.205 N 
ATOM     25  H8  UNL     1      20.594   1.840  34.268  1.00  0.00     0.210 HD
HETATM   26  N10 UNL     1      21.926   4.552  35.003  1.00  0.00    -0.047 N 
ATOM     27  H9  UNL     1      20.633   4.179  33.365  1.00  0.00     0.211 HD
BRANCH  26  28
HETATM   28  C23 UNL     1      22.218   5.943  34.835  1.00  0.00     0.736 A 
HETATM   29  N11 UNL     1      23.413   6.480  34.483  1.00  0.00    -0.115 N 
HETATM   30  N12 UNL     1      23.309   7.801  34.416  1.00  0.00    -0.117 N 
ATOM     31  H11 UNL     1      24.263   5.948  34.297  1.00  0.00     0.206 HD
HETATM   32  C24 UNL     1      22.052   8.146  34.725  1.00  0.00     0.705 A 
ATOM     33  H12 UNL     1      24.060   8.446  34.171  1.00  0.00     0.206 HD
HETATM   34  N14 UNL     1      21.393   6.980  34.982  1.00  0.00    -0.018 N 
ATOM     35  H14 UNL     1      20.411   6.911  35.248  1.00  0.00     0.203 HD
BRANCH  32  36
HETATM   36  N13 UNL     1      21.514   9.332  34.770  1.00  0.00    -0.233 N 
ATOM     37 2H13 UNL     1      20.730   9.639  34.195  1.00  0.00     0.174 HD
ATOM     38 1H13 UNL     1      21.772  10.134  35.346  1.00  0.00     0.174 HD
ENDBRANCH  32  36
ENDBRANCH  26  28
ENDBRANCH  16  20
ENDBRANCH  10  11
ENDBRANCH   1  10
BRANCH   6  39
HETATM   39  N3  UNL     1      31.045   3.144  35.450  1.00  0.00    -0.333 N 
HETATM   40  C9  UNL     1      32.263   2.796  36.109  1.00  0.00     0.271 C 
HETATM   41  O1  UNL     1      32.226   2.156  37.180  1.00  0.00    -0.266 OA
ATOM     42  H3  UNL     1      31.094   3.684  34.586  1.00  0.00     0.165 HD
BRANCH  40  43
HETATM   43  C10 UNL     1      33.550   3.178  35.551  1.00  0.00     0.124 A 
HETATM   44  C11 UNL     1      34.093   2.617  34.402  1.00  0.00     0.164 A 
HETATM   45  N4  UNL     1      35.257   3.170  34.166  1.00  0.00    -0.170 N 
HETATM   46  C17 UNL     1      35.474   4.086  35.152  1.00  0.00     0.353 A 
HETATM   47  O6  UNL     1      36.515   4.825  35.255  1.00  0.00    -0.244 OA
HETATM   48  N6  UNL     1      34.429   4.085  35.988  1.00  0.00    -0.296 N 
HETATM   49  C18 UNL     1      34.273   4.966  37.160  1.00  0.00     0.161 C 
BRANCH  45  50
HETATM   50  O2  UNL     1      36.206   2.938  33.190  1.00  0.00    -0.186 OA
BRANCH  50  51
HETATM   51  C12 UNL     1      36.757   1.704  32.904  1.00  0.00     0.312 C 
HETATM   52  O3  UNL     1      36.983   0.908  33.865  1.00  0.00    -0.261 OA
BRANCH  51  53
HETATM   53  C13 UNL     1      37.092   1.262  31.527  1.00  0.00     0.284 C 
BRANCH  53  54
HETATM   54  N5  UNL     1      38.379   0.516  31.649  1.00  0.00    -0.066 N 
ATOM     55  H53 UNL     1      38.862   0.384  30.760  1.00  0.00     0.275 HD
ATOM     56  H52 UNL     1      39.118   1.046  32.109  1.00  0.00     0.275 HD
ATOM     57  H51 UNL     1      38.145  -0.357  32.122  1.00  0.00     0.275 HD
ENDBRANCH  53  54
BRANCH  53  58
HETATM   58  C14 UNL     1      37.364   2.387  30.572  1.00  0.00     0.054 C 
BRANCH  58  59
HETATM   59  C15 UNL     1      36.421   2.350  29.410  1.00  0.00     0.115 C 
BRANCH  59  60
HETATM   60  C16 UNL     1      35.092   2.940  29.682  1.00  0.00     0.172 C 
HETATM   61  O4  UNL     1      34.003   2.512  29.237  1.00  0.00    -0.648 OA
HETATM   62  O5  UNL     1      34.995   4.069  30.509  1.00  0.00    -0.648 OA
ENDBRANCH  59  60
ENDBRANCH  58  59
ENDBRANCH  53  58
ENDBRANCH  51  53
ENDBRANCH  50  51
ENDBRANCH  45  50
ENDBRANCH  40  43
ENDBRANCH   6  39
TORSDOF 15
ENDMDL
MODEL 3
REMARK VINA RESULT: -10.100950260      3.223      5.838
REMARK  15 active torsions:
REMARK  status: ('A' for Active; 'I' for Inactive)
REMARK    1  A    between atoms: N1_4  and  C4_5 
REMARK    2  A    between atoms: C4_5  and  C5_6 
REMARK    3  A    between atoms: C8_11  and  N3_12 
REMARK       I    between atoms: N3_12  and  C9_14 
REMARK    4  A    between atoms: C9_14  and  C10_16 
REMARK    5  A    between atoms: N4_18  and  O2_19 
REMARK    6  A    between atoms: O2_19  and  C12_20 
REMARK    7  A    between atoms: C12_20  and  C13_22 
REMARK    8  A    between atoms: C13_22  and  N5_23 
REMARK    9  A    between atoms: C13_22  and  C14_27 
REMARK   10  A    between atoms: C14_27  and  C15_28 
REMARK   11  A    between atoms: C15_28  and  C16_29 
REMARK   12  A    between atoms: C21_39  and  C22_40 
REMARK   13  A    between atoms: N10_47  and  C23_48 
REMARK   14  A    between atoms: C24_53  and  N13_54 
REMARK   15  A    between atoms: N15_59  and  N16_60 
ROOT
HETATM    1  C5  UNL     1      21.341   5.419  36.808  1.00  0.00    -0.024 C 
HETATM    2  C6  UNL     1      22.500   5.491  37.339  1.00  0.00    -0.017 C 
HETATM    3  C7  UNL     1      23.190   5.936  38.553  1.00  0.00     0.093 C 
HETATM    4  N2  UNL     1      24.257   5.210  38.744  1.00  0.00    -0.376 N 
ATOM      5  H2  UNL     1      24.914   5.318  39.516  1.00  0.00     0.161 HD
HETATM    6  C8  UNL     1      24.363   4.207  37.663  1.00  0.00     0.202 C 
HETATM    7  C19 UNL     1      23.636   4.898  36.573  1.00  0.00     0.124 C 
HETATM    8  S1  UNL     1      22.756   3.760  35.470  1.00  0.00    -0.151 SA
HETATM    9  C20 UNL     1      21.314   4.851  35.407  1.00  0.00     0.115 C 
ENDROOT
BRANCH   1  10
HETATM   10  C4  UNL     1      20.012   5.847  37.345  1.00  0.00     0.106 C 
BRANCH  10  11
HETATM   11  N1  UNL     1      19.417   6.983  36.760  1.00  0.00    -0.312 N 
HETATM   12  C3  UNL     1      19.762   8.262  36.938  1.00  0.00     0.124 A 
HETATM   13  C2  UNL     1      18.939   9.054  36.147  1.00  0.00     0.048 A 
HETATM   14  C1  UNL     1      18.948  10.534  36.007  1.00  0.00     0.072 C 
HETATM   15  N15 UNL     1      18.117   8.235  35.508  1.00  0.00    -0.246 N 
HETATM   16  C21 UNL     1      18.402   6.957  35.878  1.00  0.00     0.181 A 
BRANCH  15  17
HETATM   17  N16 UNL     1      17.114   8.601  34.605  1.00  0.00    -0.337 N 
ATOM     18 2H16 UNL     1      17.186   9.364  33.931  1.00  0.00     0.177 HD
ATOM     19 1H16 UNL     1      16.201   8.160  34.500  1.00  0.00     0.177 HD
ENDBRANCH  15  17
BRANCH  16  20
HETATM   20  C22 UNL     1      17.672   5.796  35.348  1.00  0.00     0.209 A 
HETATM   21  N7  UNL     1      16.954   4.900  36.096  1.00  0.00    -0.265 N 
HETATM   22  N8  UNL     1      16.437   3.985  35.284  1.00  0.00    -0.226 N 
ATOM     23  H7  UNL     1      16.836   4.931  37.108  1.00  0.00     0.190 HD
HETATM   24  N9  UNL     1      16.783   4.241  34.048  1.00  0.00    -0.205 N 
ATOM     25  H8  UNL     1      15.857   3.200  35.580  1.00  0.00     0.210 HD
HETATM   26  N10 UNL     1      17.541   5.350  34.094  1.00  0.00    -0.047 N 
ATOM     27  H9  UNL     1      16.528   3.707  33.218  1.00  0.00     0.211 HD
BRANCH  26  28
HETATM   28  C23 UNL     1      18.129   5.977  32.950  1.00  0.00     0.736 A 
HETATM   29  N11 UNL     1      19.416   5.855  32.537  1.00  0.00    -0.115 N 
HETATM   30  N12 UNL     1      19.602   6.571  31.435  1.00  0.00    -0.117 N 
ATOM     31  H11 UNL     1      20.132   5.298  33.003  1.00  0.00     0.206 HD
HETATM   32  C24 UNL     1      18.448   7.170  31.115  1.00  0.00     0.705 A 
ATOM     33  H12 UNL     1      20.478   6.651  30.919  1.00  0.00     0.206 HD
HETATM   34  N14 UNL     1      17.549   6.788  32.067  1.00  0.00    -0.018 N 
ATOM     35  H14 UNL     1      16.572   7.083  32.099  1.00  0.00     0.203 HD
BRANCH  32  36
HETATM   36  N13 UNL     1      18.180   7.950  30.106  1.00  0.00    -0.233 N 
ATOM     37 2H13 UNL     1      18.559   7.840  29.166  1.00  0.00     0.174 HD
ATOM     38 1H13 UNL     1      17.585   8.779  30.075  1.00  0.00     0.174 HD
ENDBRANCH  32  36
ENDBRANCH  26  28
ENDBRANCH  16  20
ENDBRANCH  10  11
ENDBRANCH   1  10
BRANCH   6  39
HETATM   39  N3  UNL     1      25.718   3.876  37.349  1.00  0.00    -0.333 N 
HETATM   40  C9  UNL     1      26.769   3.928  38.314  1.00  0.00     0.271 C 
HETATM   41  O1  UNL     1      26.521   4.298  39.480  1.00  0.00    -0.266 OA
ATOM     42  H3  UNL     1      25.944   3.589  36.396  1.00  0.00     0.165 HD
BRANCH  40  43
HETATM   43  C10 UNL     1      28.129   3.558  37.959  1.00  0.00     0.124 A 
HETATM   44  C11 UNL     1      29.228   4.390  38.128  1.00  0.00     0.164 A 
HETATM   45  N4  UNL     1      30.303   3.768  37.710  1.00  0.00    -0.170 N 
HETATM   46  C17 UNL     1      29.911   2.538  37.273  1.00  0.00     0.353 A 
HETATM   47  O6  UNL     1      30.692   1.644  36.789  1.00  0.00    -0.244 OA
HETATM   48  N6  UNL     1      28.588   2.419  37.430  1.00  0.00    -0.296 N 
HETATM   49  C18 UNL     1      27.795   1.217  37.109  1.00  0.00     0.161 C 
BRANCH  45  50
HETATM   50  O2  UNL     1      31.622   4.168  37.620  1.00  0.00    -0.186 OA
BRANCH  50  51
HETATM   51  C12 UNL     1      32.245   4.572  36.455  1.00  0.00     0.312 C 
HETATM   52  O3  UNL     1      31.998   5.735  36.011  1.00  0.00    -0.261 OA
BRANCH  51  53
HETATM   53  C13 UNL     1      33.194   3.715  35.700  1.00  0.00     0.284 C 
BRANCH  53  54
HETATM   54  N5  UNL     1      34.094   3.114  36.728  1.00  0.00    -0.066 N 
ATOM     55  H53 UNL     1      34.781   2.467  36.343  1.00  0.00     0.275 HD
ATOM     56  H52 UNL     1      34.760   3.775  37.127  1.00  0.00     0.275 HD
ATOM     57  H51 UNL     1      33.474   2.690  37.419  1.00  0.00     0.275 HD
ENDBRANCH  53  54
BRANCH  53  58
HETATM   58  C14 UNL     1      34.093   4.472  34.767  1.00  0.00     0.054 C 
BRANCH  58  59
HETATM   59  C15 UNL     1      35.451   3.846  34.697  1.00  0.00     0.115 C 
BRANCH  59  60
HETATM   60  C16 UNL     1      35.711   3.087  33.454  1.00  0.00     0.172 C 
HETATM   61  O4  UNL     1      34.980   3.085  32.438  1.00  0.00    -0.648 OA
HETATM   62  O5  UNL     1      36.865   2.296  33.359  1.00  0.00    -0.648 OA
ENDBRANCH  59  60
ENDBRANCH  58  59
ENDBRANCH  53  58
ENDBRANCH  51  53
ENDBRANCH  50  51
ENDBRANCH  45  50
ENDBRANCH  40  43
ENDBRANCH   6  39
TORSDOF 15
ENDMDL
MODEL 4
REMARK VINA RESULT: -10.094684363      1.094      1.128
REMARK  15 active torsions:
REMARK  status: ('A' for Active; 'I' for Inactive)
REMARK    1  A    between atoms: N1_4  and  C4_5 
REMARK    2  A    between atoms: C4_5  and  C5_6 
REMARK    3  A    between atoms: C8_11  and  N3_12 
REMARK       I    between atoms: N3_12  and  C9_14 
REMARK    4  A    between atoms: C9_14  and  C10_16 
REMARK    5  A    between atoms: N4_18  and  O2_19 
REMARK    6  A    between atoms: O2_19  and  C12_20 
REMARK    7  A    between atoms: C12_20  and  C13_22 
REMARK    8  A    between atoms: C13_22  and  N5_23 
REMARK    9  A    between atoms: C13_22  and  C14_27 
REMARK   10  A    between atoms: C14_27  and  C15_28 
REMARK   11  A    between atoms: C15_28  and  C16_29 
REMARK   12  A    between atoms: C21_39  and  C22_40 
REMARK   13  A    between atoms: N10_47  and  C23_48 
REMARK   14  A    between atoms: C24_53  and  N13_54 
REMARK   15  A    between atoms: N15_59  and  N16_60 
ROOT
HETATM    1  C5  UNL     1      25.713   2.958  36.243  1.00  0.00    -0.024 C 
HETATM    2  C6  UNL     1      26.864   3.163  36.756  1.00  0.00    -0.017 C 
HETATM    3  C7  UNL     1      27.541   3.350  38.042  1.00  0.00     0.093 C 
HETATM    4  N2  UNL     1      28.771   2.924  37.959  1.00  0.00    -0.376 N 
ATOM      5  H2  UNL     1      29.455   2.944  38.715  1.00  0.00     0.161 HD
HETATM    6  C8  UNL     1      29.015   2.408  36.596  1.00  0.00     0.202 C 
HETATM    7  C19 UNL     1      28.028   3.195  35.821  1.00  0.00     0.124 C 
HETATM    8  S1  UNL     1      27.357   2.294  34.399  1.00  0.00    -0.151 SA
HETATM    9  C20 UNL     1      25.687   2.904  34.732  1.00  0.00     0.115 C 
ENDROOT
BRANCH   1  10
HETATM   10  C4  UNL     1      24.382   2.801  36.907  1.00  0.00     0.106 C 
BRANCH  10  11
HETATM   11  N1  UNL     1      23.890   3.905  37.633  1.00  0.00    -0.312 N 
HETATM   12  C3  UNL     1      24.495   4.554  38.632  1.00  0.00     0.124 A 
HETATM   13  C2  UNL     1      23.676   5.599  39.038  1.00  0.00     0.048 A 
HETATM   14  C1  UNL     1      23.925   6.598  40.111  1.00  0.00     0.072 C 
HETATM   15  N15 UNL     1      22.595   5.560  38.273  1.00  0.00    -0.246 N 
HETATM   16  C21 UNL     1      22.716   4.519  37.403  1.00  0.00     0.181 A 
BRANCH  15  17
HETATM   17  N16 UNL     1      21.500   6.427  38.333  1.00  0.00    -0.337 N 
ATOM     18 2H16 UNL     1      21.545   7.434  38.176  1.00  0.00     0.177 HD
ATOM     19 1H16 UNL     1      20.533   6.172  38.534  1.00  0.00     0.177 HD
ENDBRANCH  15  17
BRANCH  16  20
HETATM   20  C22 UNL     1      21.685   4.194  36.406  1.00  0.00     0.209 A 
HETATM   21  N7  UNL     1      20.934   3.049  36.385  1.00  0.00    -0.265 N 
HETATM   22  N8  UNL     1      20.112   3.097  35.343  1.00  0.00    -0.226 N 
ATOM     23  H7  UNL     1      20.996   2.285  37.059  1.00  0.00     0.190 HD
HETATM   24  N9  UNL     1      20.291   4.216  34.688  1.00  0.00    -0.205 N 
ATOM     25  H8  UNL     1      19.441   2.371  35.092  1.00  0.00     0.210 HD
HETATM   26  N10 UNL     1      21.258   4.882  35.343  1.00  0.00    -0.047 N 
ATOM     27  H9  UNL     1      19.798   4.520  33.849  1.00  0.00     0.211 HD
BRANCH  26  28
HETATM   28  C23 UNL     1      21.763   6.164  34.954  1.00  0.00     0.736 A 
HETATM   29  N11 UNL     1      22.946   6.412  34.339  1.00  0.00    -0.115 N 
HETATM   30  N12 UNL     1      23.076   7.715  34.126  1.00  0.00    -0.117 N 
ATOM     31  H11 UNL     1      23.632   5.703  34.080  1.00  0.00     0.206 HD
HETATM   32  C24 UNL     1      21.988   8.335  34.599  1.00  0.00     0.705 A 
ATOM     33  H12 UNL     1      23.872   8.168  33.677  1.00  0.00     0.206 HD
HETATM   34  N14 UNL     1      21.187   7.356  35.108  1.00  0.00    -0.018 N 
ATOM     35  H14 UNL     1      20.278   7.513  35.545  1.00  0.00     0.203 HD
BRANCH  32  36
HETATM   36  N13 UNL     1      21.696   9.605  34.586  1.00  0.00    -0.233 N 
ATOM     37 2H13 UNL     1      22.363  10.359  34.746  1.00  0.00     0.174 HD
ATOM     38 1H13 UNL     1      20.793  10.056  34.435  1.00  0.00     0.174 HD
ENDBRANCH  32  36
ENDBRANCH  26  28
ENDBRANCH  16  20
ENDBRANCH  10  11
ENDBRANCH   1  10
BRANCH   6  39
HETATM   39  N3  UNL     1      30.371   2.585  36.174  1.00  0.00    -0.333 N 
HETATM   40  C9  UNL     1      31.061   3.829  36.295  1.00  0.00     0.271 C 
HETATM   41  O1  UNL     1      30.469   4.822  36.764  1.00  0.00    -0.266 OA
ATOM     42  H3  UNL     1      30.865   1.789  35.771  1.00  0.00     0.165 HD
BRANCH  40  43
HETATM   43  C10 UNL     1      32.447   3.958  35.877  1.00  0.00     0.124 A 
HETATM   44  C11 UNL     1      32.932   3.513  34.654  1.00  0.00     0.164 A 
HETATM   45  N4  UNL     1      34.215   3.771  34.584  1.00  0.00    -0.170 N 
HETATM   46  C17 UNL     1      34.567   4.381  35.751  1.00  0.00     0.353 A 
HETATM   47  O6  UNL     1      35.747   4.781  36.048  1.00  0.00    -0.244 OA
HETATM   48  N6  UNL     1      33.485   4.491  36.530  1.00  0.00    -0.296 N 
HETATM   49  C18 UNL     1      33.451   5.131  37.859  1.00  0.00     0.161 C 
BRANCH  45  50
HETATM   50  O2  UNL     1      35.159   3.495  33.614  1.00  0.00    -0.186 OA
BRANCH  50  51
HETATM   51  C12 UNL     1      35.163   4.037  32.344  1.00  0.00     0.312 C 
HETATM   52  O3  UNL     1      34.308   4.932  32.066  1.00  0.00    -0.261 OA
BRANCH  51  53
HETATM   53  C13 UNL     1      36.124   3.627  31.287  1.00  0.00     0.284 C 
BRANCH  53  54
HETATM   54  N5  UNL     1      35.880   4.554  30.144  1.00  0.00    -0.066 N 
ATOM     55  H53 UNL     1      36.636   4.569  29.460  1.00  0.00     0.275 HD
ATOM     56  H52 UNL     1      35.149   4.237  29.508  1.00  0.00     0.275 HD
ATOM     57  H51 UNL     1      35.691   5.463  30.566  1.00  0.00     0.275 HD
ENDBRANCH  53  54
BRANCH  53  58
HETATM   58  C14 UNL     1      35.889   2.247  30.748  1.00  0.00     0.054 C 
BRANCH  58  59
HETATM   59  C15 UNL     1      37.182   1.535  30.499  1.00  0.00     0.115 C 
BRANCH  59  60
HETATM   60  C16 UNL     1      37.720   0.814  31.673  1.00  0.00     0.172 C 
HETATM   61  O4  UNL     1      38.428  -0.217  31.630  1.00  0.00    -0.648 OA
HETATM   62  O5  UNL     1      37.445   1.295  32.962  1.00  0.00    -0.648 OA
ENDBRANCH  59  60
ENDBRANCH  58  59
ENDBRANCH  53  58
ENDBRANCH  51  53
ENDBRANCH  50  51
ENDBRANCH  45  50
ENDBRANCH  40  43
ENDBRANCH   6  39
TORSDOF 15
ENDMDL
MODEL 5
REMARK VINA RESULT: -10.030172569      3.033      5.215
REMARK  15 active torsions:
REMARK  status: ('A' for Active; 'I' for Inactive)
REMARK    1  A    between atoms: N1_4  and  C4_5 
REMARK    2  A    between atoms: C4_5  and  C5_6 
REMARK    3  A    between atoms: C8_11  and  N3_12 
REMARK       I    between atoms: N3_12  and  C9_14 
REMARK    4  A    between atoms: C9_14  and  C10_16 
REMARK    5  A    between atoms: N4_18  and  O2_19 
REMARK    6  A    between atoms: O2_19  and  C12_20 
REMARK    7  A    between atoms: C12_20  and  C13_22 
REMARK    8  A    between atoms: C13_22  and  N5_23 
REMARK    9  A    between atoms: C13_22  and  C14_27 
REMARK   10  A    between atoms: C14_27  and  C15_28 
REMARK   11  A    between atoms: C15_28  and  C16_29 
REMARK   12  A    between atoms: C21_39  and  C22_40 
REMARK   13  A    between atoms: N10_47  and  C23_48 
REMARK   14  A    between atoms: C24_53  and  N13_54 
REMARK   15  A    between atoms: N15_59  and  N16_60 
ROOT
HETATM    1  C5  UNL     1      22.503   4.214  35.906  1.00  0.00    -0.024 C 
HETATM    2  C6  UNL     1      23.510   3.474  35.641  1.00  0.00    -0.017 C 
HETATM    3  C7  UNL     1      24.070   2.615  34.594  1.00  0.00     0.093 C 
HETATM    4  N2  UNL     1      25.372   2.622  34.669  1.00  0.00    -0.376 N 
ATOM      5  H2  UNL     1      26.001   2.103  34.057  1.00  0.00     0.161 HD
HETATM    6  C8  UNL     1      25.791   3.499  35.782  1.00  0.00     0.202 C 
HETATM    7  C19 UNL     1      24.600   3.420  36.659  1.00  0.00     0.124 C 
HETATM    8  S1  UNL     1      24.291   4.951  37.581  1.00  0.00    -0.151 SA
HETATM    9  C20 UNL     1      22.510   4.832  37.286  1.00  0.00     0.115 C 
ENDROOT
BRANCH   1  10
HETATM   10  C4  UNL     1      21.301   4.532  35.075  1.00  0.00     0.106 C 
BRANCH  10  11
HETATM   11  N1  UNL     1      20.922   5.886  34.982  1.00  0.00    -0.312 N 
HETATM   12  C3  UNL     1      21.715   6.959  35.067  1.00  0.00     0.124 A 
HETATM   13  C2  UNL     1      20.939   8.096  34.886  1.00  0.00     0.048 A 
HETATM   14  C1  UNL     1      21.377   9.517  34.891  1.00  0.00     0.072 C 
HETATM   15  N15 UNL     1      19.694   7.685  34.694  1.00  0.00    -0.246 N 
HETATM   16  C21 UNL     1      19.672   6.325  34.752  1.00  0.00     0.181 A 
BRANCH  15  17
HETATM   17  N16 UNL     1      18.575   8.493  34.473  1.00  0.00    -0.337 N 
ATOM     18 2H16 UNL     1      18.530   9.254  33.794  1.00  0.00     0.177 HD
ATOM     19 1H16 UNL     1      17.675   8.428  34.947  1.00  0.00     0.177 HD
ENDBRANCH  15  17
BRANCH  16  20
HETATM   20  C22 UNL     1      18.439   5.543  34.575  1.00  0.00     0.209 A 
HETATM   21  N7  UNL     1      17.930   4.648  35.478  1.00  0.00    -0.265 N 
HETATM   22  N8  UNL     1      16.812   4.130  34.982  1.00  0.00    -0.226 N 
ATOM     23  H7  UNL     1      18.342   4.418  36.383  1.00  0.00     0.190 HD
HETATM   24  N9  UNL     1      16.570   4.644  33.803  1.00  0.00    -0.205 N 
ATOM     25  H8  UNL     1      16.230   3.436  35.450  1.00  0.00     0.210 HD
HETATM   26  N10 UNL     1      17.571   5.507  33.559  1.00  0.00    -0.047 N 
ATOM     27  H9  UNL     1      15.782   4.432  33.193  1.00  0.00     0.211 HD
BRANCH  26  28
HETATM   28  C23 UNL     1      17.692   6.289  32.366  1.00  0.00     0.736 A 
HETATM   29  N11 UNL     1      16.710   7.014  31.775  1.00  0.00    -0.115 N 
HETATM   30  N12 UNL     1      17.188   7.616  30.693  1.00  0.00    -0.117 N 
ATOM     31  H11 UNL     1      15.750   7.086  32.111  1.00  0.00     0.206 HD
HETATM   32  C24 UNL     1      18.480   7.292  30.559  1.00  0.00     0.705 A 
ATOM     33  H12 UNL     1      16.658   8.223  30.066  1.00  0.00     0.206 HD
HETATM   34  N14 UNL     1      18.773   6.469  31.607  1.00  0.00    -0.018 N 
ATOM     35  H14 UNL     1      19.686   6.051  31.783  1.00  0.00     0.203 HD
BRANCH  32  36
HETATM   36  N13 UNL     1      19.331   7.670  29.648  1.00  0.00    -0.233 N 
ATOM     37 2H13 UNL     1      19.084   8.141  28.778  1.00  0.00     0.174 HD
ATOM     38 1H13 UNL     1      20.346   7.559  29.630  1.00  0.00     0.174 HD
ENDBRANCH  32  36
ENDBRANCH  26  28
ENDBRANCH  16  20
ENDBRANCH  10  11
ENDBRANCH   1  10
BRANCH   6  39
HETATM   39  N3  UNL     1      27.007   3.067  36.398  1.00  0.00    -0.333 N 
HETATM   40  C9  UNL     1      28.266   3.098  35.727  1.00  0.00     0.271 C 
HETATM   41  O1  UNL     1      28.327   3.494  34.545  1.00  0.00    -0.266 OA
ATOM     42  H3  UNL     1      26.973   2.722  37.358  1.00  0.00     0.165 HD
BRANCH  40  43
HETATM   43  C10 UNL     1      29.483   2.673  36.399  1.00  0.00     0.124 A 
HETATM   44  C11 UNL     1      30.736   3.219  36.153  1.00  0.00     0.164 A 
HETATM   45  N4  UNL     1      31.620   2.620  36.912  1.00  0.00    -0.170 N 
HETATM   46  C17 UNL     1      30.950   1.691  37.652  1.00  0.00     0.353 A 
HETATM   47  O6  UNL     1      31.487   0.906  38.510  1.00  0.00    -0.244 OA
HETATM   48  N6  UNL     1      29.651   1.731  37.333  1.00  0.00    -0.296 N 
HETATM   49  C18 UNL     1      28.596   0.903  37.947  1.00  0.00     0.161 C 
BRANCH  45  50
HETATM   50  O2  UNL     1      32.990   2.759  37.016  1.00  0.00    -0.186 OA
BRANCH  50  51
HETATM   51  C12 UNL     1      33.694   3.896  36.672  1.00  0.00     0.312 C 
HETATM   52  O3  UNL     1      33.718   4.863  37.493  1.00  0.00    -0.261 OA
BRANCH  51  53
HETATM   53  C13 UNL     1      34.430   4.040  35.390  1.00  0.00     0.284 C 
BRANCH  53  54
HETATM   54  N5  UNL     1      33.606   4.966  34.558  1.00  0.00    -0.066 N 
ATOM     55  H53 UNL     1      33.930   5.932  34.577  1.00  0.00     0.275 HD
ATOM     56  H52 UNL     1      33.716   4.822  33.554  1.00  0.00     0.275 HD
ATOM     57  H51 UNL     1      32.648   4.847  34.887  1.00  0.00     0.275 HD
ENDBRANCH  53  54
BRANCH  53  58
HETATM   58  C14 UNL     1      34.537   2.770  34.599  1.00  0.00     0.054 C 
BRANCH  58  59
HETATM   59  C15 UNL     1      35.803   2.733  33.801  1.00  0.00     0.115 C 
BRANCH  59  60
HETATM   60  C16 UNL     1      35.628   3.032  32.363  1.00  0.00     0.172 C 
HETATM   61  O4  UNL     1      34.790   3.829  31.883  1.00  0.00    -0.648 OA
HETATM   62  O5  UNL     1      36.454   2.398  31.423  1.00  0.00    -0.648 OA
ENDBRANCH  59  60
ENDBRANCH  58  59
ENDBRANCH  53  58
ENDBRANCH  51  53
ENDBRANCH  50  51
ENDBRANCH  45  50
ENDBRANCH  40  43
ENDBRANCH   6  39
TORSDOF 15
ENDMDL
