MODEL 1
REMARK VINA RESULT: -4.331189774      0.000      0.000
REMARK  1 active torsions:
REMARK  status: ('A' for Active; 'I' for Inactive)
REMARK       I    between atoms: C1_4  and  N3_6 
REMARK    1  A    between atoms: N3_6  and  N4_8 
ROOT
HETATM    1  N4  UNL     1      52.180  56.171  67.211  1.00  0.00    -0.252 N 
HETATM    2  C2  UNL     1      50.961  55.400  66.958  1.00  0.00     0.256 C 
HETATM    3  C3  UNL     1      50.052  55.644  68.100  1.00  0.00     0.256 C 
HETATM    4  O1  UNL     1      49.471  54.701  68.659  1.00  0.00    -0.270 OA
HETATM    5  N5  UNL     1      49.869  56.988  68.528  1.00  0.00    -0.266 N 
ATOM      6  H5  UNL     1      49.019  57.280  69.010  1.00  0.00     0.190 HD
HETATM    7  N6  UNL     1      50.897  57.888  68.264  1.00  0.00    -0.270 N 
ATOM      8  H6  UNL     1      50.797  58.859  68.559  1.00  0.00     0.189 HD
HETATM    9  C4  UNL     1      51.991  57.516  67.644  1.00  0.00     0.224 C 
HETATM   10  N7  UNL     1      53.012  58.459  67.395  1.00  0.00    -0.060 NA
ENDROOT
BRANCH   1  11
HETATM   11  N3  UNL     1      53.433  55.623  67.040  1.00  0.00    -0.269 N 
HETATM   12  C1  UNL     1      54.100  55.645  65.790  1.00  0.00     0.201 C 
HETATM   13  N1  UNL     1      53.609  56.356  64.846  1.00  0.00    -0.372 N 
HETATM   14  N2  UNL     1      55.288  54.913  65.547  1.00  0.00    -0.062 NA
ATOM     15  H12 UNL     1      54.089  56.372  63.946  1.00  0.00     0.158 HD
ATOM     16  H11 UNL     1      52.753  56.883  65.022  1.00  0.00     0.158 HD
ATOM     17  H3  UNL     1      53.894  55.186  67.838  1.00  0.00     0.190 HD
ENDBRANCH   1  11
TORSDOF 1
ENDMDL
MODEL 2
REMARK VINA RESULT: -4.255383531      1.306      1.355
REMARK  1 active torsions:
REMARK  status: ('A' for Active; 'I' for Inactive)
REMARK       I    between atoms: C1_4  and  N3_6 
REMARK    1  A    between atoms: N3_6  and  N4_8 
ROOT
HETATM    1  N4  UNL     1      52.356  55.463  66.957  1.00  0.00    -0.252 N 
HETATM    2  C2  UNL     1      50.988  55.315  66.454  1.00  0.00     0.256 C 
HETATM    3  C3  UNL     1      50.105  56.049  67.388  1.00  0.00     0.256 C 
HETATM    4  O1  UNL     1      49.060  55.531  67.810  1.00  0.00    -0.270 OA
HETATM    5  N5  UNL     1      50.494  57.361  67.778  1.00  0.00    -0.266 N 
ATOM      6  H5  UNL     1      49.806  58.051  68.077  1.00  0.00     0.190 HD
HETATM    7  N6  UNL     1      51.852  57.664  67.736  1.00  0.00    -0.270 N 
ATOM      8  H6  UNL     1      52.163  58.595  68.010  1.00  0.00     0.189 HD
HETATM    9  C4  UNL     1      52.739  56.779  67.351  1.00  0.00     0.224 C 
HETATM   10  N7  UNL     1      54.108  57.123  67.321  1.00  0.00    -0.060 NA
ENDROOT
BRANCH   1  11
HETATM   11  N3  UNL     1      53.216  54.389  67.042  1.00  0.00    -0.269 N 
HETATM   12  C1  UNL     1      54.008  53.970  65.945  1.00  0.00     0.201 C 
HETATM   13  N1  UNL     1      54.066  54.720  64.909  1.00  0.00    -0.372 N 
HETATM   14  N2  UNL     1      54.738  52.756  65.951  1.00  0.00    -0.062 NA
ATOM     15  H12 UNL     1      54.636  54.418  64.119  1.00  0.00     0.158 HD
ATOM     16  H11 UNL     1      53.540  55.594  64.905  1.00  0.00     0.158 HD
ATOM     17  H3  UNL     1      53.284  53.880  67.923  1.00  0.00     0.190 HD
ENDBRANCH   1  11
TORSDOF 1
ENDMDL
MODEL 3
REMARK VINA RESULT: -4.120523697      5.550      7.058
REMARK  1 active torsions:
REMARK  status: ('A' for Active; 'I' for Inactive)
REMARK       I    between atoms: C1_4  and  N3_6 
REMARK    1  A    between atoms: N3_6  and  N4_8 
ROOT
HETATM    1  N4  UNL     1      51.838  60.899  70.826  1.00  0.00    -0.252 N 
HETATM    2  C2  UNL     1      52.000  60.177  72.090  1.00  0.00     0.256 C 
HETATM    3  C3  UNL     1      50.642  59.952  72.635  1.00  0.00     0.256 C 
HETATM    4  O1  UNL     1      50.391  60.190  73.826  1.00  0.00    -0.270 OA
HETATM    5  N5  UNL     1      49.645  59.456  71.750  1.00  0.00    -0.266 N 
ATOM      6  H5  UNL     1      48.845  58.927  72.096  1.00  0.00     0.190 HD
HETATM    7  N6  UNL     1      49.806  59.721  70.393  1.00  0.00    -0.270 N 
ATOM      8  H6  UNL     1      49.108  59.379  69.733  1.00  0.00     0.189 HD
HETATM    9  C4  UNL     1      50.834  60.399  69.945  1.00  0.00     0.224 C 
HETATM   10  N7  UNL     1      50.962  60.649  68.561  1.00  0.00    -0.060 NA
ENDROOT
BRANCH   1  11
HETATM   11  N3  UNL     1      52.612  61.995  70.513  1.00  0.00    -0.269 N 
HETATM   12  C1  UNL     1      52.224  63.313  70.856  1.00  0.00     0.201 C 
HETATM   13  N1  UNL     1      51.223  63.474  71.637  1.00  0.00    -0.372 N 
HETATM   14  N2  UNL     1      52.899  64.459  70.368  1.00  0.00    -0.062 NA
ATOM     15  H12 UNL     1      50.943  64.423  71.884  1.00  0.00     0.158 HD
ATOM     16  H11 UNL     1      50.737  62.649  71.989  1.00  0.00     0.158 HD
ATOM     17  H3  UNL     1      53.493  61.852  70.019  1.00  0.00     0.190 HD
ENDBRANCH   1  11
TORSDOF 1
ENDMDL
MODEL 4
REMARK VINA RESULT: -4.113187043      1.883      2.697
REMARK  1 active torsions:
REMARK  status: ('A' for Active; 'I' for Inactive)
REMARK       I    between atoms: C1_4  and  N3_6 
REMARK    1  A    between atoms: N3_6  and  N4_8 
ROOT
HETATM    1  N4  UNL     1      52.137  56.791  66.270  1.00  0.00    -0.252 N 
HETATM    2  C2  UNL     1      52.525  57.565  67.451  1.00  0.00     0.256 C 
HETATM    3  C3  UNL     1      51.274  58.016  68.100  1.00  0.00     0.256 C 
HETATM    4  O1  UNL     1      51.141  59.194  68.468  1.00  0.00    -0.270 OA
HETATM    5  N5  UNL     1      50.240  57.058  68.288  1.00  0.00    -0.266 N 
ATOM      6  H5  UNL     1      49.549  57.162  69.030  1.00  0.00     0.190 HD
HETATM    7  N6  UNL     1      50.209  55.972  67.417  1.00  0.00    -0.270 N 
ATOM      8  H6  UNL     1      49.479  55.268  67.525  1.00  0.00     0.189 HD
HETATM    9  C4  UNL     1      51.097  55.835  66.463  1.00  0.00     0.224 C 
HETATM   10  N7  UNL     1      51.033  54.720  65.599  1.00  0.00    -0.060 NA
ENDROOT
BRANCH   1  11
HETATM   11  N3  UNL     1      52.744  56.981  65.048  1.00  0.00    -0.269 N 
HETATM   12  C1  UNL     1      53.913  56.275  64.670  1.00  0.00     0.201 C 
HETATM   13  N1  UNL     1      54.305  55.303  65.403  1.00  0.00    -0.372 N 
HETATM   14  N2  UNL     1      54.661  56.602  63.513  1.00  0.00    -0.062 NA
ATOM     15  H12 UNL     1      55.147  54.794  65.131  1.00  0.00     0.158 HD
ATOM     16  H11 UNL     1      53.766  55.067  66.236  1.00  0.00     0.158 HD
ATOM     17  H3  UNL     1      52.340  57.653  64.394  1.00  0.00     0.190 HD
ENDBRANCH   1  11
TORSDOF 1
ENDMDL
MODEL 5
REMARK VINA RESULT: -4.107246873      2.238      2.982
REMARK  1 active torsions:
REMARK  status: ('A' for Active; 'I' for Inactive)
REMARK       I    between atoms: C1_4  and  N3_6 
REMARK    1  A    between atoms: N3_6  and  N4_8 
ROOT
HETATM    1  N4  UNL     1      51.837  56.599  67.107  1.00  0.00    -0.252 N 
HETATM    2  C2  UNL     1      52.844  57.477  67.708  1.00  0.00     0.256 C 
HETATM    3  C3  UNL     1      52.147  58.718  68.112  1.00  0.00     0.256 C 
HETATM    4  O1  UNL     1      52.625  59.830  67.839  1.00  0.00    -0.270 OA
HETATM    5  N5  UNL     1      50.919  58.591  68.819  1.00  0.00    -0.266 N 
ATOM      6  H5  UNL     1      50.590  59.325  69.445  1.00  0.00     0.190 HD
HETATM    7  N6  UNL     1      50.186  57.424  68.622  1.00  0.00    -0.270 N 
ATOM      8  H6  UNL     1      49.301  57.303  69.115  1.00  0.00     0.189 HD
HETATM    9  C4  UNL     1      50.607  56.478  67.819  1.00  0.00     0.224 C 
HETATM   10  N7  UNL     1      49.835  55.309  67.644  1.00  0.00    -0.060 NA
ENDROOT
BRANCH   1  11
HETATM   11  N3  UNL     1      52.071  55.932  65.924  1.00  0.00    -0.269 N 
HETATM   12  C1  UNL     1      52.906  54.790  65.856  1.00  0.00     0.201 C 
HETATM   13  N1  UNL     1      53.301  54.254  66.948  1.00  0.00    -0.372 N 
HETATM   14  N2  UNL     1      53.318  54.219  64.627  1.00  0.00    -0.062 NA
ATOM     15  H12 UNL     1      53.903  53.431  66.899  1.00  0.00     0.158 HD
ATOM     16  H11 UNL     1      53.004  54.665  67.833  1.00  0.00     0.158 HD
ATOM     17  H3  UNL     1      51.629  56.273  65.070  1.00  0.00     0.190 HD
ENDBRANCH   1  11
TORSDOF 1
ENDMDL
