MODEL 1
REMARK VINA RESULT: -4.861579099      0.000      0.000
REMARK  2 active torsions:
REMARK  status: ('A' for Active; 'I' for Inactive)
REMARK    1  A    between atoms: C2_7  and  S1_8 
REMARK    2  A    between atoms: S1_8  and  N3_9 
ROOT
HETATM    1  N1  UNL     1      53.330  55.950  66.482  1.00  0.00    -0.234 N 
ATOM      2  H11 UNL     1      53.347  55.025  66.052  1.00  0.00     0.174 HD
ATOM      3  H12 UNL     1      54.142  56.562  66.394  1.00  0.00     0.174 HD
HETATM    4  C1  UNL     1      52.320  56.405  67.145  1.00  0.00     0.680 A 
HETATM    5  N2  UNL     1      52.297  57.628  67.712  1.00  0.00    -0.164 N 
ATOM      6  H2  UNL     1      53.117  58.227  67.614  1.00  0.00     0.186 HD
HETATM    7  C2  UNL     1      51.245  58.092  68.399  1.00  0.00     0.240 A 
HETATM    8  N4  UNL     1      50.177  57.282  68.512  1.00  0.00    -0.305 N 
ATOM      9  H4  UNL     1      49.354  57.595  69.025  1.00  0.00     0.170 HD
HETATM   10  C3  UNL     1      50.191  56.046  67.943  1.00  0.00     0.208 A 
HETATM   11  N5  UNL     1      49.059  55.225  68.080  1.00  0.00    -0.063 NA
HETATM   12  N6  UNL     1      51.249  55.598  67.261  1.00  0.00    -0.163 N 
ATOM     13  H6  UNL     1      51.246  54.669  66.840  1.00  0.00     0.187 HD
ENDROOT
BRANCH   7  14
HETATM   14  S1  UNL     1      51.211  59.679  69.138  1.00  0.00     0.289 S 
HETATM   15  O1  UNL     1      50.918  60.710  68.088  1.00  0.00    -0.198 OA
HETATM   16  O2  UNL     1      52.486  59.978  69.876  1.00  0.00    -0.198 OA
BRANCH  14  17
HETATM   17  N3  UNL     1      49.932  59.652  70.326  1.00  0.00    -0.322 N 
ATOM     18  H32 UNL     1      48.943  59.487  70.137  1.00  0.00     0.169 HD
ATOM     19  H31 UNL     1      50.369  59.829  71.230  1.00  0.00     0.169 HD
ENDBRANCH  14  17
ENDBRANCH   7  14
TORSDOF 2
ENDMDL
MODEL 2
REMARK VINA RESULT: -4.685529898      3.526      4.831
REMARK  2 active torsions:
REMARK  status: ('A' for Active; 'I' for Inactive)
REMARK    1  A    between atoms: C2_7  and  S1_8 
REMARK    2  A    between atoms: S1_8  and  N3_9 
ROOT
HETATM    1  N1  UNL     1      48.729  55.691  68.567  1.00  0.00    -0.234 N 
ATOM      2  H11 UNL     1      48.051  56.281  69.051  1.00  0.00     0.174 HD
ATOM      3  H12 UNL     1      48.499  54.717  68.369  1.00  0.00     0.174 HD
HETATM    4  C1  UNL     1      49.888  56.112  68.182  1.00  0.00     0.680 A 
HETATM    5  N2  UNL     1      50.783  55.333  67.544  1.00  0.00    -0.164 N 
ATOM      6  H2  UNL     1      50.536  54.362  67.353  1.00  0.00     0.186 HD
HETATM    7  C2  UNL     1      51.983  55.777  67.148  1.00  0.00     0.240 A 
HETATM    8  N4  UNL     1      52.282  57.062  67.412  1.00  0.00    -0.305 N 
ATOM      9  H4  UNL     1      53.184  57.442  67.128  1.00  0.00     0.170 HD
HETATM   10  C3  UNL     1      51.385  57.856  68.056  1.00  0.00     0.208 A 
HETATM   11  N5  UNL     1      51.729  59.192  68.317  1.00  0.00    -0.063 NA
HETATM   12  N6  UNL     1      50.191  57.397  68.445  1.00  0.00    -0.163 N 
ATOM     13  H6  UNL     1      49.528  58.003  68.927  1.00  0.00     0.187 HD
ENDROOT
BRANCH   7  14
HETATM   14  S1  UNL     1      53.150  54.768  66.318  1.00  0.00     0.289 S 
HETATM   15  O1  UNL     1      52.492  54.112  65.141  1.00  0.00    -0.198 OA
HETATM   16  O2  UNL     1      53.775  53.763  67.244  1.00  0.00    -0.198 OA
BRANCH  14  17
HETATM   17  N3  UNL     1      54.431  55.824  65.779  1.00  0.00    -0.322 N 
ATOM     18  H32 UNL     1      55.007  55.690  64.947  1.00  0.00     0.169 HD
ATOM     19  H31 UNL     1      54.485  56.588  66.453  1.00  0.00     0.169 HD
ENDBRANCH  14  17
ENDBRANCH   7  14
TORSDOF 2
ENDMDL
MODEL 3
REMARK VINA RESULT: -4.675914384      3.552      4.452
REMARK  2 active torsions:
REMARK  status: ('A' for Active; 'I' for Inactive)
REMARK    1  A    between atoms: C2_7  and  S1_8 
REMARK    2  A    between atoms: S1_8  and  N3_9 
ROOT
HETATM    1  N1  UNL     1      51.563  58.885  68.590  1.00  0.00    -0.234 N 
ATOM      2  H11 UNL     1      50.860  59.455  69.061  1.00  0.00     0.174 HD
ATOM      3  H12 UNL     1      52.509  59.247  68.471  1.00  0.00     0.174 HD
HETATM    4  C1  UNL     1      51.321  57.704  68.123  1.00  0.00     0.680 A 
HETATM    5  N2  UNL     1      52.249  56.951  67.501  1.00  0.00    -0.164 N 
ATOM      6  H2  UNL     1      53.191  57.328  67.391  1.00  0.00     0.186 HD
HETATM    7  C2  UNL     1      51.991  55.729  67.020  1.00  0.00     0.240 A 
HETATM    8  N4  UNL     1      50.742  55.255  67.179  1.00  0.00    -0.305 N 
ATOM      9  H4  UNL     1      50.502  54.328  66.829  1.00  0.00     0.170 HD
HETATM   10  C3  UNL     1      49.798  56.008  67.806  1.00  0.00     0.208 A 
HETATM   11  N5  UNL     1      48.504  55.484  67.955  1.00  0.00    -0.063 NA
HETATM   12  N6  UNL     1      50.073  57.227  68.280  1.00  0.00    -0.163 N 
ATOM     13  H6  UNL     1      49.356  57.781  68.748  1.00  0.00     0.187 HD
ENDROOT
BRANCH   7  14
HETATM   14  S1  UNL     1      53.193  54.746  66.210  1.00  0.00     0.289 S 
HETATM   15  O1  UNL     1      52.556  54.032  65.054  1.00  0.00    -0.198 OA
HETATM   16  O2  UNL     1      53.863  53.791  67.158  1.00  0.00    -0.198 OA
BRANCH  14  17
HETATM   17  N3  UNL     1      54.429  55.838  65.634  1.00  0.00    -0.322 N 
ATOM     18  H32 UNL     1      55.256  56.132  66.154  1.00  0.00     0.169 HD
ATOM     19  H31 UNL     1      54.159  56.115  64.691  1.00  0.00     0.169 HD
ENDBRANCH  14  17
ENDBRANCH   7  14
TORSDOF 2
ENDMDL
MODEL 4
REMARK VINA RESULT: -4.673587066      0.173      2.309
REMARK  2 active torsions:
REMARK  status: ('A' for Active; 'I' for Inactive)
REMARK    1  A    between atoms: C2_7  and  S1_8 
REMARK    2  A    between atoms: S1_8  and  N3_9 
ROOT
HETATM    1  N1  UNL     1      49.232  55.221  68.319  1.00  0.00    -0.234 N 
ATOM      2  H11 UNL     1      49.241  54.276  67.934  1.00  0.00     0.174 HD
ATOM      3  H12 UNL     1      48.431  55.535  68.868  1.00  0.00     0.174 HD
HETATM    4  C1  UNL     1      50.196  56.064  68.151  1.00  0.00     0.680 A 
HETATM    5  N2  UNL     1      50.185  57.312  68.659  1.00  0.00    -0.164 N 
ATOM      6  H2  UNL     1      49.377  57.609  69.206  1.00  0.00     0.186 HD
HETATM    7  C2  UNL     1      51.189  58.179  68.480  1.00  0.00     0.240 A 
HETATM    8  N4  UNL     1      52.243  57.761  67.756  1.00  0.00    -0.305 N 
ATOM      9  H4  UNL     1      53.030  58.389  67.596  1.00  0.00     0.170 HD
HETATM   10  C3  UNL     1      52.263  56.504  67.238  1.00  0.00     0.208 A 
HETATM   11  N5  UNL     1      53.379  56.098  66.488  1.00  0.00    -0.063 NA
HETATM   12  N6  UNL     1      51.253  55.649  67.427  1.00  0.00    -0.163 N 
ATOM     13  H6  UNL     1      51.281  54.709  67.033  1.00  0.00     0.187 HD
ENDROOT
BRANCH   7  14
HETATM   14  S1  UNL     1      51.179  59.802  69.138  1.00  0.00     0.289 S 
HETATM   15  O1  UNL     1      50.850  60.779  68.049  1.00  0.00    -0.198 OA
HETATM   16  O2  UNL     1      52.479  60.136  69.816  1.00  0.00    -0.198 OA
BRANCH  14  17
HETATM   17  N3  UNL     1      49.943  59.836  70.371  1.00  0.00    -0.322 N 
ATOM     18  H32 UNL     1      48.991  59.483  70.273  1.00  0.00     0.169 HD
ATOM     19  H31 UNL     1      50.360  60.272  71.192  1.00  0.00     0.169 HD
ENDBRANCH  14  17
ENDBRANCH   7  14
TORSDOF 2
ENDMDL
MODEL 5
REMARK VINA RESULT: -4.627291803      1.085      1.363
REMARK  2 active torsions:
REMARK  status: ('A' for Active; 'I' for Inactive)
REMARK    1  A    between atoms: C2_7  and  S1_8 
REMARK    2  A    between atoms: S1_8  and  N3_9 
ROOT
HETATM    1  N1  UNL     1      53.266  55.826  66.510  1.00  0.00    -0.234 N 
ATOM      2  H11 UNL     1      53.252  54.894  66.096  1.00  0.00     0.174 HD
ATOM      3  H12 UNL     1      54.100  56.406  66.420  1.00  0.00     0.174 HD
HETATM    4  C1  UNL     1      52.268  56.329  67.158  1.00  0.00     0.680 A 
HETATM    5  N2  UNL     1      52.286  57.560  67.706  1.00  0.00    -0.164 N 
ATOM      6  H2  UNL     1      53.128  58.127  67.605  1.00  0.00     0.186 HD
HETATM    7  C2  UNL     1      51.247  58.074  68.376  1.00  0.00     0.240 A 
HETATM    8  N4  UNL     1      50.149  57.306  68.493  1.00  0.00    -0.305 N 
ATOM      9  H4  UNL     1      49.334  57.658  68.994  1.00  0.00     0.170 HD
HETATM   10  C3  UNL     1      50.121  56.062  67.944  1.00  0.00     0.208 A 
HETATM   11  N5  UNL     1      48.959  55.286  68.085  1.00  0.00    -0.063 NA
HETATM   12  N6  UNL     1      51.167  55.564  67.278  1.00  0.00    -0.163 N 
ATOM     13  H6  UNL     1      51.133  54.629  66.871  1.00  0.00     0.187 HD
ENDROOT
BRANCH   7  14
HETATM   14  S1  UNL     1      51.266  59.673  69.090  1.00  0.00     0.289 S 
HETATM   15  O1  UNL     1      50.383  59.687  70.302  1.00  0.00    -0.198 OA
HETATM   16  O2  UNL     1      50.872  60.731  68.097  1.00  0.00    -0.198 OA
BRANCH  14  17
HETATM   17  N3  UNL     1      52.919  59.999  69.547  1.00  0.00    -0.322 N 
ATOM     18  H32 UNL     1      53.591  59.313  69.891  1.00  0.00     0.169 HD
ATOM     19  H31 UNL     1      53.072  60.997  69.402  1.00  0.00     0.169 HD
ENDBRANCH  14  17
ENDBRANCH   7  14
TORSDOF 2
ENDMDL
