MODEL 1
REMARK VINA RESULT: -4.821105597      0.000      0.000
REMARK  1 active torsions:
REMARK  status: ('A' for Active; 'I' for Inactive)
REMARK    1  A    between atoms: N1_1  and  C1_4 
REMARK       I    between atoms: N3_9  and  C3_10 
REMARK       I    between atoms: C3_10  and  N4_11 
REMARK       I    between atoms: C3_10  and  N5_15 
ROOT
HETATM    1  C1  UNL     1      49.795  56.110  68.250  1.00  0.00     0.683 A 
HETATM    2  N2  UNL     1      50.604  55.153  67.777  1.00  0.00    -0.141 N 
ATOM      3  H2  UNL     1      50.270  54.192  67.714  1.00  0.00     0.189 HD
HETATM    4  C2  UNL     1      51.872  55.456  67.380  1.00  0.00     0.347 A 
HETATM    5  O1  UNL     1      52.621  54.553  66.940  1.00  0.00    -0.246 OA
HETATM    6  N3  UNL     1      52.338  56.711  67.452  1.00  0.00    -0.197 N 
HETATM    7  C3  UNL     1      53.679  57.051  67.035  1.00  0.00     0.494 C 
HETATM    8  N4  UNL     1      54.537  55.881  66.982  1.00  0.00    -0.032 N 
ATOM      9  H41 UNL     1      55.484  56.121  66.688  1.00  0.00     0.279 HD
ATOM     10  H42 UNL     1      54.137  55.153  66.391  1.00  0.00     0.279 HD
ATOM     11  H43 UNL     1      54.540  55.382  67.871  1.00  0.00     0.279 HD
HETATM   12  N5  UNL     1      54.312  58.025  67.864  1.00  0.00    -0.032 N 
ATOM     13  H51 UNL     1      55.259  58.264  67.570  1.00  0.00     0.279 HD
ATOM     14  H52 UNL     1      54.304  57.725  68.840  1.00  0.00     0.279 HD
ATOM     15  H53 UNL     1      53.735  58.863  67.938  1.00  0.00     0.279 HD
HETATM   16  C4  UNL     1      51.536  57.663  67.921  1.00  0.00     0.347 A 
HETATM   17  O2  UNL     1      51.916  58.850  68.010  1.00  0.00    -0.246 OA
HETATM   18  N6  UNL     1      50.264  57.371  68.321  1.00  0.00    -0.141 N 
ATOM     19  H6  UNL     1      49.664  58.114  68.679  1.00  0.00     0.189 HD
ENDROOT
BRANCH   1  20
HETATM   20  N1  UNL     1      48.602  55.840  68.626  1.00  0.00    -0.234 N 
ATOM     21  H12 UNL     1      48.436  55.341  69.501  1.00  0.00     0.174 HD
ATOM     22  H11 UNL     1      47.798  56.115  68.063  1.00  0.00     0.174 HD
ENDBRANCH   1  20
TORSDOF 1
ENDMDL
MODEL 2
REMARK VINA RESULT: -4.641474645      1.261      1.261
REMARK  1 active torsions:
REMARK  status: ('A' for Active; 'I' for Inactive)
REMARK    1  A    between atoms: N1_1  and  C1_4 
REMARK       I    between atoms: N3_9  and  C3_10 
REMARK       I    between atoms: C3_10  and  N4_11 
REMARK       I    between atoms: C3_10  and  N5_15 
ROOT
HETATM    1  C1  UNL     1      49.620  56.152  68.328  1.00  0.00     0.683 A 
HETATM    2  N2  UNL     1      49.889  55.289  67.339  1.00  0.00    -0.141 N 
ATOM      3  H2  UNL     1      49.313  54.456  67.223  1.00  0.00     0.189 HD
HETATM    4  C2  UNL     1      50.929  55.518  66.488  1.00  0.00     0.347 A 
HETATM    5  O1  UNL     1      51.172  54.703  65.567  1.00  0.00    -0.246 OA
HETATM    6  N3  UNL     1      51.703  56.605  66.619  1.00  0.00    -0.197 N 
HETATM    7  C3  UNL     1      52.809  56.863  65.725  1.00  0.00     0.494 C 
HETATM    8  N4  UNL     1      53.229  55.661  65.029  1.00  0.00    -0.032 N 
ATOM      9  H41 UNL     1      54.010  55.843  64.399  1.00  0.00     0.279 HD
ATOM     10  H42 UNL     1      52.449  55.223  64.539  1.00  0.00     0.279 HD
ATOM     11  H43 UNL     1      53.448  54.909  65.684  1.00  0.00     0.279 HD
HETATM   12  N5  UNL     1      53.953  57.421  66.371  1.00  0.00    -0.032 N 
ATOM     13  H51 UNL     1      54.734  57.604  65.740  1.00  0.00     0.279 HD
ATOM     14  H52 UNL     1      54.250  56.832  67.148  1.00  0.00     0.279 HD
ATOM     15  H53 UNL     1      53.699  58.267  66.883  1.00  0.00     0.279 HD
HETATM   16  C4  UNL     1      51.438  57.462  67.599  1.00  0.00     0.347 A 
HETATM   17  O2  UNL     1      52.125  58.492  67.769  1.00  0.00    -0.246 OA
HETATM   18  N6  UNL     1      50.399  57.243  68.458  1.00  0.00    -0.141 N 
ATOM     19  H6  UNL     1      50.211  57.912  69.204  1.00  0.00     0.189 HD
ENDROOT
BRANCH   1  20
HETATM   20  N1  UNL     1      48.647  55.950  69.134  1.00  0.00    -0.234 N 
ATOM     21  H12 UNL     1      48.526  55.041  69.581  1.00  0.00     0.174 HD
ATOM     22  H11 UNL     1      47.977  56.688  69.345  1.00  0.00     0.174 HD
ENDBRANCH   1  20
TORSDOF 1
ENDMDL
MODEL 3
REMARK VINA RESULT: -4.588711133      0.531      2.511
REMARK  1 active torsions:
REMARK  status: ('A' for Active; 'I' for Inactive)
REMARK    1  A    between atoms: N1_1  and  C1_4 
REMARK       I    between atoms: N3_9  and  C3_10 
REMARK       I    between atoms: C3_10  and  N4_11 
REMARK       I    between atoms: C3_10  and  N5_15 
ROOT
HETATM    1  C1  UNL     1      49.799  56.123  68.257  1.00  0.00     0.683 A 
HETATM    2  N2  UNL     1      50.259  57.380  68.331  1.00  0.00    -0.141 N 
ATOM      3  H2  UNL     1      49.659  58.119  68.696  1.00  0.00     0.189 HD
HETATM    4  C2  UNL     1      51.524  57.676  67.920  1.00  0.00     0.347 A 
HETATM    5  O1  UNL     1      51.945  58.855  67.993  1.00  0.00    -0.246 OA
HETATM    6  N3  UNL     1      52.335  56.724  67.436  1.00  0.00    -0.197 N 
HETATM    7  C3  UNL     1      53.679  57.020  66.996  1.00  0.00     0.494 C 
HETATM    8  N4  UNL     1      53.856  58.435  66.725  1.00  0.00    -0.032 N 
ATOM      9  H41 UNL     1      54.805  58.644  66.415  1.00  0.00     0.279 HD
ATOM     10  H42 UNL     1      53.595  59.003  67.531  1.00  0.00     0.279 HD
ATOM     11  H43 UNL     1      53.164  58.775  66.058  1.00  0.00     0.279 HD
HETATM   12  N5  UNL     1      54.078  56.295  65.833  1.00  0.00    -0.032 N 
ATOM     13  H51 UNL     1      55.027  56.504  65.523  1.00  0.00     0.279 HD
ATOM     14  H52 UNL     1      53.412  56.440  65.074  1.00  0.00     0.279 HD
ATOM     15  H53 UNL     1      53.959  55.292  65.977  1.00  0.00     0.279 HD
HETATM   16  C4  UNL     1      51.880  55.476  67.361  1.00  0.00     0.347 A 
HETATM   17  O2  UNL     1      52.590  54.549  66.919  1.00  0.00    -0.246 OA
HETATM   18  N6  UNL     1      50.614  55.168  67.770  1.00  0.00    -0.141 N 
ATOM     19  H6  UNL     1      50.283  54.206  67.705  1.00  0.00     0.189 HD
ENDROOT
BRANCH   1  20
HETATM   20  N1  UNL     1      48.613  55.831  68.639  1.00  0.00    -0.234 N 
ATOM     21  H12 UNL     1      48.380  55.807  69.632  1.00  0.00     0.174 HD
ATOM     22  H11 UNL     1      47.881  55.618  67.962  1.00  0.00     0.174 HD
ENDBRANCH   1  20
TORSDOF 1
ENDMDL
MODEL 4
REMARK VINA RESULT: -4.470958152      1.816      2.973
REMARK  1 active torsions:
REMARK  status: ('A' for Active; 'I' for Inactive)
REMARK    1  A    between atoms: N1_1  and  C1_4 
REMARK       I    between atoms: N3_9  and  C3_10 
REMARK       I    between atoms: C3_10  and  N4_11 
REMARK       I    between atoms: C3_10  and  N5_15 
ROOT
HETATM    1  C1  UNL     1      51.196  58.462  68.496  1.00  0.00     0.683 A 
HETATM    2  N2  UNL     1      52.466  58.359  68.080  1.00  0.00    -0.141 N 
ATOM      3  H2  UNL     1      53.126  59.111  68.275  1.00  0.00     0.189 HD
HETATM    4  C2  UNL     1      52.880  57.254  67.397  1.00  0.00     0.347 A 
HETATM    5  O1  UNL     1      54.070  57.167  67.012  1.00  0.00    -0.246 OA
HETATM    6  N3  UNL     1      52.033  56.250  67.127  1.00  0.00    -0.197 N 
HETATM    7  C3  UNL     1      52.455  55.071  66.405  1.00  0.00     0.494 C 
HETATM    8  N4  UNL     1      53.680  55.307  65.662  1.00  0.00    -0.032 N 
ATOM      9  H41 UNL     1      53.978  54.475  65.152  1.00  0.00     0.279 HD
ATOM     10  H42 UNL     1      54.421  55.657  66.269  1.00  0.00     0.279 HD
ATOM     11  H43 UNL     1      53.589  56.111  65.041  1.00  0.00     0.279 HD
HETATM   12  N5  UNL     1      51.476  54.572  65.495  1.00  0.00    -0.032 N 
ATOM     13  H51 UNL     1      51.774  53.740  64.985  1.00  0.00     0.279 HD
ATOM     14  H52 UNL     1      51.182  55.303  64.847  1.00  0.00     0.279 HD
ATOM     15  H53 UNL     1      50.593  54.402  65.975  1.00  0.00     0.279 HD
HETATM   16  C4  UNL     1      50.773  56.351  67.539  1.00  0.00     0.347 A 
HETATM   17  O2  UNL     1      49.940  55.447  67.316  1.00  0.00    -0.246 OA
HETATM   18  N6  UNL     1      50.347  57.453  68.223  1.00  0.00    -0.141 N 
ATOM     19  H6  UNL     1      49.376  57.513  68.530  1.00  0.00     0.189 HD
ENDROOT
BRANCH   1  20
HETATM   20  N1  UNL     1      50.794  59.493  69.137  1.00  0.00    -0.234 N 
ATOM     21  H12 UNL     1      50.190  60.181  68.686  1.00  0.00     0.174 HD
ATOM     22  H11 UNL     1      51.067  59.649  70.107  1.00  0.00     0.174 HD
ENDBRANCH   1  20
TORSDOF 1
ENDMDL
MODEL 5
REMARK VINA RESULT: -4.217597202      1.486      4.214
REMARK  1 active torsions:
REMARK  status: ('A' for Active; 'I' for Inactive)
REMARK    1  A    between atoms: N1_1  and  C1_4 
REMARK       I    between atoms: N3_9  and  C3_10 
REMARK       I    between atoms: C3_10  and  N4_11 
REMARK       I    between atoms: C3_10  and  N5_15 
ROOT
HETATM    1  C1  UNL     1      54.141  55.124  66.386  1.00  0.00     0.683 A 
HETATM    2  N2  UNL     1      54.195  56.286  67.052  1.00  0.00    -0.141 N 
ATOM      3  H2  UNL     1      55.096  56.656  67.353  1.00  0.00     0.189 HD
HETATM    4  C2  UNL     1      53.052  56.975  67.329  1.00  0.00     0.347 A 
HETATM    5  O1  UNL     1      53.114  58.060  67.953  1.00  0.00    -0.246 OA
HETATM    6  N3  UNL     1      51.854  56.511  66.945  1.00  0.00    -0.197 N 
HETATM    7  C3  UNL     1      50.633  57.229  67.231  1.00  0.00     0.494 C 
HETATM    8  N4  UNL     1      50.813  58.188  68.305  1.00  0.00    -0.032 N 
ATOM      9  H41 UNL     1      49.950  58.694  68.507  1.00  0.00     0.279 HD
ATOM     10  H42 UNL     1      51.582  58.827  68.108  1.00  0.00     0.279 HD
ATOM     11  H43 UNL     1      51.186  57.742  69.143  1.00  0.00     0.279 HD
HETATM   12  N5  UNL     1      49.535  56.384  67.573  1.00  0.00    -0.032 N 
ATOM     13  H51 UNL     1      48.672  56.891  67.774  1.00  0.00     0.279 HD
ATOM     14  H52 UNL     1      49.781  55.772  68.350  1.00  0.00     0.279 HD
ATOM     15  H53 UNL     1      49.379  55.685  66.846  1.00  0.00     0.279 HD
HETATM   16  C4  UNL     1      51.799  55.359  66.285  1.00  0.00     0.347 A 
HETATM   17  O2  UNL     1      50.711  54.878  65.902  1.00  0.00    -0.246 OA
HETATM   18  N6  UNL     1      52.937  54.659  66.001  1.00  0.00    -0.141 N 
ATOM     19  H6  UNL     1      52.874  53.777  65.494  1.00  0.00     0.189 HD
ENDROOT
BRANCH   1  20
HETATM   20  N1  UNL     1      55.206  54.467  66.119  1.00  0.00    -0.234 N 
ATOM     21  H12 UNL     1      55.322  53.510  66.455  1.00  0.00     0.174 HD
ATOM     22  H11 UNL     1      55.956  54.882  65.567  1.00  0.00     0.174 HD
ENDBRANCH   1  20
TORSDOF 1
ENDMDL
