MODEL 1
REMARK VINA RESULT: -4.946035407      0.000      0.000
REMARK  3 active torsions:
REMARK  status: ('A' for Active; 'I' for Inactive)
REMARK    1  A    between atoms: C2_2  and  C3_3 
REMARK       I    between atoms: C3_3  and  N1_5 
REMARK    2  A    between atoms: C5_11  and  N4_12 
REMARK    3  A    between atoms: N4_12  and  N5_14 
ROOT
HETATM    1  C3  UNL     1      52.177  54.844  65.810  1.00  0.00     0.277 C 
HETATM    2  O1  UNL     1      51.275  54.307  65.133  1.00  0.00    -0.268 OA
HETATM    3  N1  UNL     1      53.540  54.475  65.722  1.00  0.00    -0.260 N 
ATOM      4  H1  UNL     1      54.225  54.958  66.305  1.00  0.00     0.181 HD
HETATM    5  C4  UNL     1      53.977  53.459  64.849  1.00  0.00     0.184 C 
HETATM    6  N2  UNL     1      54.346  52.611  64.143  1.00  0.00    -0.172 NA
ENDROOT
BRANCH   1   7
HETATM    7  C2  UNL     1      51.797  55.921  66.751  1.00  0.00     0.203 C 
HETATM    8  C1  UNL     1      53.004  56.587  67.355  1.00  0.00     0.071 C 
HETATM    9  N3  UNL     1      50.924  55.352  67.754  1.00  0.00    -0.328 N 
HETATM   10  C5  UNL     1      49.990  56.202  67.983  1.00  0.00     0.207 C 
ATOM     11  H3  UNL     1      51.031  54.440  68.198  1.00  0.00     0.165 HD
HETATM   12  N6  UNL     1      50.202  57.344  67.173  1.00  0.00    -0.271 N 
HETATM   13  N7  UNL     1      50.985  56.935  66.089  1.00  0.00    -0.096 NA
ATOM     14  H6  UNL     1      49.850  58.286  67.346  1.00  0.00     0.185 HD
BRANCH  10  15
HETATM   15  N4  UNL     1      48.897  56.034  68.923  1.00  0.00    -0.277 N 
ATOM     16  H4  UNL     1      49.080  55.901  69.918  1.00  0.00     0.189 HD
BRANCH  15  17
HETATM   17  N5  UNL     1      47.592  56.059  68.435  1.00  0.00    -0.343 N 
ATOM     18  H52 UNL     1      47.182  56.942  68.129  1.00  0.00     0.176 HD
ATOM     19  H51 UNL     1      47.071  55.183  68.396  1.00  0.00     0.176 HD
ENDBRANCH  15  17
ENDBRANCH  10  15
ENDBRANCH   1   7
TORSDOF 3
ENDMDL
MODEL 2
REMARK VINA RESULT: -4.597388988      2.309      5.240
REMARK  3 active torsions:
REMARK  status: ('A' for Active; 'I' for Inactive)
REMARK    1  A    between atoms: C2_2  and  C3_3 
REMARK       I    between atoms: C3_3  and  N1_5 
REMARK    2  A    between atoms: C5_11  and  N4_12 
REMARK    3  A    between atoms: N4_12  and  N5_14 
ROOT
HETATM    1  C3  UNL     1      51.735  57.485  67.591  1.00  0.00     0.277 C 
HETATM    2  O1  UNL     1      52.724  58.074  67.103  1.00  0.00    -0.268 OA
HETATM    3  N1  UNL     1      50.832  58.097  68.492  1.00  0.00    -0.260 N 
ATOM      4  H1  UNL     1      50.045  57.555  68.851  1.00  0.00     0.181 HD
HETATM    5  C4  UNL     1      50.990  59.435  68.905  1.00  0.00     0.184 C 
HETATM    6  N2  UNL     1      51.121  60.533  69.265  1.00  0.00    -0.172 NA
ENDROOT
BRANCH   1   7
HETATM    7  C2  UNL     1      51.502  56.076  67.205  1.00  0.00     0.203 C 
HETATM    8  C1  UNL     1      50.373  55.462  67.989  1.00  0.00     0.071 C 
HETATM    9  N3  UNL     1      52.744  55.354  67.372  1.00  0.00    -0.328 N 
HETATM   10  C5  UNL     1      52.864  54.552  66.377  1.00  0.00     0.207 C 
ATOM     11  H3  UNL     1      53.404  55.462  68.142  1.00  0.00     0.165 HD
HETATM   12  N6  UNL     1      51.733  54.695  65.535  1.00  0.00    -0.271 N 
HETATM   13  N7  UNL     1      51.199  55.963  65.783  1.00  0.00    -0.096 NA
ATOM     14  H6  UNL     1      51.377  54.006  64.874  1.00  0.00     0.185 HD
BRANCH  10  15
HETATM   15  N4  UNL     1      53.967  53.637  66.148  1.00  0.00    -0.277 N 
ATOM     16  H4  UNL     1      54.258  53.398  65.200  1.00  0.00     0.189 HD
BRANCH  15  17
HETATM   17  N5  UNL     1      54.619  53.094  67.253  1.00  0.00    -0.343 N 
ATOM     18  H52 UNL     1      54.267  52.235  67.678  1.00  0.00     0.176 HD
ATOM     19  H51 UNL     1      55.443  53.573  67.616  1.00  0.00     0.176 HD
ENDBRANCH  15  17
ENDBRANCH  10  15
ENDBRANCH   1   7
TORSDOF 3
ENDMDL
MODEL 3
REMARK VINA RESULT: -4.588289053      4.203      5.683
REMARK  3 active torsions:
REMARK  status: ('A' for Active; 'I' for Inactive)
REMARK    1  A    between atoms: C2_2  and  C3_3 
REMARK       I    between atoms: C3_3  and  N1_5 
REMARK    2  A    between atoms: C5_11  and  N4_12 
REMARK    3  A    between atoms: N4_12  and  N5_14 
ROOT
HETATM    1  C3  UNL     1      51.186  58.490  68.517  1.00  0.00     0.277 C 
HETATM    2  O1  UNL     1      52.149  58.384  67.727  1.00  0.00    -0.268 OA
HETATM    3  N1  UNL     1      50.206  57.484  68.688  1.00  0.00    -0.260 N 
ATOM      4  H1  UNL     1      49.446  57.637  69.352  1.00  0.00     0.181 HD
HETATM    5  C4  UNL     1      50.253  56.275  67.966  1.00  0.00     0.184 C 
HETATM    6  N2  UNL     1      50.272  55.280  67.363  1.00  0.00    -0.172 NA
ENDROOT
BRANCH   1   7
HETATM    7  C2  UNL     1      51.068  59.732  69.312  1.00  0.00     0.203 C 
HETATM    8  C1  UNL     1      50.293  59.511  70.582  1.00  0.00     0.071 C 
HETATM    9  N3  UNL     1      50.470  60.747  68.472  1.00  0.00    -0.328 N 
HETATM   10  C5  UNL     1      51.080  61.852  68.705  1.00  0.00     0.207 C 
ATOM     11  H3  UNL     1      49.703  60.608  67.815  1.00  0.00     0.165 HD
HETATM   12  N6  UNL     1      52.074  61.628  69.689  1.00  0.00    -0.271 N 
HETATM   13  N7  UNL     1      52.382  60.264  69.654  1.00  0.00    -0.096 NA
ATOM     14  H6  UNL     1      52.488  62.327  70.305  1.00  0.00     0.185 HD
BRANCH  10  15
HETATM   15  N4  UNL     1      50.798  63.129  68.076  1.00  0.00    -0.277 N 
ATOM     16  H4  UNL     1      51.014  64.005  68.553  1.00  0.00     0.189 HD
BRANCH  15  17
HETATM   17  N5  UNL     1      50.225  63.131  66.805  1.00  0.00    -0.343 N 
ATOM     18  H52 UNL     1      50.816  63.252  65.983  1.00  0.00     0.176 HD
ATOM     19  H51 UNL     1      49.215  63.010  66.728  1.00  0.00     0.176 HD
ENDBRANCH  15  17
ENDBRANCH  10  15
ENDBRANCH   1   7
TORSDOF 3
ENDMDL
MODEL 4
REMARK VINA RESULT: -4.548417922      2.226      4.719
REMARK  3 active torsions:
REMARK  status: ('A' for Active; 'I' for Inactive)
REMARK    1  A    between atoms: C2_2  and  C3_3 
REMARK       I    between atoms: C3_3  and  N1_5 
REMARK    2  A    between atoms: C5_11  and  N4_12 
REMARK    3  A    between atoms: N4_12  and  N5_14 
ROOT
HETATM    1  C3  UNL     1      51.422  55.581  66.264  1.00  0.00     0.277 C 
HETATM    2  O1  UNL     1      50.880  54.725  65.534  1.00  0.00    -0.268 OA
HETATM    3  N1  UNL     1      50.791  56.151  67.395  1.00  0.00    -0.260 N 
ATOM      4  H1  UNL     1      51.293  56.847  67.947  1.00  0.00     0.181 HD
HETATM    5  C4  UNL     1      49.486  55.783  67.778  1.00  0.00     0.184 C 
HETATM    6  N2  UNL     1      48.403  55.498  68.093  1.00  0.00    -0.172 NA
ENDROOT
BRANCH   1   7
HETATM    7  C2  UNL     1      52.794  56.020  65.926  1.00  0.00     0.203 C 
HETATM    8  C1  UNL     1      53.374  55.218  64.792  1.00  0.00     0.071 C 
HETATM    9  N3  UNL     1      53.599  55.938  67.125  1.00  0.00    -0.328 N 
HETATM   10  C5  UNL     1      54.359  56.972  67.155  1.00  0.00     0.207 C 
ATOM     11  H3  UNL     1      53.568  55.193  67.821  1.00  0.00     0.165 HD
HETATM   12  N6  UNL     1      54.107  57.758  66.004  1.00  0.00    -0.271 N 
HETATM   13  N7  UNL     1      52.821  57.431  65.561  1.00  0.00    -0.096 NA
ATOM     14  H6  UNL     1      54.741  58.434  65.579  1.00  0.00     0.185 HD
BRANCH  10  15
HETATM   15  N4  UNL     1      55.328  57.288  68.188  1.00  0.00    -0.277 N 
ATOM     16  H4  UNL     1      55.199  58.096  68.796  1.00  0.00     0.189 HD
BRANCH  15  17
HETATM   17  N5  UNL     1      56.441  56.460  68.330  1.00  0.00    -0.343 N 
ATOM     18  H52 UNL     1      57.213  56.530  67.666  1.00  0.00     0.176 HD
ATOM     19  H51 UNL     1      56.456  55.795  69.104  1.00  0.00     0.176 HD
ENDBRANCH  15  17
ENDBRANCH  10  15
ENDBRANCH   1   7
TORSDOF 3
ENDMDL
MODEL 5
REMARK VINA RESULT: -4.458873350      1.182      5.271
REMARK  3 active torsions:
REMARK  status: ('A' for Active; 'I' for Inactive)
REMARK    1  A    between atoms: C2_2  and  C3_3 
REMARK       I    between atoms: C3_3  and  N1_5 
REMARK    2  A    between atoms: C5_11  and  N4_12 
REMARK    3  A    between atoms: N4_12  and  N5_14 
ROOT
HETATM    1  C3  UNL     1      51.519  54.990  66.520  1.00  0.00     0.277 C 
HETATM    2  O1  UNL     1      50.846  54.802  65.484  1.00  0.00    -0.268 OA
HETATM    3  N1  UNL     1      50.945  55.320  67.770  1.00  0.00    -0.260 N 
ATOM      4  H1  UNL     1      51.556  55.459  68.576  1.00  0.00     0.181 HD
HETATM    5  C4  UNL     1      49.553  55.459  67.932  1.00  0.00     0.184 C 
HETATM    6  N2  UNL     1      48.405  55.593  68.073  1.00  0.00    -0.172 NA
ENDROOT
BRANCH   1   7
HETATM    7  C2  UNL     1      52.990  54.861  66.430  1.00  0.00     0.203 C 
HETATM    8  C1  UNL     1      53.679  56.187  66.607  1.00  0.00     0.071 C 
HETATM    9  N3  UNL     1      53.309  54.241  65.163  1.00  0.00    -0.328 N 
HETATM   10  C5  UNL     1      54.258  53.402  65.369  1.00  0.00     0.207 C 
ATOM     11  H3  UNL     1      52.861  54.436  64.267  1.00  0.00     0.165 HD
HETATM   12  N6  UNL     1      54.608  53.435  66.741  1.00  0.00    -0.271 N 
HETATM   13  N7  UNL     1      53.499  53.933  67.432  1.00  0.00    -0.096 NA
ATOM     14  H6  UNL     1      55.498  53.150  67.148  1.00  0.00     0.185 HD
BRANCH  10  15
HETATM   15  N4  UNL     1      54.884  52.560  64.366  1.00  0.00    -0.277 N 
ATOM     16  H4  UNL     1      55.888  52.379  64.389  1.00  0.00     0.189 HD
BRANCH  15  17
HETATM   17  N5  UNL     1      54.082  52.005  63.370  1.00  0.00    -0.343 N 
ATOM     18  H52 UNL     1      53.544  51.161  63.565  1.00  0.00     0.176 HD
ATOM     19  H51 UNL     1      54.052  52.464  62.459  1.00  0.00     0.176 HD
ENDBRANCH  15  17
ENDBRANCH  10  15
ENDBRANCH   1   7
TORSDOF 3
ENDMDL
