MODEL 1
REMARK VINA RESULT: -4.641512613      0.000      0.000
REMARK  2 active torsions:
REMARK  status: ('A' for Active; 'I' for Inactive)
REMARK    1  A    between atoms: N1_1  and  C1_4 
REMARK    2  A    between atoms: C2_7  and  N3_8 
ROOT
HETATM    1  C1  UNL     1      49.740  56.117  68.110  1.00  0.00     0.679 A 
HETATM    2  N2  UNL     1      50.170  57.365  68.299  1.00  0.00    -0.176 N 
ATOM      3  H2  UNL     1      49.502  58.062  68.627  1.00  0.00     0.186 HD
HETATM    4  C2  UNL     1      51.442  57.752  68.078  1.00  0.00     0.134 A 
HETATM    5  C3  UNL     1      52.353  56.830  67.640  1.00  0.00     0.123 A 
HETATM    6  C4  UNL     1      53.664  57.214  67.410  1.00  0.00     0.278 A 
HETATM    7  O1  UNL     1      54.079  58.387  67.584  1.00  0.00    -0.266 OA
HETATM    8  N4  UNL     1      54.509  56.243  66.976  1.00  0.00    -0.251 N 
ATOM      9  H4  UNL     1      55.487  56.467  66.790  1.00  0.00     0.192 HD
HETATM   10  N5  UNL     1      54.070  55.010  66.792  1.00  0.00    -0.238 N 
ATOM     11  H5  UNL     1      54.730  54.306  66.465  1.00  0.00     0.208 HD
HETATM   12  N6  UNL     1      52.815  54.641  67.012  1.00  0.00    -0.269 N 
ATOM     13  H6  UNL     1      52.536  53.674  66.852  1.00  0.00     0.190 HD
HETATM   14  C5  UNL     1      51.917  55.529  67.440  1.00  0.00     0.156 A 
HETATM   15  N7  UNL     1      50.616  55.193  67.679  1.00  0.00    -0.174 N 
ATOM     16  H7  UNL     1      50.306  54.233  67.529  1.00  0.00     0.186 HD
ENDROOT
BRANCH   1  17
HETATM   17  N1  UNL     1      48.516  55.773  68.328  1.00  0.00    -0.234 N 
ATOM     18  H12 UNL     1      47.768  56.240  67.815  1.00  0.00     0.174 HD
ATOM     19  H11 UNL     1      48.269  55.045  68.998  1.00  0.00     0.174 HD
ENDBRANCH   1  17
BRANCH   4  20
HETATM   20  N3  UNL     1      51.843  58.963  68.265  1.00  0.00    -0.384 N 
ATOM     21  H32 UNL     1      51.910  59.579  67.455  1.00  0.00     0.157 HD
ATOM     22  H31 UNL     1      52.093  59.324  69.186  1.00  0.00     0.157 HD
ENDBRANCH   4  20
TORSDOF 2
ENDMDL
MODEL 2
REMARK VINA RESULT: -4.629433258      1.146      1.157
REMARK  2 active torsions:
REMARK  status: ('A' for Active; 'I' for Inactive)
REMARK    1  A    between atoms: N1_1  and  C1_4 
REMARK    2  A    between atoms: C2_7  and  N3_8 
ROOT
HETATM    1  C1  UNL     1      49.579  56.109  68.387  1.00  0.00     0.679 A 
HETATM    2  N2  UNL     1      50.229  57.247  68.627  1.00  0.00    -0.176 N 
ATOM      3  H2  UNL     1      49.867  57.867  69.352  1.00  0.00     0.186 HD
HETATM    4  C2  UNL     1      51.339  57.622  67.961  1.00  0.00     0.134 A 
HETATM    5  C3  UNL     1      51.840  56.804  66.986  1.00  0.00     0.123 A 
HETATM    6  C4  UNL     1      52.980  57.176  66.294  1.00  0.00     0.278 A 
HETATM    7  O1  UNL     1      53.600  58.247  66.512  1.00  0.00    -0.266 OA
HETATM    8  N4  UNL     1      53.417  56.311  65.341  1.00  0.00    -0.251 N 
ATOM      9  H4  UNL     1      54.253  56.532  64.800  1.00  0.00     0.192 HD
HETATM   10  N5  UNL     1      52.763  55.185  65.113  1.00  0.00    -0.238 N 
ATOM     11  H5  UNL     1      53.118  54.559  64.390  1.00  0.00     0.208 HD
HETATM   12  N6  UNL     1      51.672  54.828  65.775  1.00  0.00    -0.269 N 
ATOM     13  H6  UNL     1      51.210  53.946  65.554  1.00  0.00     0.190 HD
HETATM   14  C5  UNL     1      51.172  55.616  66.728  1.00  0.00     0.156 A 
HETATM   15  N7  UNL     1      50.051  55.287  67.434  1.00  0.00    -0.174 N 
ATOM     16  H7  UNL     1      49.568  54.411  67.236  1.00  0.00     0.186 HD
ENDROOT
BRANCH   1  17
HETATM   17  N1  UNL     1      48.518  55.774  69.039  1.00  0.00    -0.234 N 
ATOM     18  H12 UNL     1      48.208  56.354  69.819  1.00  0.00     0.174 HD
ATOM     19  H11 UNL     1      47.974  54.945  68.800  1.00  0.00     0.174 HD
ENDBRANCH   1  17
BRANCH   4  20
HETATM   20  N3  UNL     1      51.956  58.728  68.205  1.00  0.00    -0.384 N 
ATOM     21  H32 UNL     1      51.502  59.410  68.812  1.00  0.00     0.157 HD
ATOM     22  H31 UNL     1      52.874  58.943  67.815  1.00  0.00     0.157 HD
ENDBRANCH   4  20
TORSDOF 2
ENDMDL
MODEL 3
REMARK VINA RESULT: -4.543557563      1.522      3.474
REMARK  2 active torsions:
REMARK  status: ('A' for Active; 'I' for Inactive)
REMARK    1  A    between atoms: N1_1  and  C1_4 
REMARK    2  A    between atoms: C2_7  and  N3_8 
ROOT
HETATM    1  C1  UNL     1      52.494  54.844  65.455  1.00  0.00     0.679 A 
HETATM    2  N2  UNL     1      53.242  55.941  65.570  1.00  0.00    -0.176 N 
ATOM      3  H2  UNL     1      54.087  56.012  65.003  1.00  0.00     0.186 HD
HETATM    4  C2  UNL     1      52.940  56.961  66.399  1.00  0.00     0.134 A 
HETATM    5  C3  UNL     1      51.811  56.884  67.166  1.00  0.00     0.123 A 
HETATM    6  C4  UNL     1      51.489  57.924  68.022  1.00  0.00     0.278 A 
HETATM    7  O1  UNL     1      52.187  58.962  68.139  1.00  0.00    -0.266 OA
HETATM    8  N4  UNL     1      50.352  57.775  68.751  1.00  0.00    -0.251 N 
ATOM      9  H4  UNL     1      50.063  58.510  69.397  1.00  0.00     0.192 HD
HETATM   10  N5  UNL     1      49.618  56.682  68.626  1.00  0.00    -0.238 N 
ATOM     11  H5  UNL     1      48.772  56.602  69.189  1.00  0.00     0.208 HD
HETATM   12  N6  UNL     1      49.926  55.686  67.808  1.00  0.00    -0.269 N 
ATOM     13  H6  UNL     1      49.320  54.867  67.755  1.00  0.00     0.190 HD
HETATM   14  C5  UNL     1      51.024  55.747  67.054  1.00  0.00     0.156 A 
HETATM   15  N7  UNL     1      51.378  54.744  66.198  1.00  0.00    -0.174 N 
ATOM     16  H7  UNL     1      50.793  53.913  66.123  1.00  0.00     0.186 HD
ENDROOT
BRANCH   1  17
HETATM   17  N1  UNL     1      52.806  53.882  64.654  1.00  0.00    -0.234 N 
ATOM     18  H12 UNL     1      53.750  53.496  64.682  1.00  0.00     0.174 HD
ATOM     19  H11 UNL     1      52.137  53.491  63.991  1.00  0.00     0.174 HD
ENDBRANCH   1  17
BRANCH   4  20
HETATM   20  N3  UNL     1      53.676  58.015  66.500  1.00  0.00    -0.384 N 
ATOM     21  H32 UNL     1      54.219  58.304  65.687  1.00  0.00     0.157 HD
ATOM     22  H31 UNL     1      53.734  58.565  67.357  1.00  0.00     0.157 HD
ENDBRANCH   4  20
TORSDOF 2
ENDMDL
MODEL 4
REMARK VINA RESULT: -4.480579021      1.011      2.696
REMARK  2 active torsions:
REMARK  status: ('A' for Active; 'I' for Inactive)
REMARK    1  A    between atoms: N1_1  and  C1_4 
REMARK    2  A    between atoms: C2_7  and  N3_8 
ROOT
HETATM    1  C1  UNL     1      49.682  56.082  68.123  1.00  0.00     0.679 A 
HETATM    2  N2  UNL     1      50.509  55.228  67.520  1.00  0.00    -0.176 N 
ATOM      3  H2  UNL     1      50.161  54.298  67.290  1.00  0.00     0.186 HD
HETATM    4  C2  UNL     1      51.783  55.532  67.199  1.00  0.00     0.134 A 
HETATM    5  C3  UNL     1      52.267  56.776  67.497  1.00  0.00     0.123 A 
HETATM    6  C4  UNL     1      53.574  57.102  67.173  1.00  0.00     0.278 A 
HETATM    7  O1  UNL     1      54.362  56.305  66.605  1.00  0.00    -0.266 OA
HETATM    8  N4  UNL     1      53.982  58.355  67.501  1.00  0.00    -0.251 N 
ATOM      9  H4  UNL     1      54.934  58.652  67.285  1.00  0.00     0.192 HD
HETATM   10  N5  UNL     1      53.151  59.192  68.099  1.00  0.00    -0.238 N 
ATOM     11  H5  UNL     1      53.490  60.125  68.332  1.00  0.00     0.208 HD
HETATM   12  N6  UNL     1      51.901  58.881  68.410  1.00  0.00    -0.269 N 
ATOM     13  H6  UNL     1      51.307  59.570  68.871  1.00  0.00     0.190 HD
HETATM   14  C5  UNL     1      51.415  57.673  68.125  1.00  0.00     0.156 A 
HETATM   15  N7  UNL     1      50.134  57.311  68.427  1.00  0.00    -0.174 N 
ATOM     16  H7  UNL     1      49.516  57.978  68.888  1.00  0.00     0.186 HD
ENDROOT
BRANCH   1  17
HETATM   17  N1  UNL     1      48.467  55.766  68.420  1.00  0.00    -0.234 N 
ATOM     18  H12 UNL     1      48.018  54.993  67.927  1.00  0.00     0.174 HD
ATOM     19  H11 UNL     1      47.938  56.263  69.135  1.00  0.00     0.174 HD
ENDBRANCH   1  17
BRANCH   4  20
HETATM   20  N3  UNL     1      52.572  54.695  66.616  1.00  0.00    -0.384 N 
ATOM     21  H32 UNL     1      53.540  54.973  66.459  1.00  0.00     0.157 HD
ATOM     22  H31 UNL     1      52.264  53.773  66.308  1.00  0.00     0.157 HD
ENDBRANCH   4  20
TORSDOF 2
ENDMDL
MODEL 5
REMARK VINA RESULT: -4.421510156      1.840      3.117
REMARK  2 active torsions:
REMARK  status: ('A' for Active; 'I' for Inactive)
REMARK    1  A    between atoms: N1_1  and  C1_4 
REMARK    2  A    between atoms: C2_7  and  N3_8 
ROOT
HETATM    1  C1  UNL     1      51.791  58.967  68.712  1.00  0.00     0.679 A 
HETATM    2  N2  UNL     1      50.684  58.263  68.475  1.00  0.00    -0.176 N 
ATOM      3  H2  UNL     1      49.817  58.558  68.924  1.00  0.00     0.186 HD
HETATM    4  C2  UNL     1      50.653  57.181  67.671  1.00  0.00     0.134 A 
HETATM    5  C3  UNL     1      51.804  56.772  67.058  1.00  0.00     0.123 A 
HETATM    6  C4  UNL     1      51.786  55.662  66.230  1.00  0.00     0.278 A 
HETATM    7  O1  UNL     1      50.749  54.991  65.998  1.00  0.00    -0.266 OA
HETATM    8  N4  UNL     1      52.969  55.317  65.657  1.00  0.00    -0.251 N 
ATOM      9  H4  UNL     1      53.017  54.509  65.036  1.00  0.00     0.192 HD
HETATM   10  N5  UNL     1      54.059  56.024  65.902  1.00  0.00    -0.238 N 
ATOM     11  H5  UNL     1      54.931  55.737  65.457  1.00  0.00     0.208 HD
HETATM   12  N6  UNL     1      54.078  57.086  66.695  1.00  0.00    -0.269 N 
ATOM     13  H6  UNL     1      54.951  57.591  66.845  1.00  0.00     0.190 HD
HETATM   14  C5  UNL     1      52.962  57.497  67.298  1.00  0.00     0.156 A 
HETATM   15  N7  UNL     1      52.937  58.585  68.123  1.00  0.00    -0.174 N 
ATOM     16  H7  UNL     1      53.793  59.111  68.292  1.00  0.00     0.186 HD
ENDROOT
BRANCH   1  17
HETATM   17  N1  UNL     1      51.794  59.999  69.487  1.00  0.00    -0.234 N 
ATOM     18  H12 UNL     1      52.683  60.355  69.839  1.00  0.00     0.174 HD
ATOM     19  H11 UNL     1      50.935  60.474  69.759  1.00  0.00     0.174 HD
ENDBRANCH   1  17
BRANCH   4  20
HETATM   20  N3  UNL     1      49.573  56.510  67.451  1.00  0.00    -0.384 N 
ATOM     21  H32 UNL     1      48.680  56.944  67.684  1.00  0.00     0.157 HD
ATOM     22  H31 UNL     1      49.581  55.570  67.057  1.00  0.00     0.157 HD
ENDBRANCH   4  20
TORSDOF 2
ENDMDL
