MODEL 1
REMARK VINA RESULT: -4.448600299      0.000      0.000
REMARK  4 active torsions:
REMARK  status: ('A' for Active; 'I' for Inactive)
REMARK    1  A    between atoms: N1_1  and  C1_4 
REMARK    2  A    between atoms: C2_7  and  N3_8 
REMARK    3  A    between atoms: N4_11  and  O1_12 
REMARK    4  A    between atoms: O1_12  and  C3_13 
ROOT
HETATM    1  C1  UNL     1      49.811  56.137  68.333  1.00  0.00     0.694 A 
HETATM    2  N2  UNL     1      50.601  55.187  67.804  1.00  0.00    -0.021 N 
ATOM      3  H2  UNL     1      50.294  54.217  67.738  1.00  0.00     0.203 HD
HETATM    4  C2  UNL     1      51.814  55.568  67.365  1.00  0.00     0.722 A 
HETATM    5  N4  UNL     1      52.236  56.857  67.445  1.00  0.00     0.016 N 
HETATM    6  C4  UNL     1      51.447  57.784  67.970  1.00  0.00     0.381 A 
HETATM    7  O3  UNL     1      51.816  58.974  68.054  1.00  0.00    -0.243 OA
HETATM    8  N6  UNL     1      50.239  57.421  68.411  1.00  0.00    -0.139 N 
ATOM      9  H6  UNL     1      49.624  58.127  68.818  1.00  0.00     0.189 HD
ENDROOT
BRANCH   5  10
HETATM   10  O1  UNL     1      53.499  57.115  66.959  1.00  0.00    -0.157 OA
BRANCH  10  11
HETATM   11  C3  UNL     1      53.661  57.492  65.647  1.00  0.00     0.395 C 
HETATM   12  N5  UNL     1      53.711  56.567  64.561  1.00  0.00    -0.031 NA
HETATM   13  O2  UNL     1      53.771  58.744  65.418  1.00  0.00    -0.240 OA
ENDBRANCH  10  11
ENDBRANCH   5  10
BRANCH   4  14
HETATM   14  N3  UNL     1      52.578  54.649  66.852  1.00  0.00    -0.232 N 
ATOM     15  H32 UNL     1      52.221  54.011  66.141  1.00  0.00     0.174 HD
ATOM     16  H31 UNL     1      53.539  54.597  67.193  1.00  0.00     0.174 HD
ENDBRANCH   4  14
BRANCH   1  17
HETATM   17  N1  UNL     1      48.654  55.823  68.763  1.00  0.00    -0.234 N 
ATOM     18  H12 UNL     1      47.827  56.036  68.205  1.00  0.00     0.174 HD
ATOM     19  H11 UNL     1      48.561  55.360  69.666  1.00  0.00     0.174 HD
ENDBRANCH   1  17
TORSDOF 4
ENDMDL
MODEL 2
REMARK VINA RESULT: -4.334623256      1.859      2.937
REMARK  4 active torsions:
REMARK  status: ('A' for Active; 'I' for Inactive)
REMARK    1  A    between atoms: N1_1  and  C1_4 
REMARK    2  A    between atoms: C2_7  and  N3_8 
REMARK    3  A    between atoms: N4_11  and  O1_12 
REMARK    4  A    between atoms: O1_12  and  C3_13 
ROOT
HETATM    1  C1  UNL     1      51.202  58.557  68.455  1.00  0.00     0.694 A 
HETATM    2  N2  UNL     1      50.329  57.538  68.515  1.00  0.00    -0.021 N 
ATOM      3  H2  UNL     1      49.395  57.660  68.906  1.00  0.00     0.203 HD
HETATM    4  C2  UNL     1      50.736  56.348  68.037  1.00  0.00     0.722 A 
HETATM    5  N4  UNL     1      51.976  56.170  67.511  1.00  0.00     0.016 N 
HETATM    6  C4  UNL     1      52.828  57.184  67.459  1.00  0.00     0.381 A 
HETATM    7  O3  UNL     1      53.973  57.041  66.981  1.00  0.00    -0.243 OA
HETATM    8  N6  UNL     1      52.439  58.372  67.931  1.00  0.00    -0.139 N 
ATOM      9  H6  UNL     1      53.088  59.159  67.895  1.00  0.00     0.189 HD
ENDROOT
BRANCH   5  10
HETATM   10  O1  UNL     1      52.268  54.903  67.056  1.00  0.00    -0.157 OA
BRANCH  10  11
HETATM   11  C3  UNL     1      52.105  54.601  65.726  1.00  0.00     0.395 C 
HETATM   12  N5  UNL     1      53.190  54.337  64.837  1.00  0.00    -0.031 NA
HETATM   13  O2  UNL     1      50.905  54.563  65.288  1.00  0.00    -0.240 OA
ENDBRANCH  10  11
ENDBRANCH   5  10
BRANCH   4  14
HETATM   14  N3  UNL     1      49.891  55.361  68.094  1.00  0.00    -0.232 N 
ATOM     15  H32 UNL     1      49.021  55.388  67.561  1.00  0.00     0.174 HD
ATOM     16  H31 UNL     1      50.135  54.571  68.690  1.00  0.00     0.174 HD
ENDBRANCH   4  14
BRANCH   1  17
HETATM   17  N1  UNL     1      50.861  59.702  68.896  1.00  0.00    -0.234 N 
ATOM     18  H12 UNL     1      50.891  59.894  69.898  1.00  0.00     0.174 HD
ATOM     19  H11 UNL     1      50.560  60.424  68.242  1.00  0.00     0.174 HD
ENDBRANCH   1  17
TORSDOF 4
ENDMDL
MODEL 3
REMARK VINA RESULT: -4.265610548      2.295      3.020
REMARK  4 active torsions:
REMARK  status: ('A' for Active; 'I' for Inactive)
REMARK    1  A    between atoms: N1_1  and  C1_4 
REMARK    2  A    between atoms: C2_7  and  N3_8 
REMARK    3  A    between atoms: N4_11  and  O1_12 
REMARK    4  A    between atoms: O1_12  and  C3_13 
ROOT
HETATM    1  C1  UNL     1      51.160  58.476  68.486  1.00  0.00     0.694 A 
HETATM    2  N2  UNL     1      52.404  58.275  68.020  1.00  0.00    -0.021 N 
ATOM      3  H2  UNL     1      53.103  59.017  68.036  1.00  0.00     0.203 HD
HETATM    4  C2  UNL     1      52.690  57.055  67.531  1.00  0.00     0.722 A 
HETATM    5  N4  UNL     1      51.769  56.057  67.503  1.00  0.00     0.016 N 
HETATM    6  C4  UNL     1      50.544  56.269  67.965  1.00  0.00     0.381 A 
HETATM    7  O3  UNL     1      49.682  55.366  67.947  1.00  0.00    -0.243 OA
HETATM    8  N6  UNL     1      50.245  57.476  68.454  1.00  0.00    -0.139 N 
ATOM      9  H6  UNL     1      49.305  57.649  68.811  1.00  0.00     0.189 HD
ENDROOT
BRANCH   5  10
HETATM   10  O1  UNL     1      52.189  54.855  66.976  1.00  0.00    -0.157 OA
BRANCH  10  11
HETATM   11  C3  UNL     1      52.118  54.642  65.620  1.00  0.00     0.395 C 
HETATM   12  N5  UNL     1      53.254  54.678  64.756  1.00  0.00    -0.031 NA
HETATM   13  O2  UNL     1      50.961  54.402  65.135  1.00  0.00    -0.240 OA
ENDBRANCH  10  11
ENDBRANCH   5  10
BRANCH   4  14
HETATM   14  N3  UNL     1      53.894  56.861  67.080  1.00  0.00    -0.232 N 
ATOM     15  H32 UNL     1      54.228  57.356  66.253  1.00  0.00     0.174 HD
ATOM     16  H31 UNL     1      54.481  56.197  67.586  1.00  0.00     0.174 HD
ENDBRANCH   4  14
BRANCH   1  17
HETATM   17  N1  UNL     1      50.843  59.616  68.958  1.00  0.00    -0.234 N 
ATOM     18  H12 UNL     1      49.865  59.909  68.973  1.00  0.00     0.174 HD
ATOM     19  H11 UNL     1      51.571  60.231  69.320  1.00  0.00     0.174 HD
ENDBRANCH   1  17
TORSDOF 4
ENDMDL
MODEL 4
REMARK VINA RESULT: -4.244674501      2.277      4.684
REMARK  4 active torsions:
REMARK  status: ('A' for Active; 'I' for Inactive)
REMARK    1  A    between atoms: N1_1  and  C1_4 
REMARK    2  A    between atoms: C2_7  and  N3_8 
REMARK    3  A    between atoms: N4_11  and  O1_12 
REMARK    4  A    between atoms: O1_12  and  C3_13 
ROOT
HETATM    1  C1  UNL     1      53.605  56.626  66.850  1.00  0.00     0.694 A 
HETATM    2  N2  UNL     1      52.924  57.492  67.619  1.00  0.00    -0.021 N 
ATOM      3  H2  UNL     1      53.402  58.210  68.162  1.00  0.00     0.203 HD
HETATM    4  C2  UNL     1      51.584  57.372  67.645  1.00  0.00     0.722 A 
HETATM    5  N4  UNL     1      50.932  56.421  66.927  1.00  0.00     0.016 N 
HETATM    6  C4  UNL     1      51.617  55.572  66.172  1.00  0.00     0.381 A 
HETATM    7  O3  UNL     1      51.037  54.690  65.505  1.00  0.00    -0.243 OA
HETATM    8  N6  UNL     1      52.948  55.678  66.136  1.00  0.00    -0.139 N 
ATOM      9  H6  UNL     1      53.484  55.029  65.559  1.00  0.00     0.189 HD
ENDROOT
BRANCH   5  10
HETATM   10  O1  UNL     1      49.559  56.406  67.040  1.00  0.00    -0.157 OA
BRANCH  10  11
HETATM   11  C3  UNL     1      48.963  55.628  68.003  1.00  0.00     0.395 C 
HETATM   12  N5  UNL     1      47.568  55.676  68.303  1.00  0.00    -0.031 NA
HETATM   13  O2  UNL     1      49.722  54.829  68.649  1.00  0.00    -0.240 OA
ENDBRANCH  10  11
ENDBRANCH   5  10
BRANCH   4  14
HETATM   14  N3  UNL     1      50.925  58.211  68.390  1.00  0.00    -0.232 N 
ATOM     15  H32 UNL     1      51.417  58.868  68.996  1.00  0.00     0.174 HD
ATOM     16  H31 UNL     1      49.907  58.179  68.340  1.00  0.00     0.174 HD
ENDBRANCH   4  14
BRANCH   1  17
HETATM   17  N1  UNL     1      54.875  56.700  66.794  1.00  0.00    -0.234 N 
ATOM     18  H12 UNL     1      55.424  55.877  66.544  1.00  0.00     0.174 HD
ATOM     19  H11 UNL     1      55.337  57.585  67.002  1.00  0.00     0.174 HD
ENDBRANCH   1  17
TORSDOF 4
ENDMDL
MODEL 5
REMARK VINA RESULT: -4.218659157      1.188      1.244
REMARK  4 active torsions:
REMARK  status: ('A' for Active; 'I' for Inactive)
REMARK    1  A    between atoms: N1_1  and  C1_4 
REMARK    2  A    between atoms: C2_7  and  N3_8 
REMARK    3  A    between atoms: N4_11  and  O1_12 
REMARK    4  A    between atoms: O1_12  and  C3_13 
ROOT
HETATM    1  C1  UNL     1      49.665  56.116  68.286  1.00  0.00     0.694 A 
HETATM    2  N2  UNL     1      50.185  55.246  67.404  1.00  0.00    -0.021 N 
ATOM      3  H2  UNL     1      49.740  54.347  67.220  1.00  0.00     0.203 HD
HETATM    4  C2  UNL     1      51.316  55.608  66.773  1.00  0.00     0.722 A 
HETATM    5  N4  UNL     1      51.920  56.802  67.007  1.00  0.00     0.016 N 
HETATM    6  C4  UNL     1      51.397  57.652  67.880  1.00  0.00     0.381 A 
HETATM    7  O3  UNL     1      51.937  58.754  68.110  1.00  0.00    -0.243 OA
HETATM    8  N6  UNL     1      50.273  57.306  68.515  1.00  0.00    -0.139 N 
ATOM      9  H6  UNL     1      49.863  57.954  69.189  1.00  0.00     0.189 HD
ENDROOT
BRANCH   5  10
HETATM   10  O1  UNL     1      53.073  57.051  66.295  1.00  0.00    -0.157 OA
BRANCH  10  11
HETATM   11  C3  UNL     1      54.295  56.761  66.853  1.00  0.00     0.395 C 
HETATM   12  N5  UNL     1      54.807  55.435  66.985  1.00  0.00    -0.031 NA
HETATM   13  O2  UNL     1      54.988  57.751  67.267  1.00  0.00    -0.240 OA
ENDBRANCH  10  11
ENDBRANCH   5  10
BRANCH   4  14
HETATM   14  N3  UNL     1      51.819  54.765  65.920  1.00  0.00    -0.232 N 
ATOM     15  H32 UNL     1      51.243  54.026  65.515  1.00  0.00     0.174 HD
ATOM     16  H31 UNL     1      52.804  54.876  65.678  1.00  0.00     0.174 HD
ENDBRANCH   4  14
BRANCH   1  17
HETATM   17  N1  UNL     1      48.595  55.817  68.908  1.00  0.00    -0.234 N 
ATOM     18  H12 UNL     1      47.843  56.501  68.988  1.00  0.00     0.174 HD
ATOM     19  H11 UNL     1      48.497  54.891  69.323  1.00  0.00     0.174 HD
ENDBRANCH   1  17
TORSDOF 4
ENDMDL
