MODEL 1
REMARK VINA RESULT: -5.722092414      0.000      0.000
REMARK  9 active torsions:
REMARK  status: ('A' for Active; 'I' for Inactive)
REMARK    1  A    between atoms: N1_1  and  C1_5 
REMARK    2  A    between atoms: C1_5  and  C2_6 
REMARK    3  A    between atoms: C1_5  and  C11_28 
REMARK       I    between atoms: C2_6  and  N2_8 
REMARK    4  A    between atoms: C4_11  and  C5_12 
REMARK    5  A    between atoms: C5_12  and  O2_13 
REMARK    6  A    between atoms: C5_12  and  O3_15 
REMARK    7  A    between atoms: C7_19  and  C8_20 
REMARK    8  A    between atoms: C7_19  and  C9_23 
REMARK    9  A    between atoms: C9_23  and  C10_25 
ROOT
HETATM    1  C2  UNL     1      36.710  36.551  22.725  1.00  0.00     0.260 C 
HETATM    2  O1  UNL     1      35.729  35.781  22.491  1.00  0.00    -0.270 OA
HETATM    3  N2  UNL     1      36.666  37.334  23.878  1.00  0.00    -0.329 N 
ATOM      4  H2  UNL     1      36.210  38.245  23.809  1.00  0.00     0.168 HD
HETATM    5  C3  UNL     1      37.164  36.993  25.048  1.00  0.00     0.036 C 
HETATM    6  C4  UNL     1      37.826  35.699  25.207  1.00  0.00     0.149 C 
HETATM    7  S1  UNL     1      38.998  36.088  26.568  1.00  0.00    -0.151 SA
HETATM    8  C6  UNL     1      37.931  37.333  27.343  1.00  0.00     0.110 C 
HETATM    9  C7  UNL     1      37.078  37.873  26.196  1.00  0.00     0.167 C 
ENDROOT
BRANCH   6  10
HETATM   10  C5  UNL     1      36.975  34.556  25.631  1.00  0.00     0.273 C 
BRANCH  10  11
HETATM   11  O2  UNL     1      37.391  33.353  25.077  1.00  0.00    -0.370 OA
ATOM     12  H2  UNL     1      37.107  32.602  25.586  1.00  0.00     0.212 HD
ENDBRANCH  10  11
BRANCH  10  13
HETATM   13  O3  UNL     1      35.677  34.796  25.121  1.00  0.00    -0.370 OA
ATOM     14  H3  UNL     1      35.089  34.835  25.866  1.00  0.00     0.212 HD
ENDBRANCH  10  13
ENDBRANCH   6  10
BRANCH   9  15
HETATM   15  C8  UNL     1      35.663  37.982  26.711  1.00  0.00     0.197 C 
HETATM   16  O4  UNL     1      34.783  37.344  26.117  1.00  0.00    -0.647 OA
HETATM   17  O5  UNL     1      35.366  38.754  27.792  1.00  0.00    -0.647 OA
ENDBRANCH   9  15
BRANCH   9  18
HETATM   18  C9  UNL     1      37.537  39.253  25.963  1.00  0.00     0.250 C 
HETATM   19  O6  UNL     1      38.549  39.641  26.672  1.00  0.00    -0.284 OA
BRANCH  18  20
HETATM   20  C10 UNL     1      37.040  40.252  25.069  1.00  0.00     0.248 C 
HETATM   21  O7  UNL     1      36.529  41.312  25.444  1.00  0.00    -0.642 OA
HETATM   22  O8  UNL     1      37.099  40.096  23.670  1.00  0.00    -0.642 OA
ENDBRANCH  18  20
ENDBRANCH   9  18
BRANCH   1  23
HETATM   23  C1  UNL     1      37.831  36.555  21.748  1.00  0.00     0.343 C 
BRANCH  23  24
HETATM   24  N1  UNL     1      38.344  37.891  21.570  1.00  0.00    -0.059 N 
ATOM     25  H13 UNL     1      38.314  38.181  20.593  1.00  0.00     0.275 HD
ATOM     26  H12 UNL     1      37.714  38.593  21.957  1.00  0.00     0.275 HD
ATOM     27  H11 UNL     1      39.283  37.970  21.960  1.00  0.00     0.275 HD
ENDBRANCH  23  24
BRANCH  23  28
HETATM   28  C11 UNL     1      37.319  36.027  20.445  1.00  0.00     0.140 A 
HETATM   29  N3  UNL     1      36.119  36.278  19.885  1.00  0.00    -0.283 N 
HETATM   30  N4  UNL     1      36.007  35.643  18.733  1.00  0.00    -0.250 N 
ATOM     31  H3  UNL     1      35.399  36.875  20.293  1.00  0.00     0.188 HD
HETATM   32  C12 UNL     1      37.139  34.963  18.523  1.00  0.00     0.340 A 
ATOM     33  H4  UNL     1      35.199  35.667  18.112  1.00  0.00     0.192 HD
HETATM   34  O9  UNL     1      37.390  34.242  17.524  1.00  0.00    -0.245 OA
HETATM   35  N5  UNL     1      37.942  35.203  19.580  1.00  0.00    -0.294 N 
ATOM     36  H5  UNL     1      38.879  34.821  19.705  1.00  0.00     0.172 HD
ENDBRANCH  23  28
ENDBRANCH   1  23
TORSDOF 9
ENDMDL
MODEL 2
REMARK VINA RESULT: -5.709549085      1.492      1.879
REMARK  9 active torsions:
REMARK  status: ('A' for Active; 'I' for Inactive)
REMARK    1  A    between atoms: N1_1  and  C1_5 
REMARK    2  A    between atoms: C1_5  and  C2_6 
REMARK    3  A    between atoms: C1_5  and  C11_28 
REMARK       I    between atoms: C2_6  and  N2_8 
REMARK    4  A    between atoms: C4_11  and  C5_12 
REMARK    5  A    between atoms: C5_12  and  O2_13 
REMARK    6  A    between atoms: C5_12  and  O3_15 
REMARK    7  A    between atoms: C7_19  and  C8_20 
REMARK    8  A    between atoms: C7_19  and  C9_23 
REMARK    9  A    between atoms: C9_23  and  C10_25 
ROOT
HETATM    1  C2  UNL     1      36.273  38.238  23.530  1.00  0.00     0.260 C 
HETATM    2  O1  UNL     1      35.228  37.568  23.266  1.00  0.00    -0.270 OA
HETATM    3  N2  UNL     1      36.425  38.731  24.825  1.00  0.00    -0.329 N 
ATOM      4  H2  UNL     1      36.016  39.643  25.031  1.00  0.00     0.168 HD
HETATM    5  C3  UNL     1      37.052  38.114  25.805  1.00  0.00     0.036 C 
HETATM    6  C4  UNL     1      37.656  36.803  25.569  1.00  0.00     0.149 C 
HETATM    7  S1  UNL     1      39.016  36.835  26.805  1.00  0.00    -0.151 SA
HETATM    8  C6  UNL     1      38.131  37.889  27.985  1.00  0.00     0.110 C 
HETATM    9  C7  UNL     1      37.167  38.702  27.123  1.00  0.00     0.167 C 
ENDROOT
BRANCH   6  10
HETATM   10  C5  UNL     1      36.805  35.613  25.836  1.00  0.00     0.273 C 
BRANCH  10  11
HETATM   11  O2  UNL     1      37.025  34.589  24.925  1.00  0.00    -0.370 OA
ATOM     12  H2  UNL     1      36.359  33.914  24.970  1.00  0.00     0.212 HD
ENDBRANCH  10  11
BRANCH  10  13
HETATM   13  O3  UNL     1      35.460  36.017  25.656  1.00  0.00    -0.370 OA
ATOM     14  H3  UNL     1      34.932  35.496  26.249  1.00  0.00     0.212 HD
ENDBRANCH  10  13
ENDBRANCH   6  10
BRANCH   9  15
HETATM   15  C8  UNL     1      35.840  38.722  27.843  1.00  0.00     0.197 C 
HETATM   16  O4  UNL     1      34.868  38.209  27.273  1.00  0.00    -0.647 OA
HETATM   17  O5  UNL     1      35.718  39.283  29.078  1.00  0.00    -0.647 OA
ENDBRANCH   9  15
BRANCH   9  18
HETATM   18  C9  UNL     1      37.668  40.087  27.150  1.00  0.00     0.250 C 
HETATM   19  O6  UNL     1      38.905  40.236  27.502  1.00  0.00    -0.284 OA
BRANCH  18  20
HETATM   20  C10 UNL     1      37.002  41.315  26.846  1.00  0.00     0.248 C 
HETATM   21  O7  UNL     1      36.588  41.608  25.720  1.00  0.00    -0.642 OA
HETATM   22  O8  UNL     1      36.767  42.299  27.828  1.00  0.00    -0.642 OA
ENDBRANCH  18  20
ENDBRANCH   9  18
BRANCH   1  23
HETATM   23  C1  UNL     1      37.255  38.443  22.432  1.00  0.00     0.343 C 
BRANCH  23  24
HETATM   24  N1  UNL     1      36.983  39.674  21.731  1.00  0.00    -0.059 N 
ATOM     25  H13 UNL     1      37.041  40.482  22.350  1.00  0.00     0.275 HD
ATOM     26  H12 UNL     1      37.737  39.918  21.089  1.00  0.00     0.275 HD
ATOM     27  H11 UNL     1      36.082  39.625  21.256  1.00  0.00     0.275 HD
ENDBRANCH  23  24
BRANCH  23  28
HETATM   28  C11 UNL     1      37.153  37.285  21.490  1.00  0.00     0.140 A 
HETATM   29  N3  UNL     1      37.736  36.077  21.625  1.00  0.00    -0.283 N 
HETATM   30  N4  UNL     1      37.428  35.301  20.603  1.00  0.00    -0.250 N 
ATOM     31  H3  UNL     1      38.332  35.803  22.406  1.00  0.00     0.188 HD
HETATM   32  C12 UNL     1      36.633  35.994  19.780  1.00  0.00     0.340 A 
ATOM     33  H4  UNL     1      37.740  34.339  20.465  1.00  0.00     0.192 HD
HETATM   34  O9  UNL     1      36.143  35.573  18.702  1.00  0.00    -0.245 OA
HETATM   35  N5  UNL     1      36.468  37.214  20.332  1.00  0.00    -0.294 N 
ATOM     36  H5  UNL     1      35.910  37.967  19.933  1.00  0.00     0.172 HD
ENDBRANCH  23  28
ENDBRANCH   1  23
TORSDOF 9
ENDMDL
MODEL 3
REMARK VINA RESULT: -5.569451141      1.586      2.209
REMARK  9 active torsions:
REMARK  status: ('A' for Active; 'I' for Inactive)
REMARK    1  A    between atoms: N1_1  and  C1_5 
REMARK    2  A    between atoms: C1_5  and  C2_6 
REMARK    3  A    between atoms: C1_5  and  C11_28 
REMARK       I    between atoms: C2_6  and  N2_8 
REMARK    4  A    between atoms: C4_11  and  C5_12 
REMARK    5  A    between atoms: C5_12  and  O2_13 
REMARK    6  A    between atoms: C5_12  and  O3_15 
REMARK    7  A    between atoms: C7_19  and  C8_20 
REMARK    8  A    between atoms: C7_19  and  C9_23 
REMARK    9  A    between atoms: C9_23  and  C10_25 
ROOT
HETATM    1  C2  UNL     1      36.289  38.239  23.533  1.00  0.00     0.260 C 
HETATM    2  O1  UNL     1      35.236  37.585  23.257  1.00  0.00    -0.270 OA
HETATM    3  N2  UNL     1      36.434  38.726  24.831  1.00  0.00    -0.329 N 
ATOM      4  H2  UNL     1      36.037  39.645  25.034  1.00  0.00     0.168 HD
HETATM    5  C3  UNL     1      37.041  38.098  25.817  1.00  0.00     0.036 C 
HETATM    6  C4  UNL     1      37.626  36.778  25.585  1.00  0.00     0.149 C 
HETATM    7  S1  UNL     1      38.973  36.786  26.835  1.00  0.00    -0.151 SA
HETATM    8  C6  UNL     1      38.092  37.852  28.008  1.00  0.00     0.110 C 
HETATM    9  C7  UNL     1      37.150  38.682  27.137  1.00  0.00     0.167 C 
ENDROOT
BRANCH   6  10
HETATM   10  C5  UNL     1      36.754  35.601  25.840  1.00  0.00     0.273 C 
BRANCH  10  11
HETATM   11  O2  UNL     1      36.980  34.569  24.940  1.00  0.00    -0.370 OA
ATOM     12  H2  UNL     1      36.752  33.720  25.298  1.00  0.00     0.212 HD
ENDBRANCH  10  11
BRANCH  10  13
HETATM   13  O3  UNL     1      35.419  36.022  25.629  1.00  0.00    -0.370 OA
ATOM     14  H3  UNL     1      34.903  35.678  26.348  1.00  0.00     0.212 HD
ENDBRANCH  10  13
ENDBRANCH   6  10
BRANCH   9  15
HETATM   15  C8  UNL     1      35.816  38.722  27.842  1.00  0.00     0.197 C 
HETATM   16  O4  UNL     1      34.874  38.105  27.328  1.00  0.00    -0.647 OA
HETATM   17  O5  UNL     1      35.656  39.410  29.006  1.00  0.00    -0.647 OA
ENDBRANCH   9  15
BRANCH   9  18
HETATM   18  C9  UNL     1      37.673  40.059  27.172  1.00  0.00     0.250 C 
HETATM   19  O6  UNL     1      37.022  40.930  26.469  1.00  0.00    -0.284 OA
BRANCH  18  20
HETATM   20  C10 UNL     1      38.799  40.601  27.865  1.00  0.00     0.248 C 
HETATM   21  O7  UNL     1      39.925  40.702  27.368  1.00  0.00    -0.642 OA
HETATM   22  O8  UNL     1      38.705  41.067  29.193  1.00  0.00    -0.642 OA
ENDBRANCH  18  20
ENDBRANCH   9  18
BRANCH   1  23
HETATM   23  C1  UNL     1      37.286  38.430  22.446  1.00  0.00     0.343 C 
BRANCH  23  24
HETATM   24  N1  UNL     1      37.043  39.668  21.748  1.00  0.00    -0.059 N 
ATOM     25  H13 UNL     1      36.723  40.402  22.379  1.00  0.00     0.275 HD
ATOM     26  H12 UNL     1      37.912  40.103  21.436  1.00  0.00     0.275 HD
ATOM     27  H11 UNL     1      36.394  39.523  20.976  1.00  0.00     0.275 HD
ENDBRANCH  23  24
BRANCH  23  28
HETATM   28  C11 UNL     1      37.173  37.278  21.499  1.00  0.00     0.140 A 
HETATM   29  N3  UNL     1      37.748  36.065  21.626  1.00  0.00    -0.283 N 
HETATM   30  N4  UNL     1      37.431  35.296  20.602  1.00  0.00    -0.250 N 
ATOM     31  H3  UNL     1      38.344  35.782  22.404  1.00  0.00     0.188 HD
HETATM   32  C12 UNL     1      36.640  35.999  19.784  1.00  0.00     0.340 A 
ATOM     33  H4  UNL     1      37.737  34.333  20.458  1.00  0.00     0.192 HD
HETATM   34  O9  UNL     1      36.143  35.586  18.706  1.00  0.00    -0.245 OA
HETATM   35  N5  UNL     1      36.485  37.217  20.342  1.00  0.00    -0.294 N 
ATOM     36  H5  UNL     1      35.930  37.977  19.949  1.00  0.00     0.172 HD
ENDBRANCH  23  28
ENDBRANCH   1  23
TORSDOF 9
ENDMDL
MODEL 4
REMARK VINA RESULT: -5.522446267      3.062      5.917
REMARK  9 active torsions:
REMARK  status: ('A' for Active; 'I' for Inactive)
REMARK    1  A    between atoms: N1_1  and  C1_5 
REMARK    2  A    between atoms: C1_5  and  C2_6 
REMARK    3  A    between atoms: C1_5  and  C11_28 
REMARK       I    between atoms: C2_6  and  N2_8 
REMARK    4  A    between atoms: C4_11  and  C5_12 
REMARK    5  A    between atoms: C5_12  and  O2_13 
REMARK    6  A    between atoms: C5_12  and  O3_15 
REMARK    7  A    between atoms: C7_19  and  C8_20 
REMARK    8  A    between atoms: C7_19  and  C9_23 
REMARK    9  A    between atoms: C9_23  and  C10_25 
ROOT
HETATM    1  C2  UNL     1      36.110  35.411  25.733  1.00  0.00     0.260 C 
HETATM    2  O1  UNL     1      35.348  36.008  26.553  1.00  0.00    -0.270 OA
HETATM    3  N2  UNL     1      36.339  36.012  24.496  1.00  0.00    -0.329 N 
ATOM      4  H2  UNL     1      35.680  35.804  23.744  1.00  0.00     0.168 HD
HETATM    5  C3  UNL     1      37.337  36.825  24.219  1.00  0.00     0.036 C 
HETATM    6  C4  UNL     1      38.310  37.160  25.257  1.00  0.00     0.149 C 
HETATM    7  S1  UNL     1      39.792  37.505  24.226  1.00  0.00    -0.151 SA
HETATM    8  C6  UNL     1      38.852  38.111  22.798  1.00  0.00     0.110 C 
HETATM    9  C7  UNL     1      37.502  37.403  22.901  1.00  0.00     0.167 C 
ENDROOT
BRANCH   6  10
HETATM   10  C5  UNL     1      38.023  38.361  26.086  1.00  0.00     0.273 C 
BRANCH  10  11
HETATM   11  O2  UNL     1      38.192  38.121  27.443  1.00  0.00    -0.370 OA
ATOM     12  H2  UNL     1      37.507  38.516  27.969  1.00  0.00     0.212 HD
ENDBRANCH  10  11
BRANCH  10  13
HETATM   13  O3  UNL     1      36.653  38.669  25.908  1.00  0.00    -0.370 OA
ATOM     14  H3  UNL     1      36.420  39.296  26.582  1.00  0.00     0.212 HD
ENDBRANCH  10  13
ENDBRANCH   6  10
BRANCH   9  15
HETATM   15  C8  UNL     1      36.440  38.433  22.606  1.00  0.00     0.197 C 
HETATM   16  O4  UNL     1      35.311  38.251  23.082  1.00  0.00    -0.647 OA
HETATM   17  O5  UNL     1      36.714  39.528  21.843  1.00  0.00    -0.647 OA
ENDBRANCH   9  15
BRANCH   9  18
HETATM   18  C9  UNL     1      37.462  36.442  21.786  1.00  0.00     0.250 C 
HETATM   19  O6  UNL     1      38.065  35.314  21.988  1.00  0.00    -0.284 OA
BRANCH  18  20
HETATM   20  C10 UNL     1      36.856  36.550  20.496  1.00  0.00     0.248 C 
HETATM   21  O7  UNL     1      35.811  35.973  20.180  1.00  0.00    -0.642 OA
HETATM   22  O8  UNL     1      37.420  37.337  19.471  1.00  0.00    -0.642 OA
ENDBRANCH  18  20
ENDBRANCH   9  18
BRANCH   1  23
HETATM   23  C1  UNL     1      36.699  34.113  26.160  1.00  0.00     0.343 C 
BRANCH  23  24
HETATM   24  N1  UNL     1      37.372  33.474  25.056  1.00  0.00    -0.059 N 
ATOM     25  H13 UNL     1      36.974  33.751  24.159  1.00  0.00     0.275 HD
ATOM     26  H12 UNL     1      38.315  33.841  24.925  1.00  0.00     0.275 HD
ATOM     27  H11 UNL     1      37.373  32.462  25.174  1.00  0.00     0.275 HD
ENDBRANCH  23  24
BRANCH  23  28
HETATM   28  C11 UNL     1      35.592  33.238  26.659  1.00  0.00     0.140 A 
HETATM   29  N3  UNL     1      35.718  32.069  27.318  1.00  0.00    -0.283 N 
HETATM   30  N4  UNL     1      34.530  31.572  27.604  1.00  0.00    -0.250 N 
ATOM     31  H3  UNL     1      36.607  31.630  27.560  1.00  0.00     0.188 HD
HETATM   32  C12 UNL     1      33.603  32.415  27.134  1.00  0.00     0.340 A 
ATOM     33  H4  UNL     1      34.349  30.698  28.098  1.00  0.00     0.192 HD
HETATM   34  O9  UNL     1      32.359  32.265  27.225  1.00  0.00    -0.245 OA
HETATM   35  N5  UNL     1      34.264  33.437  26.555  1.00  0.00    -0.294 N 
ATOM     36  H5  UNL     1      33.824  34.240  26.105  1.00  0.00     0.172 HD
ENDBRANCH  23  28
ENDBRANCH   1  23
TORSDOF 9
ENDMDL
MODEL 5
REMARK VINA RESULT: -5.405090697      3.794      5.385
REMARK  9 active torsions:
REMARK  status: ('A' for Active; 'I' for Inactive)
REMARK    1  A    between atoms: N1_1  and  C1_5 
REMARK    2  A    between atoms: C1_5  and  C2_6 
REMARK    3  A    between atoms: C1_5  and  C11_28 
REMARK       I    between atoms: C2_6  and  N2_8 
REMARK    4  A    between atoms: C4_11  and  C5_12 
REMARK    5  A    between atoms: C5_12  and  O2_13 
REMARK    6  A    between atoms: C5_12  and  O3_15 
REMARK    7  A    between atoms: C7_19  and  C8_20 
REMARK    8  A    between atoms: C7_19  and  C9_23 
REMARK    9  A    between atoms: C9_23  and  C10_25 
ROOT
HETATM    1  C2  UNL     1      37.279  36.050  26.144  1.00  0.00     0.260 C 
HETATM    2  O1  UNL     1      38.278  35.285  26.310  1.00  0.00    -0.270 OA
HETATM    3  N2  UNL     1      37.367  37.355  26.628  1.00  0.00    -0.329 N 
ATOM      4  H2  UNL     1      37.089  37.514  27.597  1.00  0.00     0.168 HD
HETATM    5  C3  UNL     1      37.779  38.396  25.936  1.00  0.00     0.036 C 
HETATM    6  C4  UNL     1      38.191  38.227  24.544  1.00  0.00     0.149 C 
HETATM    7  S1  UNL     1      37.810  39.896  23.877  1.00  0.00    -0.151 SA
HETATM    8  C6  UNL     1      38.121  40.764  25.439  1.00  0.00     0.110 C 
HETATM    9  C7  UNL     1      37.834  39.721  26.519  1.00  0.00     0.167 C 
ENDROOT
BRANCH   6  10
HETATM   10  C5  UNL     1      39.629  37.938  24.298  1.00  0.00     0.273 C 
BRANCH  10  11
HETATM   11  O2  UNL     1      39.816  36.979  23.313  1.00  0.00    -0.370 OA
ATOM     12  H2  UNL     1      40.135  36.156  23.663  1.00  0.00     0.212 HD
ENDBRANCH  10  11
BRANCH  10  13
HETATM   13  O3  UNL     1      40.149  37.383  25.492  1.00  0.00    -0.370 OA
ATOM     14  H3  UNL     1      41.092  37.344  25.392  1.00  0.00     0.212 HD
ENDBRANCH  10  13
ENDBRANCH   6  10
BRANCH   9  15
HETATM   15  C8  UNL     1      38.934  39.834  27.546  1.00  0.00     0.197 C 
HETATM   16  O4  UNL     1      39.507  38.793  27.894  1.00  0.00    -0.647 OA
HETATM   17  O5  UNL     1      39.285  41.041  28.070  1.00  0.00    -0.647 OA
ENDBRANCH   9  15
BRANCH   9  18
HETATM   18  C9  UNL     1      36.599  40.162  27.190  1.00  0.00     0.250 C 
HETATM   19  O6  UNL     1      36.162  41.335  26.859  1.00  0.00    -0.284 OA
BRANCH  18  20
HETATM   20  C10 UNL     1      35.791  39.498  28.164  1.00  0.00     0.248 C 
HETATM   21  O7  UNL     1      35.815  39.765  29.370  1.00  0.00    -0.642 OA
HETATM   22  O8  UNL     1      34.893  38.470  27.813  1.00  0.00    -0.642 OA
ENDBRANCH  18  20
ENDBRANCH   9  18
BRANCH   1  23
HETATM   23  C1  UNL     1      36.092  35.491  25.443  1.00  0.00     0.343 C 
BRANCH  23  24
HETATM   24  N1  UNL     1      34.993  36.423  25.484  1.00  0.00    -0.059 N 
ATOM     25  H13 UNL     1      35.304  37.364  25.727  1.00  0.00     0.275 HD
ATOM     26  H12 UNL     1      34.628  36.618  24.552  1.00  0.00     0.275 HD
ATOM     27  H11 UNL     1      34.264  36.090  26.114  1.00  0.00     0.275 HD
ENDBRANCH  23  24
BRANCH  23  28
HETATM   28  C11 UNL     1      35.706  34.214  26.121  1.00  0.00     0.140 A 
HETATM   29  N3  UNL     1      36.489  33.135  26.323  1.00  0.00    -0.283 N 
HETATM   30  N4  UNL     1      35.817  32.191  26.953  1.00  0.00    -0.250 N 
ATOM     31  H3  UNL     1      37.463  33.059  26.029  1.00  0.00     0.188 HD
HETATM   32  C12 UNL     1      34.577  32.642  27.175  1.00  0.00     0.340 A 
ATOM     33  H4  UNL     1      36.179  31.277  27.225  1.00  0.00     0.192 HD
HETATM   34  O9  UNL     1      33.657  32.011  27.754  1.00  0.00    -0.245 OA
HETATM   35  N5  UNL     1      34.516  33.887  26.661  1.00  0.00    -0.294 N 
ATOM     36  H5  UNL     1      33.694  34.489  26.678  1.00  0.00     0.172 HD
ENDBRANCH  23  28
ENDBRANCH   1  23
TORSDOF 9
ENDMDL
