MODEL 1
REMARK VINA RESULT: -5.963086968      0.000      0.000
REMARK  10 active torsions:
REMARK  status: ('A' for Active; 'I' for Inactive)
REMARK    1  A    between atoms: O1_2  and  N1_3 
REMARK    2  A    between atoms: C5_9  and  O3_10 
REMARK    3  A    between atoms: C5_9  and  C6_12 
REMARK    4  A    between atoms: C6_12  and  O4_13 
REMARK    5  A    between atoms: C6_12  and  C7_15 
REMARK    6  A    between atoms: C7_15  and  N3_16 
REMARK    7  A    between atoms: N3_16  and  S1_18 
REMARK    8  A    between atoms: S1_18  and  O7_21 
REMARK    9  A    between atoms: O7_21  and  C8_22 
REMARK   10  A    between atoms: C10_27  and  N6_28 
ROOT
HETATM    1  N3  UNL     1      34.621  33.415  25.955  1.00  0.00    -0.294 N 
ATOM      2  H3  UNL     1      34.626  33.281  24.943  1.00  0.00     0.174 HD
ENDROOT
BRANCH   1   3
HETATM    3  C7  UNL     1      35.332  34.469  26.605  1.00  0.00     0.171 C 
BRANCH   3   4
HETATM    4  C6  UNL     1      35.947  35.452  25.652  1.00  0.00     0.196 C 
BRANCH   4   5
HETATM    5  C5  UNL     1      35.340  36.828  25.819  1.00  0.00     0.206 C 
HETATM    6  N1  UNL     1      36.189  37.754  26.512  1.00  0.00    -0.167 N 
HETATM    7  C2  UNL     1      37.029  38.322  25.508  1.00  0.00     0.347 C 
HETATM    8  O2  UNL     1      38.000  39.101  25.707  1.00  0.00    -0.245 OA
HETATM    9  N2  UNL     1      36.611  37.878  24.222  1.00  0.00    -0.332 N 
HETATM   10  C3  UNL     1      37.421  37.907  23.011  1.00  0.00     0.154 C 
HETATM   11  C4  UNL     1      35.248  37.414  24.404  1.00  0.00     0.193 C 
BRANCH   6  12
HETATM   12  O1  UNL     1      36.169  38.005  27.820  1.00  0.00    -0.276 OA
HETATM   13  C1  UNL     1      35.706  39.276  28.138  1.00  0.00     0.238 C 
ENDBRANCH   6  12
BRANCH   5  14
HETATM   14  O3  UNL     1      34.051  36.784  26.308  1.00  0.00    -0.365 OA
ATOM     15  H3  UNL     1      33.519  37.529  26.052  1.00  0.00     0.212 HD
ENDBRANCH   5  14
ENDBRANCH   4   5
BRANCH   4  16
HETATM   16  O4  UNL     1      35.579  35.042  24.346  1.00  0.00    -0.389 OA
ATOM     17  H4  UNL     1      34.631  35.002  24.357  1.00  0.00     0.210 HD
ENDBRANCH   4  16
ENDBRANCH   3   4
ENDBRANCH   1   3
BRANCH   1  18
HETATM   18  S1  UNL     1      33.763  32.402  27.024  1.00  0.00     0.363 S 
HETATM   19  O5  UNL     1      32.310  32.382  26.621  1.00  0.00    -0.175 OA
HETATM   20  O6  UNL     1      33.818  32.889  28.443  1.00  0.00    -0.175 OA
BRANCH  18  21
HETATM   21  O7  UNL     1      34.357  30.812  27.018  1.00  0.00    -0.207 OA
BRANCH  21  22
HETATM   22  C8  UNL     1      35.691  30.540  27.287  1.00  0.00     0.200 A 
HETATM   23  C9  UNL     1      36.668  30.604  26.292  1.00  0.00     0.172 A 
HETATM   24  N4  UNL     1      36.305  30.951  24.966  1.00  0.00    -0.079 NA
HETATM   25  N5  UNL     1      37.944  30.326  26.631  1.00  0.00    -0.176 N 
HETATM   26  C10 UNL     1      38.289  29.994  27.885  1.00  0.00     0.680 A 
ATOM     27  H5  UNL     1      38.667  30.369  25.913  1.00  0.00     0.185 HD
HETATM   28  N7  UNL     1      37.339  29.940  28.820  1.00  0.00    -0.154 N 
HETATM   29  C11 UNL     1      36.044  30.200  28.573  1.00  0.00     0.298 A 
ATOM     30  H7  UNL     1      37.609  29.688  29.771  1.00  0.00     0.187 HD
HETATM   31  O8  UNL     1      35.170  30.135  29.494  1.00  0.00    -0.264 OA
BRANCH  26  32
HETATM   32  N6  UNL     1      39.532  29.726  28.183  1.00  0.00    -0.234 N 
ATOM     33  H62 UNL     1      40.189  29.439  27.458  1.00  0.00     0.174 HD
ATOM     34  H61 UNL     1      39.862  29.802  29.145  1.00  0.00     0.174 HD
ENDBRANCH  26  32
ENDBRANCH  21  22
ENDBRANCH  18  21
ENDBRANCH   1  18
TORSDOF 10
ENDMDL
MODEL 2
REMARK VINA RESULT: -5.837904844      2.973      7.550
REMARK  10 active torsions:
REMARK  status: ('A' for Active; 'I' for Inactive)
REMARK    1  A    between atoms: O1_2  and  N1_3 
REMARK    2  A    between atoms: C5_9  and  O3_10 
REMARK    3  A    between atoms: C5_9  and  C6_12 
REMARK    4  A    between atoms: C6_12  and  O4_13 
REMARK    5  A    between atoms: C6_12  and  C7_15 
REMARK    6  A    between atoms: C7_15  and  N3_16 
REMARK    7  A    between atoms: N3_16  and  S1_18 
REMARK    8  A    between atoms: S1_18  and  O7_21 
REMARK    9  A    between atoms: O7_21  and  C8_22 
REMARK   10  A    between atoms: C10_27  and  N6_28 
ROOT
HETATM    1  N3  UNL     1      37.952  34.876  24.853  1.00  0.00    -0.294 N 
ATOM      2  H3  UNL     1      37.786  34.464  23.934  1.00  0.00     0.174 HD
ENDROOT
BRANCH   1   3
HETATM    3  C7  UNL     1      37.739  34.169  26.074  1.00  0.00     0.171 C 
BRANCH   3   4
HETATM    4  C6  UNL     1      36.307  33.776  26.296  1.00  0.00     0.196 C 
BRANCH   4   5
HETATM    5  C5  UNL     1      36.111  32.288  26.100  1.00  0.00     0.206 C 
HETATM    6  N1  UNL     1      36.224  31.526  27.310  1.00  0.00    -0.167 N 
HETATM    7  C2  UNL     1      34.922  31.550  27.894  1.00  0.00     0.347 C 
HETATM    8  O2  UNL     1      34.609  31.095  29.027  1.00  0.00    -0.245 OA
HETATM    9  N2  UNL     1      34.005  32.173  27.003  1.00  0.00    -0.332 N 
HETATM   10  C3  UNL     1      32.711  32.733  27.372  1.00  0.00     0.154 C 
HETATM   11  C4  UNL     1      34.641  32.113  25.699  1.00  0.00     0.193 C 
BRANCH   6  12
HETATM   12  O1  UNL     1      37.328  30.935  27.762  1.00  0.00    -0.276 OA
HETATM   13  C1  UNL     1      37.312  29.551  27.638  1.00  0.00     0.238 C 
ENDBRANCH   6  12
BRANCH   5  14
HETATM   14  O3  UNL     1      36.862  31.788  25.057  1.00  0.00    -0.365 OA
ATOM     15  H3  UNL     1      37.026  32.419  24.366  1.00  0.00     0.212 HD
ENDBRANCH   5  14
ENDBRANCH   4   5
BRANCH   4  16
HETATM   16  O4  UNL     1      35.550  34.387  25.265  1.00  0.00    -0.389 OA
ATOM     17  H4  UNL     1      34.820  33.799  25.113  1.00  0.00     0.210 HD
ENDBRANCH   4  16
ENDBRANCH   3   4
ENDBRANCH   1   3
BRANCH   1  18
HETATM   18  S1  UNL     1      38.510  36.472  25.070  1.00  0.00     0.363 S 
HETATM   19  O5  UNL     1      40.018  36.465  25.088  1.00  0.00    -0.175 OA
HETATM   20  O6  UNL     1      38.059  37.065  26.373  1.00  0.00    -0.175 OA
BRANCH  18  21
HETATM   21  O7  UNL     1      37.980  37.511  23.837  1.00  0.00    -0.207 OA
BRANCH  21  22
HETATM   22  C8  UNL     1      37.544  37.017  22.616  1.00  0.00     0.200 A 
HETATM   23  C9  UNL     1      38.403  36.899  21.522  1.00  0.00     0.172 A 
HETATM   24  N4  UNL     1      39.760  37.293  21.644  1.00  0.00    -0.079 NA
HETATM   25  N5  UNL     1      37.905  36.409  20.368  1.00  0.00    -0.176 N 
HETATM   26  C10 UNL     1      36.621  36.039  20.251  1.00  0.00     0.680 A 
ATOM     27  H5  UNL     1      38.523  36.318  19.562  1.00  0.00     0.185 HD
HETATM   28  N7  UNL     1      35.817  36.159  21.309  1.00  0.00    -0.154 N 
HETATM   29  C11 UNL     1      36.226  36.637  22.497  1.00  0.00     0.298 A 
ATOM     30  H7  UNL     1      34.842  35.874  21.212  1.00  0.00     0.187 HD
HETATM   31  O8  UNL     1      35.426  36.736  23.479  1.00  0.00    -0.264 OA
BRANCH  26  32
HETATM   32  N6  UNL     1      36.164  35.571  19.120  1.00  0.00    -0.234 N 
ATOM     33  H62 UNL     1      35.202  35.750  18.835  1.00  0.00     0.174 HD
ATOM     34  H61 UNL     1      36.765  35.022  18.505  1.00  0.00     0.174 HD
ENDBRANCH  26  32
ENDBRANCH  21  22
ENDBRANCH  18  21
ENDBRANCH   1  18
TORSDOF 10
ENDMDL
MODEL 3
REMARK VINA RESULT: -5.810014214      2.040      3.600
REMARK  10 active torsions:
REMARK  status: ('A' for Active; 'I' for Inactive)
REMARK    1  A    between atoms: O1_2  and  N1_3 
REMARK    2  A    between atoms: C5_9  and  O3_10 
REMARK    3  A    between atoms: C5_9  and  C6_12 
REMARK    4  A    between atoms: C6_12  and  O4_13 
REMARK    5  A    between atoms: C6_12  and  C7_15 
REMARK    6  A    between atoms: C7_15  and  N3_16 
REMARK    7  A    between atoms: N3_16  and  S1_18 
REMARK    8  A    between atoms: S1_18  and  O7_21 
REMARK    9  A    between atoms: O7_21  and  C8_22 
REMARK   10  A    between atoms: C10_27  and  N6_28 
ROOT
HETATM    1  N3  UNL     1      34.993  36.018  26.193  1.00  0.00    -0.294 N 
ATOM      2  H3  UNL     1      34.442  35.776  27.016  1.00  0.00     0.174 HD
ENDROOT
BRANCH   1   3
HETATM    3  C7  UNL     1      34.965  37.311  25.588  1.00  0.00     0.171 C 
BRANCH   3   4
HETATM    4  C6  UNL     1      35.168  38.433  26.565  1.00  0.00     0.196 C 
BRANCH   4   5
HETATM    5  C5  UNL     1      36.638  38.660  26.841  1.00  0.00     0.206 C 
HETATM    6  N1  UNL     1      37.345  39.264  25.748  1.00  0.00    -0.167 N 
HETATM    7  C2  UNL     1      37.167  40.670  25.915  1.00  0.00     0.347 C 
HETATM    8  O2  UNL     1      37.532  41.565  25.105  1.00  0.00    -0.245 OA
HETATM    9  N2  UNL     1      36.506  40.930  27.148  1.00  0.00    -0.332 N 
HETATM   10  C3  UNL     1      35.808  42.162  27.492  1.00  0.00     0.154 C 
HETATM   11  C4  UNL     1      36.693  39.729  27.940  1.00  0.00     0.193 C 
BRANCH   6  12
HETATM   12  O1  UNL     1      38.014  38.617  24.796  1.00  0.00    -0.276 OA
HETATM   13  C1  UNL     1      39.394  38.682  24.941  1.00  0.00     0.238 C 
ENDBRANCH   6  12
BRANCH   5  14
HETATM   14  O3  UNL     1      37.260  37.541  27.353  1.00  0.00    -0.365 OA
ATOM     15  H3  UNL     1      36.704  37.018  27.919  1.00  0.00     0.212 HD
ENDBRANCH   5  14
ENDBRANCH   4   5
BRANCH   4  16
HETATM   16  O4  UNL     1      34.622  38.004  27.801  1.00  0.00    -0.389 OA
ATOM     17  H4  UNL     1      33.785  37.613  27.580  1.00  0.00     0.210 HD
ENDBRANCH   4  16
ENDBRANCH   3   4
ENDBRANCH   1   3
BRANCH   1  18
HETATM   18  S1  UNL     1      36.035  34.917  25.413  1.00  0.00     0.363 S 
HETATM   19  O5  UNL     1      37.309  34.798  26.211  1.00  0.00    -0.175 OA
HETATM   20  O6  UNL     1      36.421  35.371  24.035  1.00  0.00    -0.175 OA
BRANCH  18  21
HETATM   21  O7  UNL     1      35.339  33.377  25.255  1.00  0.00    -0.207 OA
BRANCH  21  22
HETATM   22  C8  UNL     1      35.506  32.407  26.235  1.00  0.00     0.200 A 
HETATM   23  C9  UNL     1      36.499  31.431  26.138  1.00  0.00     0.172 A 
HETATM   24  N4  UNL     1      37.366  31.413  25.016  1.00  0.00    -0.079 NA
HETATM   25  N5  UNL     1      36.600  30.522  27.130  1.00  0.00    -0.176 N 
HETATM   26  C10 UNL     1      35.778  30.536  28.191  1.00  0.00     0.680 A 
ATOM     27  H5  UNL     1      37.322  29.804  27.072  1.00  0.00     0.185 HD
HETATM   28  N7  UNL     1      34.837  31.479  28.263  1.00  0.00    -0.154 N 
HETATM   29  C11 UNL     1      34.663  32.423  27.322  1.00  0.00     0.298 A 
ATOM     30  H7  UNL     1      34.216  31.483  29.073  1.00  0.00     0.187 HD
HETATM   31  O8  UNL     1      33.752  33.302  27.430  1.00  0.00    -0.264 OA
BRANCH  26  32
HETATM   32  N6  UNL     1      35.896  29.641  29.135  1.00  0.00    -0.234 N 
ATOM     33  H62 UNL     1      36.627  29.725  29.841  1.00  0.00     0.174 HD
ATOM     34  H61 UNL     1      35.258  28.847  29.180  1.00  0.00     0.174 HD
ENDBRANCH  26  32
ENDBRANCH  21  22
ENDBRANCH  18  21
ENDBRANCH   1  18
TORSDOF 10
ENDMDL
MODEL 4
REMARK VINA RESULT: -5.795995417      2.955      7.565
REMARK  10 active torsions:
REMARK  status: ('A' for Active; 'I' for Inactive)
REMARK    1  A    between atoms: O1_2  and  N1_3 
REMARK    2  A    between atoms: C5_9  and  O3_10 
REMARK    3  A    between atoms: C5_9  and  C6_12 
REMARK    4  A    between atoms: C6_12  and  O4_13 
REMARK    5  A    between atoms: C6_12  and  C7_15 
REMARK    6  A    between atoms: C7_15  and  N3_16 
REMARK    7  A    between atoms: N3_16  and  S1_18 
REMARK    8  A    between atoms: S1_18  and  O7_21 
REMARK    9  A    between atoms: O7_21  and  C8_22 
REMARK   10  A    between atoms: C10_27  and  N6_28 
ROOT
HETATM    1  N3  UNL     1      38.067  34.733  25.007  1.00  0.00    -0.294 N 
ATOM      2  H3  UNL     1      38.001  34.348  24.065  1.00  0.00     0.174 HD
ENDROOT
BRANCH   1   3
HETATM    3  C7  UNL     1      37.753  33.983  26.180  1.00  0.00     0.171 C 
BRANCH   3   4
HETATM    4  C6  UNL     1      36.290  33.674  26.318  1.00  0.00     0.196 C 
BRANCH   4   5
HETATM    5  C5  UNL     1      36.023  32.196  26.133  1.00  0.00     0.206 C 
HETATM    6  N1  UNL     1      36.113  31.436  27.347  1.00  0.00    -0.167 N 
HETATM    7  C2  UNL     1      34.819  31.524  27.943  1.00  0.00     0.347 C 
HETATM    8  O2  UNL     1      34.497  31.091  29.082  1.00  0.00    -0.245 OA
HETATM    9  N2  UNL     1      33.923  32.184  27.057  1.00  0.00    -0.332 N 
HETATM   10  C3  UNL     1      32.660  32.806  27.436  1.00  0.00     0.154 C 
HETATM   11  C4  UNL     1      34.542  32.087  25.748  1.00  0.00     0.193 C 
BRANCH   6  12
HETATM   12  O1  UNL     1      37.192  30.796  27.792  1.00  0.00    -0.276 OA
HETATM   13  C1  UNL     1      37.102  29.413  27.694  1.00  0.00     0.238 C 
ENDBRANCH   6  12
BRANCH   5  14
HETATM   14  O3  UNL     1      36.739  31.654  25.086  1.00  0.00    -0.365 OA
ATOM     15  H3  UNL     1      36.216  31.487  24.311  1.00  0.00     0.212 HD
ENDBRANCH   5  14
ENDBRANCH   4   5
BRANCH   4  16
HETATM   16  O4  UNL     1      35.634  34.306  25.233  1.00  0.00    -0.389 OA
ATOM     17  H4  UNL     1      36.016  35.174  25.184  1.00  0.00     0.210 HD
ENDBRANCH   4  16
ENDBRANCH   3   4
ENDBRANCH   1   3
BRANCH   1  18
HETATM   18  S1  UNL     1      38.564  36.332  25.326  1.00  0.00     0.363 S 
HETATM   19  O5  UNL     1      40.063  36.356  25.488  1.00  0.00    -0.175 OA
HETATM   20  O6  UNL     1      37.977  36.872  26.598  1.00  0.00    -0.175 OA
BRANCH  18  21
HETATM   21  O7  UNL     1      38.129  37.400  24.081  1.00  0.00    -0.207 OA
BRANCH  21  22
HETATM   22  C8  UNL     1      37.586  36.937  22.890  1.00  0.00     0.200 A 
HETATM   23  C9  UNL     1      36.209  36.779  22.724  1.00  0.00     0.172 A 
HETATM   24  N4  UNL     1      35.328  37.094  23.790  1.00  0.00    -0.079 NA
HETATM   25  N5  UNL     1      35.758  36.324  21.537  1.00  0.00    -0.176 N 
HETATM   26  C10 UNL     1      36.590  36.023  20.529  1.00  0.00     0.680 A 
ATOM     27  H5  UNL     1      34.753  36.205  21.403  1.00  0.00     0.185 HD
HETATM   28  N7  UNL     1      37.903  36.182  20.710  1.00  0.00    -0.154 N 
HETATM   29  C11 UNL     1      38.442  36.629  21.857  1.00  0.00     0.298 A 
ATOM     30  H7  UNL     1      38.529  35.952  19.938  1.00  0.00     0.187 HD
HETATM   31  O8  UNL     1      39.699  36.764  21.987  1.00  0.00    -0.264 OA
BRANCH  26  32
HETATM   32  N6  UNL     1      36.125  35.580  19.392  1.00  0.00    -0.234 N 
ATOM     33  H62 UNL     1      36.470  34.705  18.996  1.00  0.00     0.174 HD
ATOM     34  H61 UNL     1      35.410  36.101  18.885  1.00  0.00     0.174 HD
ENDBRANCH  26  32
ENDBRANCH  21  22
ENDBRANCH  18  21
ENDBRANCH   1  18
TORSDOF 10
ENDMDL
MODEL 5
REMARK VINA RESULT: -5.700332193      3.403      7.615
REMARK  10 active torsions:
REMARK  status: ('A' for Active; 'I' for Inactive)
REMARK    1  A    between atoms: O1_2  and  N1_3 
REMARK    2  A    between atoms: C5_9  and  O3_10 
REMARK    3  A    between atoms: C5_9  and  C6_12 
REMARK    4  A    between atoms: C6_12  and  O4_13 
REMARK    5  A    between atoms: C6_12  and  C7_15 
REMARK    6  A    between atoms: C7_15  and  N3_16 
REMARK    7  A    between atoms: N3_16  and  S1_18 
REMARK    8  A    between atoms: S1_18  and  O7_21 
REMARK    9  A    between atoms: O7_21  and  C8_22 
REMARK   10  A    between atoms: C10_27  and  N6_28 
ROOT
HETATM    1  N3  UNL     1      37.841  35.549  25.504  1.00  0.00    -0.294 N 
ATOM      2  H3  UNL     1      37.375  36.427  25.734  1.00  0.00     0.174 HD
ENDROOT
BRANCH   1   3
HETATM    3  C7  UNL     1      37.643  34.344  26.243  1.00  0.00     0.171 C 
BRANCH   3   4
HETATM    4  C6  UNL     1      36.210  33.901  26.293  1.00  0.00     0.196 C 
BRANCH   4   5
HETATM    5  C5  UNL     1      36.090  32.409  26.072  1.00  0.00     0.206 C 
HETATM    6  N1  UNL     1      36.213  31.634  27.273  1.00  0.00    -0.167 N 
HETATM    7  C2  UNL     1      34.899  31.588  27.829  1.00  0.00     0.347 C 
HETATM    8  O2  UNL     1      34.585  31.102  28.949  1.00  0.00    -0.245 OA
HETATM    9  N2  UNL     1      33.973  32.180  26.927  1.00  0.00    -0.332 N 
HETATM   10  C3  UNL     1      32.646  32.672  27.275  1.00  0.00     0.154 C 
HETATM   11  C4  UNL     1      34.638  32.170  25.637  1.00  0.00     0.193 C 
BRANCH   6  12
HETATM   12  O1  UNL     1      37.334  31.090  27.742  1.00  0.00    -0.276 OA
HETATM   13  C1  UNL     1      37.400  29.712  27.571  1.00  0.00     0.238 C 
ENDBRANCH   6  12
BRANCH   5  14
HETATM   14  O3  UNL     1      36.886  31.960  25.039  1.00  0.00    -0.365 OA
ATOM     15  H3  UNL     1      37.768  32.312  25.055  1.00  0.00     0.212 HD
ENDBRANCH   5  14
ENDBRANCH   4   5
BRANCH   4  16
HETATM   16  O4  UNL     1      35.560  34.492  25.181  1.00  0.00    -0.389 OA
ATOM     17  H4  UNL     1      35.794  35.412  25.218  1.00  0.00     0.210 HD
ENDBRANCH   4  16
ENDBRANCH   3   4
ENDBRANCH   1   3
BRANCH   1  18
HETATM   18  S1  UNL     1      38.927  35.386  24.201  1.00  0.00     0.363 S 
HETATM   19  O5  UNL     1      38.738  34.028  23.572  1.00  0.00    -0.175 OA
HETATM   20  O6  UNL     1      40.362  35.471  24.635  1.00  0.00    -0.175 OA
BRANCH  18  21
HETATM   21  O7  UNL     1      38.692  36.578  23.015  1.00  0.00    -0.207 OA
BRANCH  21  22
HETATM   22  C8  UNL     1      38.029  36.293  21.829  1.00  0.00     0.200 A 
HETATM   23  C9  UNL     1      38.722  36.006  20.652  1.00  0.00     0.172 A 
HETATM   24  N4  UNL     1      40.140  36.003  20.650  1.00  0.00    -0.079 NA
HETATM   25  N5  UNL     1      38.008  35.740  19.539  1.00  0.00    -0.176 N 
HETATM   26  C10 UNL     1      36.666  35.745  19.540  1.00  0.00     0.680 A 
ATOM     27  H5  UNL     1      38.502  35.528  18.673  1.00  0.00     0.185 HD
HETATM   28  N7  UNL     1      36.024  36.022  20.676  1.00  0.00    -0.154 N 
HETATM   29  C11 UNL     1      36.653  36.299  21.831  1.00  0.00     0.298 A 
ATOM     30  H7  UNL     1      35.004  36.023  20.669  1.00  0.00     0.187 HD
HETATM   31  O8  UNL     1      36.002  36.559  22.891  1.00  0.00    -0.264 OA
BRANCH  26  32
HETATM   32  N6  UNL     1      36.000  35.487  18.446  1.00  0.00    -0.234 N 
ATOM     33  H62 UNL     1      36.486  35.193  17.599  1.00  0.00     0.174 HD
ATOM     34  H61 UNL     1      34.984  35.575  18.424  1.00  0.00     0.174 HD
ENDBRANCH  26  32
ENDBRANCH  21  22
ENDBRANCH  18  21
ENDBRANCH   1  18
TORSDOF 10
ENDMDL
