MODEL 1
REMARK VINA RESULT: -5.301679232      0.000      0.000
REMARK  10 active torsions:
REMARK  status: ('A' for Active; 'I' for Inactive)
REMARK    1  A    between atoms: N1_1  and  C1_4 
REMARK    2  A    between atoms: C2_7  and  S1_8 
REMARK    3  A    between atoms: S1_8  and  N3_9 
REMARK    4  A    between atoms: N4_13  and  C3_14 
REMARK    5  A    between atoms: C5_19  and  N6_20 
REMARK    6  A    between atoms: N6_20  and  S2_22 
REMARK    7  A    between atoms: S2_22  and  C6_25 
REMARK    8  A    between atoms: C6_25  and  C7_26 
REMARK    9  A    between atoms: C7_26  and  N7_27 
REMARK   10  A    between atoms: C9_32  and  O4_33 
ROOT
HETATM    1  C3  UNL     1      37.035  37.022  25.212  1.00  0.00     0.325 C 
HETATM    2  N5  UNL     1      37.783  36.361  26.272  1.00  0.00    -0.049 N 
ATOM      3  H51 UNL     1      37.301  36.445  27.167  1.00  0.00     0.279 HD
ATOM      4  H52 UNL     1      38.634  36.877  26.495  1.00  0.00     0.279 HD
HETATM    5  C4  UNL     1      38.075  34.993  25.971  1.00  0.00     0.260 C 
HETATM    6  C5  UNL     1      36.804  34.153  25.737  1.00  0.00     0.121 C 
HETATM    7  C8  UNL     1      35.664  35.105  26.061  1.00  0.00     0.063 C 
HETATM    8  C9  UNL     1      35.689  36.326  25.179  1.00  0.00     0.171 C 
ENDROOT
BRANCH   1   9
HETATM    9  N4  UNL     1      37.009  38.409  25.474  1.00  0.00    -0.243 N 
HETATM   10  C2  UNL     1      37.227  39.259  24.460  1.00  0.00     0.218 A 
HETATM   11  N2  UNL     1      37.196  40.609  24.715  1.00  0.00    -0.166 N 
HETATM   12  C1  UNL     1      36.957  41.105  25.935  1.00  0.00     0.682 A 
ATOM     13  H2  UNL     1      37.361  41.258  23.945  1.00  0.00     0.186 HD
HETATM   14  N8  UNL     1      36.740  40.252  26.942  1.00  0.00    -0.141 N 
HETATM   15  C10 UNL     1      36.773  38.933  26.677  1.00  0.00     0.344 A 
ATOM     16  H8  UNL     1      36.554  40.591  27.885  1.00  0.00     0.189 HD
HETATM   17  O5  UNL     1      36.568  38.166  27.639  1.00  0.00    -0.246 OA
BRANCH  10  18
HETATM   18  S1  UNL     1      37.540  38.786  22.884  1.00  0.00     0.180 S 
HETATM   19  O1  UNL     1      36.650  37.813  22.011  1.00  0.00    -0.227 OA
BRANCH  18  20
HETATM   20  N3  UNL     1      38.076  40.135  21.953  1.00  0.00    -0.343 N 
ATOM     21  H32 UNL     1      37.710  41.009  22.332  1.00  0.00     0.167 HD
ATOM     22  H31 UNL     1      39.027  39.977  21.619  1.00  0.00     0.167 HD
ENDBRANCH  18  20
ENDBRANCH  10  18
BRANCH  12  23
HETATM   23  N1  UNL     1      36.922  42.365  26.198  1.00  0.00    -0.234 N 
ATOM     24  H12 UNL     1      36.013  42.826  26.199  1.00  0.00     0.174 HD
ATOM     25  H11 UNL     1      37.751  42.922  26.404  1.00  0.00     0.174 HD
ENDBRANCH  12  23
ENDBRANCH   1   9
BRANCH   8  26
HETATM   26  O4  UNL     1      35.425  35.820  23.880  1.00  0.00    -0.392 OA
ATOM     27  H4  UNL     1      35.714  34.918  23.811  1.00  0.00     0.210 HD
ENDBRANCH   8  26
BRANCH   6  28
HETATM   28  N6  UNL     1      36.735  33.077  26.672  1.00  0.00    -0.313 N 
ATOM     29  H6  UNL     1      37.428  32.942  27.409  1.00  0.00     0.172 HD
BRANCH  28  30
HETATM   30  S2  UNL     1      35.421  32.048  26.463  1.00  0.00     0.228 S 
HETATM   31  O2  UNL     1      36.008  30.638  26.226  1.00  0.00    -0.206 OA
HETATM   32  O3  UNL     1      34.652  32.417  25.176  1.00  0.00    -0.206 OA
BRANCH  30  33
HETATM   33  C6  UNL     1      34.250  31.931  27.735  1.00  0.00     0.190 C 
BRANCH  33  34
HETATM   34  C7  UNL     1      33.227  33.008  27.845  1.00  0.00     0.246 C 
BRANCH  34  35
HETATM   35  N7  UNL     1      32.236  32.811  26.761  1.00  0.00    -0.078 N 
ATOM     36  H73 UNL     1      32.438  33.375  25.936  1.00  0.00     0.274 HD
ATOM     37  H72 UNL     1      32.309  31.894  26.321  1.00  0.00     0.274 HD
ATOM     38  H71 UNL     1      31.308  32.992  27.145  1.00  0.00     0.274 HD
ENDBRANCH  34  35
ENDBRANCH  33  34
ENDBRANCH  30  33
ENDBRANCH  28  30
ENDBRANCH   6  28
TORSDOF 10
ENDMDL
MODEL 2
REMARK VINA RESULT: -5.233431409      2.438      3.163
REMARK  10 active torsions:
REMARK  status: ('A' for Active; 'I' for Inactive)
REMARK    1  A    between atoms: N1_1  and  C1_4 
REMARK    2  A    between atoms: C2_7  and  S1_8 
REMARK    3  A    between atoms: S1_8  and  N3_9 
REMARK    4  A    between atoms: N4_13  and  C3_14 
REMARK    5  A    between atoms: C5_19  and  N6_20 
REMARK    6  A    between atoms: N6_20  and  S2_22 
REMARK    7  A    between atoms: S2_22  and  C6_25 
REMARK    8  A    between atoms: C6_25  and  C7_26 
REMARK    9  A    between atoms: C7_26  and  N7_27 
REMARK   10  A    between atoms: C9_32  and  O4_33 
ROOT
HETATM    1  C3  UNL     1      37.370  37.066  22.918  1.00  0.00     0.325 C 
HETATM    2  N5  UNL     1      37.857  36.841  24.272  1.00  0.00    -0.049 N 
ATOM      3  H51 UNL     1      37.504  37.554  24.911  1.00  0.00     0.279 HD
ATOM      4  H52 UNL     1      38.855  37.040  24.339  1.00  0.00     0.279 HD
HETATM    5  C4  UNL     1      37.562  35.527  24.754  1.00  0.00     0.260 C 
HETATM    6  C5  UNL     1      36.050  35.228  24.774  1.00  0.00     0.121 C 
HETATM    7  C8  UNL     1      35.405  36.548  24.384  1.00  0.00     0.063 C 
HETATM    8  C9  UNL     1      35.859  37.010  23.024  1.00  0.00     0.171 C 
ENDROOT
BRANCH   1   9
HETATM    9  N4  UNL     1      37.914  38.276  22.437  1.00  0.00    -0.243 N 
HETATM   10  C2  UNL     1      38.415  38.306  21.193  1.00  0.00     0.218 A 
HETATM   11  N2  UNL     1      38.938  39.487  20.724  1.00  0.00    -0.166 N 
HETATM   12  C1  UNL     1      38.967  40.604  21.460  1.00  0.00     0.682 A 
ATOM     13  H2  UNL     1      39.319  39.512  19.777  1.00  0.00     0.186 HD
HETATM   14  N8  UNL     1      38.465  40.567  22.699  1.00  0.00    -0.141 N 
HETATM   15  C10 UNL     1      37.956  39.405  23.146  1.00  0.00     0.344 A 
ATOM     16  H8  UNL     1      38.469  41.398  23.290  1.00  0.00     0.189 HD
HETATM   17  O5  UNL     1      37.498  39.405  24.306  1.00  0.00    -0.246 OA
BRANCH  10  18
HETATM   18  S1  UNL     1      38.448  36.989  20.159  1.00  0.00     0.180 S 
HETATM   19  O1  UNL     1      39.191  35.619  20.422  1.00  0.00    -0.227 OA
BRANCH  18  20
HETATM   20  N3  UNL     1      36.884  36.724  19.483  1.00  0.00    -0.343 N 
ATOM     21  H32 UNL     1      36.833  37.081  18.529  1.00  0.00     0.167 HD
ATOM     22  H31 UNL     1      36.504  35.836  19.813  1.00  0.00     0.167 HD
ENDBRANCH  18  20
ENDBRANCH  10  18
BRANCH  12  23
HETATM   23  N1  UNL     1      39.451  41.721  21.041  1.00  0.00    -0.234 N 
ATOM     24  H12 UNL     1      39.685  41.797  20.052  1.00  0.00     0.174 HD
ATOM     25  H11 UNL     1      39.613  42.527  21.644  1.00  0.00     0.174 HD
ENDBRANCH  12  23
ENDBRANCH   1   9
BRANCH   8  26
HETATM   26  O4  UNL     1      35.336  36.036  22.135  1.00  0.00    -0.392 OA
ATOM     27  H4  UNL     1      35.349  36.361  21.243  1.00  0.00     0.210 HD
ENDBRANCH   8  26
BRANCH   6  28
HETATM   28  N6  UNL     1      35.617  34.920  26.099  1.00  0.00    -0.313 N 
ATOM     29  H6  UNL     1      35.477  35.635  26.813  1.00  0.00     0.172 HD
BRANCH  28  30
HETATM   30  S2  UNL     1      35.356  33.284  26.390  1.00  0.00     0.228 S 
HETATM   31  O2  UNL     1      36.711  32.707  26.859  1.00  0.00    -0.206 OA
HETATM   32  O3  UNL     1      35.009  32.555  25.074  1.00  0.00    -0.206 OA
BRANCH  30  33
HETATM   33  C6  UNL     1      34.152  32.831  27.551  1.00  0.00     0.190 C 
BRANCH  33  34
HETATM   34  C7  UNL     1      34.276  31.497  28.202  1.00  0.00     0.246 C 
BRANCH  34  35
HETATM   35  N7  UNL     1      34.906  30.571  27.232  1.00  0.00    -0.078 N 
ATOM     36  H73 UNL     1      34.390  29.696  27.131  1.00  0.00     0.274 HD
ATOM     37  H72 UNL     1      34.822  30.892  26.268  1.00  0.00     0.274 HD
ATOM     38  H71 UNL     1      35.874  30.427  27.517  1.00  0.00     0.274 HD
ENDBRANCH  34  35
ENDBRANCH  33  34
ENDBRANCH  30  33
ENDBRANCH  28  30
ENDBRANCH   6  28
TORSDOF 10
ENDMDL
MODEL 3
REMARK VINA RESULT: -4.927313168      2.339      2.679
REMARK  10 active torsions:
REMARK  status: ('A' for Active; 'I' for Inactive)
REMARK    1  A    between atoms: N1_1  and  C1_4 
REMARK    2  A    between atoms: C2_7  and  S1_8 
REMARK    3  A    between atoms: S1_8  and  N3_9 
REMARK    4  A    between atoms: N4_13  and  C3_14 
REMARK    5  A    between atoms: C5_19  and  N6_20 
REMARK    6  A    between atoms: N6_20  and  S2_22 
REMARK    7  A    between atoms: S2_22  and  C6_25 
REMARK    8  A    between atoms: C6_25  and  C7_26 
REMARK    9  A    between atoms: C7_26  and  N7_27 
REMARK   10  A    between atoms: C9_32  and  O4_33 
ROOT
HETATM    1  C3  UNL     1      37.763  36.059  23.737  1.00  0.00     0.325 C 
HETATM    2  N5  UNL     1      38.902  35.481  24.435  1.00  0.00    -0.049 N 
ATOM      3  H51 UNL     1      39.096  35.985  25.301  1.00  0.00     0.279 HD
ATOM      4  H52 UNL     1      39.771  35.669  23.936  1.00  0.00     0.279 HD
HETATM    5  C4  UNL     1      38.745  34.080  24.682  1.00  0.00     0.260 C 
HETATM    6  C5  UNL     1      37.499  33.763  25.532  1.00  0.00     0.121 C 
HETATM    7  C8  UNL     1      36.956  35.129  25.919  1.00  0.00     0.063 C 
HETATM    8  C9  UNL     1      36.604  35.953  24.708  1.00  0.00     0.171 C 
ENDROOT
BRANCH   1   9
HETATM    9  N4  UNL     1      38.104  37.364  23.320  1.00  0.00    -0.243 N 
HETATM   10  C2  UNL     1      37.826  37.728  22.059  1.00  0.00     0.218 A 
HETATM   11  N2  UNL     1      38.153  39.000  21.655  1.00  0.00    -0.166 N 
HETATM   12  C1  UNL     1      38.737  39.886  22.471  1.00  0.00     0.682 A 
ATOM     13  H2  UNL     1      37.942  39.280  20.697  1.00  0.00     0.186 HD
HETATM   14  N8  UNL     1      39.011  39.516  23.726  1.00  0.00    -0.141 N 
HETATM   15  C10 UNL     1      38.686  38.268  24.108  1.00  0.00     0.344 A 
ATOM     16  H8  UNL     1      39.455  40.163  24.377  1.00  0.00     0.189 HD
HETATM   17  O5  UNL     1      38.956  37.956  25.285  1.00  0.00    -0.246 OA
BRANCH  10  18
HETATM   18  S1  UNL     1      37.100  36.729  20.928  1.00  0.00     0.180 S 
HETATM   19  O1  UNL     1      35.774  35.894  21.139  1.00  0.00    -0.227 OA
BRANCH  18  20
HETATM   20  N3  UNL     1      37.116  37.479  19.374  1.00  0.00    -0.343 N 
ATOM     21  H32 UNL     1      37.684  36.943  18.717  1.00  0.00     0.167 HD
ATOM     22  H31 UNL     1      36.209  37.902  19.178  1.00  0.00     0.167 HD
ENDBRANCH  18  20
ENDBRANCH  10  18
BRANCH  12  23
HETATM   23  N1  UNL     1      39.052  41.083  22.115  1.00  0.00    -0.234 N 
ATOM     24  H12 UNL     1      38.295  41.746  21.954  1.00  0.00     0.174 HD
ATOM     25  H11 UNL     1      40.013  41.399  21.986  1.00  0.00     0.174 HD
ENDBRANCH  12  23
ENDBRANCH   1   9
BRANCH   8  26
HETATM   26  O4  UNL     1      35.523  35.251  24.114  1.00  0.00    -0.392 OA
ATOM     27  H4  UNL     1      35.619  34.317  24.253  1.00  0.00     0.210 HD
ENDBRANCH   8  26
BRANCH   6  28
HETATM   28  N6  UNL     1      37.871  33.097  26.739  1.00  0.00    -0.313 N 
ATOM     29  H6  UNL     1      38.551  33.484  27.394  1.00  0.00     0.172 HD
BRANCH  28  30
HETATM   30  S2  UNL     1      37.100  31.625  26.994  1.00  0.00     0.228 S 
HETATM   31  O2  UNL     1      38.030  30.803  27.916  1.00  0.00    -0.206 OA
HETATM   32  O3  UNL     1      36.998  30.836  25.671  1.00  0.00    -0.206 OA
BRANCH  30  33
HETATM   33  C6  UNL     1      35.517  31.631  27.702  1.00  0.00     0.190 C 
BRANCH  33  34
HETATM   34  C7  UNL     1      34.557  32.680  27.260  1.00  0.00     0.246 C 
BRANCH  34  35
HETATM   35  N7  UNL     1      34.448  32.608  25.783  1.00  0.00    -0.078 N 
ATOM     36  H73 UNL     1      34.015  33.439  25.380  1.00  0.00     0.274 HD
ATOM     37  H72 UNL     1      35.352  32.684  25.316  1.00  0.00     0.274 HD
ATOM     38  H71 UNL     1      33.953  31.749  25.545  1.00  0.00     0.274 HD
ENDBRANCH  34  35
ENDBRANCH  33  34
ENDBRANCH  30  33
ENDBRANCH  28  30
ENDBRANCH   6  28
TORSDOF 10
ENDMDL
MODEL 4
REMARK VINA RESULT: -4.894799790      1.358      1.590
REMARK  10 active torsions:
REMARK  status: ('A' for Active; 'I' for Inactive)
REMARK    1  A    between atoms: N1_1  and  C1_4 
REMARK    2  A    between atoms: C2_7  and  S1_8 
REMARK    3  A    between atoms: S1_8  and  N3_9 
REMARK    4  A    between atoms: N4_13  and  C3_14 
REMARK    5  A    between atoms: C5_19  and  N6_20 
REMARK    6  A    between atoms: N6_20  and  S2_22 
REMARK    7  A    between atoms: S2_22  and  C6_25 
REMARK    8  A    between atoms: C6_25  and  C7_26 
REMARK    9  A    between atoms: C7_26  and  N7_27 
REMARK   10  A    between atoms: C9_32  and  O4_33 
ROOT
HETATM    1  C3  UNL     1      37.048  36.978  25.218  1.00  0.00     0.325 C 
HETATM    2  N5  UNL     1      37.825  36.329  26.265  1.00  0.00    -0.049 N 
ATOM      3  H51 UNL     1      37.364  36.417  27.171  1.00  0.00     0.279 HD
ATOM      4  H52 UNL     1      38.678  36.850  26.464  1.00  0.00     0.279 HD
HETATM    5  C4  UNL     1      38.116  34.960  25.968  1.00  0.00     0.260 C 
HETATM    6  C5  UNL     1      36.845  34.112  25.770  1.00  0.00     0.121 C 
HETATM    7  C8  UNL     1      35.708  35.061  26.115  1.00  0.00     0.063 C 
HETATM    8  C9  UNL     1      35.706  36.275  25.224  1.00  0.00     0.171 C 
ENDROOT
BRANCH   1   9
HETATM    9  N4  UNL     1      37.021  38.367  25.471  1.00  0.00    -0.243 N 
HETATM   10  C2  UNL     1      37.209  39.211  24.445  1.00  0.00     0.218 A 
HETATM   11  N2  UNL     1      37.177  40.562  24.691  1.00  0.00    -0.166 N 
HETATM   12  C1  UNL     1      36.966  41.066  25.913  1.00  0.00     0.682 A 
ATOM     13  H2  UNL     1      37.318  41.206  23.912  1.00  0.00     0.186 HD
HETATM   14  N8  UNL     1      36.779  40.219  26.931  1.00  0.00    -0.141 N 
HETATM   15  C10 UNL     1      36.813  38.899  26.676  1.00  0.00     0.344 A 
ATOM     16  H8  UNL     1      36.615  40.565  27.876  1.00  0.00     0.189 HD
HETATM   17  O5  UNL     1      36.636  38.138  27.648  1.00  0.00    -0.246 OA
BRANCH  10  18
HETATM   18  S1  UNL     1      37.484  38.727  22.866  1.00  0.00     0.180 S 
HETATM   19  O1  UNL     1      36.580  37.740  22.024  1.00  0.00    -0.227 OA
BRANCH  18  20
HETATM   20  N3  UNL     1      37.985  40.072  21.910  1.00  0.00    -0.343 N 
ATOM     21  H32 UNL     1      38.878  40.442  22.239  1.00  0.00     0.167 HD
ATOM     22  H31 UNL     1      37.716  39.932  20.936  1.00  0.00     0.167 HD
ENDBRANCH  18  20
ENDBRANCH  10  18
BRANCH  12  23
HETATM   23  N1  UNL     1      36.931  42.328  26.167  1.00  0.00    -0.234 N 
ATOM     24  H12 UNL     1      36.018  42.758  26.315  1.00  0.00     0.174 HD
ATOM     25  H11 UNL     1      37.762  42.914  26.228  1.00  0.00     0.174 HD
ENDBRANCH  12  23
ENDBRANCH   1   9
BRANCH   8  26
HETATM   26  O4  UNL     1      35.413  35.758  23.935  1.00  0.00    -0.392 OA
ATOM     27  H4  UNL     1      35.903  36.227  23.270  1.00  0.00     0.210 HD
ENDBRANCH   8  26
BRANCH   6  28
HETATM   28  N6  UNL     1      36.804  33.042  26.715  1.00  0.00    -0.313 N 
ATOM     29  H6  UNL     1      37.532  32.897  27.414  1.00  0.00     0.172 HD
BRANCH  28  30
HETATM   30  S2  UNL     1      35.458  32.042  26.584  1.00  0.00     0.228 S 
HETATM   31  O2  UNL     1      34.762  32.425  25.258  1.00  0.00    -0.206 OA
HETATM   32  O3  UNL     1      34.447  32.353  27.708  1.00  0.00    -0.206 OA
BRANCH  30  33
HETATM   33  C6  UNL     1      35.700  30.325  26.582  1.00  0.00     0.190 C 
BRANCH  33  34
HETATM   34  C7  UNL     1      36.400  29.716  27.747  1.00  0.00     0.246 C 
BRANCH  34  35
HETATM   35  N7  UNL     1      35.622  30.035  28.967  1.00  0.00    -0.078 N 
ATOM     36  H73 UNL     1      35.311  31.006  28.995  1.00  0.00     0.274 HD
ATOM     37  H72 UNL     1      34.700  29.597  28.973  1.00  0.00     0.274 HD
ATOM     38  H71 UNL     1      36.185  29.777  29.777  1.00  0.00     0.274 HD
ENDBRANCH  34  35
ENDBRANCH  33  34
ENDBRANCH  30  33
ENDBRANCH  28  30
ENDBRANCH   6  28
TORSDOF 10
ENDMDL
MODEL 5
REMARK VINA RESULT: -4.880497010      2.459      3.845
REMARK  10 active torsions:
REMARK  status: ('A' for Active; 'I' for Inactive)
REMARK    1  A    between atoms: N1_1  and  C1_4 
REMARK    2  A    between atoms: C2_7  and  S1_8 
REMARK    3  A    between atoms: S1_8  and  N3_9 
REMARK    4  A    between atoms: N4_13  and  C3_14 
REMARK    5  A    between atoms: C5_19  and  N6_20 
REMARK    6  A    between atoms: N6_20  and  S2_22 
REMARK    7  A    between atoms: S2_22  and  C6_25 
REMARK    8  A    between atoms: C6_25  and  C7_26 
REMARK    9  A    between atoms: C7_26  and  N7_27 
REMARK   10  A    between atoms: C9_32  and  O4_33 
ROOT
HETATM    1  C3  UNL     1      36.662  35.643  25.813  1.00  0.00     0.325 C 
HETATM    2  N5  UNL     1      35.534  34.759  25.557  1.00  0.00    -0.049 N 
ATOM      3  H51 UNL     1      35.562  34.395  24.605  1.00  0.00     0.279 HD
ATOM      4  H52 UNL     1      34.661  35.285  25.507  1.00  0.00     0.279 HD
HETATM    5  C4  UNL     1      35.438  33.696  26.510  1.00  0.00     0.260 C 
HETATM    6  C5  UNL     1      36.697  32.807  26.537  1.00  0.00     0.121 C 
HETATM    7  C8  UNL     1      37.550  33.337  25.395  1.00  0.00     0.063 C 
HETATM    8  C9  UNL     1      37.895  34.791  25.586  1.00  0.00     0.171 C 
ENDROOT
BRANCH   1   9
HETATM    9  N4  UNL     1      36.537  36.784  24.993  1.00  0.00    -0.243 N 
HETATM   10  C2  UNL     1      36.845  37.983  25.508  1.00  0.00     0.218 A 
HETATM   11  N2  UNL     1      36.729  39.093  24.707  1.00  0.00    -0.166 N 
HETATM   12  C1  UNL     1      36.320  39.022  23.435  1.00  0.00     0.682 A 
ATOM     13  H2  UNL     1      36.964  40.007  25.097  1.00  0.00     0.186 HD
HETATM   14  N8  UNL     1      36.015  37.824  22.927  1.00  0.00    -0.141 N 
HETATM   15  C10 UNL     1      36.133  36.745  23.723  1.00  0.00     0.344 A 
ATOM     16  H8  UNL     1      35.700  37.729  21.962  1.00  0.00     0.189 HD
HETATM   17  O5  UNL     1      35.839  35.644  23.218  1.00  0.00    -0.246 OA
BRANCH  10  18
HETATM   18  S1  UNL     1      37.369  38.226  27.081  1.00  0.00     0.180 S 
HETATM   19  O1  UNL     1      38.686  37.635  27.725  1.00  0.00    -0.227 OA
BRANCH  18  20
HETATM   20  N3  UNL     1      37.147  39.876  27.534  1.00  0.00    -0.343 N 
ATOM     21  H32 UNL     1      36.301  39.990  28.093  1.00  0.00     0.167 HD
ATOM     22  H31 UNL     1      38.050  40.316  27.713  1.00  0.00     0.167 HD
ENDBRANCH  18  20
ENDBRANCH  10  18
BRANCH  12  23
HETATM   23  N1  UNL     1      36.204  40.048  22.665  1.00  0.00    -0.234 N 
ATOM     24  H12 UNL     1      36.884  40.158  21.913  1.00  0.00     0.174 HD
ATOM     25  H11 UNL     1      35.473  40.751  22.768  1.00  0.00     0.174 HD
ENDBRANCH  12  23
ENDBRANCH   1   9
BRANCH   8  26
HETATM   26  O4  UNL     1      38.724  34.802  26.737  1.00  0.00    -0.392 OA
ATOM     27  H4  UNL     1      38.206  34.658  27.520  1.00  0.00     0.210 HD
ENDBRANCH   8  26
BRANCH   6  28
HETATM   28  N6  UNL     1      36.364  31.455  26.224  1.00  0.00    -0.313 N 
ATOM     29  H6  UNL     1      35.863  31.193  25.374  1.00  0.00     0.172 HD
BRANCH  28  30
HETATM   30  S2  UNL     1      36.861  30.327  27.368  1.00  0.00     0.228 S 
HETATM   31  O2  UNL     1      38.216  30.834  27.914  1.00  0.00    -0.206 OA
HETATM   32  O3  UNL     1      37.151  28.970  26.692  1.00  0.00    -0.206 OA
BRANCH  30  33
HETATM   33  C6  UNL     1      35.826  30.007  28.721  1.00  0.00     0.190 C 
BRANCH  33  34
HETATM   34  C7  UNL     1      36.434  29.405  29.940  1.00  0.00     0.246 C 
BRANCH  34  35
HETATM   35  N7  UNL     1      37.258  28.248  29.516  1.00  0.00    -0.078 N 
ATOM     36  H73 UNL     1      38.052  28.082  30.135  1.00  0.00     0.274 HD
ATOM     37  H72 UNL     1      36.786  27.354  29.657  1.00  0.00     0.274 HD
ATOM     38  H71 UNL     1      37.538  28.397  28.547  1.00  0.00     0.274 HD
ENDBRANCH  34  35
ENDBRANCH  33  34
ENDBRANCH  30  33
ENDBRANCH  28  30
ENDBRANCH   6  28
TORSDOF 10
ENDMDL
