MODEL 1
REMARK VINA RESULT: -6.173417062      0.000      0.000
REMARK  8 active torsions:
REMARK  status: ('A' for Active; 'I' for Inactive)
REMARK       I    between atoms: C1_4  and  N3_6 
REMARK    1  A    between atoms: N3_6  and  C2_8 
REMARK    2  A    between atoms: C2_8  and  C3_9 
REMARK    3  A    between atoms: C2_8  and  C4_12 
REMARK    4  A    between atoms: C4_12  and  N4_14 
REMARK    5  A    between atoms: N4_14  and  N5_16 
REMARK    6  A    between atoms: C9_25  and  O4_26 
REMARK    7  A    between atoms: O4_26  and  N8_27 
REMARK       I    between atoms: N8_27  and  C10_28 
REMARK    8  A    between atoms: C10_28  and  C11_30 
ROOT
HETATM    1  N5  UNL     1      37.788  36.586  24.130  1.00  0.00    -0.247 N 
HETATM    2  C5  UNL     1      38.322  35.416  24.976  1.00  0.00     0.426 C 
HETATM    3  N6  UNL     1      37.429  35.528  26.103  1.00  0.00     0.149 N 
HETATM    4  C6  UNL     1      37.244  36.962  26.192  1.00  0.00     0.357 C 
HETATM    5  C7  UNL     1      36.587  36.867  24.672  1.00  0.00     0.148 C 
HETATM    6  N7  UNL     1      35.412  37.214  24.563  1.00  0.00    -0.251 N 
ATOM      7  H7  UNL     1      34.998  37.501  23.676  1.00  0.00     0.196 HD
HETATM    8  O3  UNL     1      34.675  37.179  25.797  1.00  0.00    -0.274 OA
HETATM    9  C8  UNL     1      35.013  35.814  26.420  1.00  0.00     0.269 C 
HETATM   10  C9  UNL     1      36.046  34.989  25.815  1.00  0.00     0.430 C 
ENDROOT
BRANCH   1  11
HETATM   11  N4  UNL     1      38.411  37.066  23.028  1.00  0.00    -0.286 N 
ATOM     12  H4  UNL     1      39.034  37.853  23.201  1.00  0.00     0.188 HD
BRANCH  11  13
HETATM   13  C4  UNL     1      38.343  36.669  21.718  1.00  0.00     0.126 C 
HETATM   14  S1  UNL     1      39.199  35.616  20.971  1.00  0.00    -0.061 SA
BRANCH  13  15
HETATM   15  C2  UNL     1      37.274  37.513  20.848  1.00  0.00     0.248 C 
BRANCH  15  16
HETATM   16  N3  UNL     1      37.972  37.705  19.586  1.00  0.00    -0.345 N 
HETATM   17  C1  UNL     1      38.117  39.181  19.369  1.00  0.00     0.182 C 
HETATM   18  N1  UNL     1      39.086  39.754  19.969  1.00  0.00    -0.374 N 
HETATM   19  N2  UNL     1      37.101  39.757  18.632  1.00  0.00    -0.064 NA
ATOM     20  H12 UNL     1      39.184  40.758  19.821  1.00  0.00     0.158 HD
ATOM     21  H11 UNL     1      39.836  39.328  20.512  1.00  0.00     0.158 HD
ATOM     22  H3  UNL     1      38.303  36.968  18.962  1.00  0.00     0.163 HD
ENDBRANCH  15  16
BRANCH  15  23
HETATM   23  C3  UNL     1      36.325  36.383  20.709  1.00  0.00     0.203 C 
HETATM   24  O1  UNL     1      36.038  35.958  19.490  1.00  0.00    -0.646 OA
HETATM   25  O2  UNL     1      35.625  35.724  21.702  1.00  0.00    -0.646 OA
ENDBRANCH  15  23
ENDBRANCH  13  15
ENDBRANCH  11  13
ENDBRANCH   1  11
BRANCH  10  26
HETATM   26  O4  UNL     1      36.177  33.732  26.346  1.00  0.00    -0.166 OA
BRANCH  26  27
HETATM   27  N8  UNL     1      35.236  33.081  26.657  1.00  0.00    -0.227 NA
HETATM   28  C10 UNL     1      34.093  32.338  27.018  1.00  0.00     0.419 C 
HETATM   29  O5  UNL     1      32.941  32.449  27.119  1.00  0.00    -0.241 OA
BRANCH  28  30
HETATM   30  C11 UNL     1      34.672  30.961  27.483  1.00  0.00     0.287 C 
HETATM   31  O6  UNL     1      34.841  30.847  28.651  1.00  0.00    -0.640 OA
HETATM   32  O7  UNL     1      34.909  30.033  26.534  1.00  0.00    -0.640 OA
ENDBRANCH  28  30
ENDBRANCH  26  27
ENDBRANCH  10  26
TORSDOF 8
ENDMDL
MODEL 2
REMARK VINA RESULT: -5.777534762      0.999      1.303
REMARK  8 active torsions:
REMARK  status: ('A' for Active; 'I' for Inactive)
REMARK       I    between atoms: C1_4  and  N3_6 
REMARK    1  A    between atoms: N3_6  and  C2_8 
REMARK    2  A    between atoms: C2_8  and  C3_9 
REMARK    3  A    between atoms: C2_8  and  C4_12 
REMARK    4  A    between atoms: C4_12  and  N4_14 
REMARK    5  A    between atoms: N4_14  and  N5_16 
REMARK    6  A    between atoms: C9_25  and  O4_26 
REMARK    7  A    between atoms: O4_26  and  N8_27 
REMARK       I    between atoms: N8_27  and  C10_28 
REMARK    8  A    between atoms: C10_28  and  C11_30 
ROOT
HETATM    1  N5  UNL     1      37.547  36.110  23.483  1.00  0.00    -0.247 N 
HETATM    2  C5  UNL     1      38.154  35.010  24.372  1.00  0.00     0.426 C 
HETATM    3  N6  UNL     1      37.518  35.353  25.621  1.00  0.00     0.149 N 
HETATM    4  C6  UNL     1      37.460  36.798  25.534  1.00  0.00     0.357 C 
HETATM    5  C7  UNL     1      36.504  36.576  24.197  1.00  0.00     0.148 C 
HETATM    6  N7  UNL     1      35.360  37.023  24.264  1.00  0.00    -0.251 N 
ATOM      7  H7  UNL     1      34.798  37.235  23.440  1.00  0.00     0.196 HD
HETATM    8  O3  UNL     1      34.886  37.219  25.607  1.00  0.00    -0.274 OA
HETATM    9  C8  UNL     1      35.243  35.918  26.346  1.00  0.00     0.269 C 
HETATM   10  C9  UNL     1      36.069  34.923  25.681  1.00  0.00     0.430 C 
ENDROOT
BRANCH   1  11
HETATM   11  N4  UNL     1      37.969  36.380  22.225  1.00  0.00    -0.286 N 
ATOM     12  H4  UNL     1      37.998  35.572  21.604  1.00  0.00     0.188 HD
BRANCH  11  13
HETATM   13  C4  UNL     1      38.363  37.559  21.648  1.00  0.00     0.126 C 
HETATM   14  S1  UNL     1      39.488  38.530  22.081  1.00  0.00    -0.061 SA
BRANCH  13  15
HETATM   15  C2  UNL     1      37.432  38.004  20.404  1.00  0.00     0.248 C 
BRANCH  15  16
HETATM   16  N3  UNL     1      38.374  38.692  19.534  1.00  0.00    -0.345 N 
HETATM   17  C1  UNL     1      37.640  39.825  18.879  1.00  0.00     0.182 C 
HETATM   18  N1  UNL     1      37.519  40.896  19.562  1.00  0.00    -0.374 N 
HETATM   19  N2  UNL     1      37.083  39.519  17.654  1.00  0.00    -0.064 NA
ATOM     20  H12 UNL     1      37.021  41.666  19.117  1.00  0.00     0.158 HD
ATOM     21  H11 UNL     1      37.931  41.122  20.467  1.00  0.00     0.158 HD
ATOM     22  H3  UNL     1      39.354  38.449  19.394  1.00  0.00     0.163 HD
ENDBRANCH  15  16
BRANCH  15  23
HETATM   23  C3  UNL     1      37.238  36.620  19.908  1.00  0.00     0.203 C 
HETATM   24  O1  UNL     1      36.023  36.101  19.974  1.00  0.00    -0.646 OA
HETATM   25  O2  UNL     1      38.189  35.742  19.424  1.00  0.00    -0.646 OA
ENDBRANCH  15  23
ENDBRANCH  13  15
ENDBRANCH  11  13
ENDBRANCH   1  11
BRANCH  10  26
HETATM   26  O4  UNL     1      36.212  33.737  26.354  1.00  0.00    -0.166 OA
BRANCH  26  27
HETATM   27  N8  UNL     1      35.280  33.071  26.656  1.00  0.00    -0.227 NA
HETATM   28  C10 UNL     1      34.146  32.309  27.008  1.00  0.00     0.419 C 
HETATM   29  O5  UNL     1      32.995  32.410  27.130  1.00  0.00    -0.241 OA
BRANCH  28  30
HETATM   30  C11 UNL     1      34.739  30.921  27.417  1.00  0.00     0.287 C 
HETATM   31  O6  UNL     1      34.930  30.165  26.524  1.00  0.00    -0.640 OA
HETATM   32  O7  UNL     1      34.994  30.714  28.725  1.00  0.00    -0.640 OA
ENDBRANCH  28  30
ENDBRANCH  26  27
ENDBRANCH  10  26
TORSDOF 8
ENDMDL
MODEL 3
REMARK VINA RESULT: -5.731264816      4.603      9.590
REMARK  8 active torsions:
REMARK  status: ('A' for Active; 'I' for Inactive)
REMARK       I    between atoms: C1_4  and  N3_6 
REMARK    1  A    between atoms: N3_6  and  C2_8 
REMARK    2  A    between atoms: C2_8  and  C3_9 
REMARK    3  A    between atoms: C2_8  and  C4_12 
REMARK    4  A    between atoms: C4_12  and  N4_14 
REMARK    5  A    between atoms: N4_14  and  N5_16 
REMARK    6  A    between atoms: C9_25  and  O4_26 
REMARK    7  A    between atoms: O4_26  and  N8_27 
REMARK       I    between atoms: N8_27  and  C10_28 
REMARK    8  A    between atoms: C10_28  and  C11_30 
ROOT
HETATM    1  N5  UNL     1      36.610  30.393  28.211  1.00  0.00    -0.247 N 
HETATM    2  C5  UNL     1      37.444  30.887  27.015  1.00  0.00     0.426 C 
HETATM    3  N6  UNL     1      36.369  31.267  26.132  1.00  0.00     0.149 N 
HETATM    4  C6  UNL     1      35.365  30.268  26.443  1.00  0.00     0.357 C 
HETATM    5  C7  UNL     1      35.377  30.886  27.982  1.00  0.00     0.148 C 
HETATM    6  N7  UNL     1      34.319  31.367  28.384  1.00  0.00    -0.251 N 
ATOM      7  H7  UNL     1      34.103  31.482  29.374  1.00  0.00     0.196 HD
HETATM    8  O3  UNL     1      33.415  31.753  27.335  1.00  0.00    -0.274 OA
HETATM    9  C8  UNL     1      34.281  32.539  26.337  1.00  0.00     0.269 C 
HETATM   10  C9  UNL     1      35.724  32.578  26.519  1.00  0.00     0.430 C 
ENDROOT
BRANCH   1  11
HETATM   11  N4  UNL     1      37.129  29.724  29.267  1.00  0.00    -0.286 N 
ATOM     12  H4  UNL     1      36.886  30.115  30.178  1.00  0.00     0.188 HD
BRANCH  11  13
HETATM   13  C4  UNL     1      37.926  28.611  29.318  1.00  0.00     0.126 C 
HETATM   14  S1  UNL     1      37.948  27.383  28.376  1.00  0.00    -0.061 SA
BRANCH  13  15
HETATM   15  C2  UNL     1      38.893  28.575  30.612  1.00  0.00     0.248 C 
BRANCH  15  16
HETATM   16  N3  UNL     1      39.707  29.768  30.433  1.00  0.00    -0.345 N 
HETATM   17  C1  UNL     1      41.142  29.336  30.399  1.00  0.00     0.182 C 
HETATM   18  N1  UNL     1      41.578  28.897  29.283  1.00  0.00    -0.374 N 
HETATM   19  N2  UNL     1      41.781  29.361  31.622  1.00  0.00    -0.064 NA
ATOM     20  H12 UNL     1      42.554  28.603  29.260  1.00  0.00     0.158 HD
ATOM     21  H11 UNL     1      41.106  28.878  28.380  1.00  0.00     0.158 HD
ATOM     22  H3  UNL     1      39.363  30.725  30.348  1.00  0.00     0.163 HD
ENDBRANCH  15  16
BRANCH  15  23
HETATM   23  C3  UNL     1      37.805  28.871  31.575  1.00  0.00     0.203 C 
HETATM   24  O1  UNL     1      36.893  27.938  31.788  1.00  0.00    -0.646 OA
HETATM   25  O2  UNL     1      37.564  30.047  32.260  1.00  0.00    -0.646 OA
ENDBRANCH  15  23
ENDBRANCH  13  15
ENDBRANCH  11  13
ENDBRANCH   1  11
BRANCH  10  26
HETATM   26  O4  UNL     1      36.398  33.420  25.673  1.00  0.00    -0.166 OA
BRANCH  26  27
HETATM   27  N8  UNL     1      36.106  34.564  25.563  1.00  0.00    -0.227 NA
HETATM   28  C10 UNL     1      35.747  35.925  25.470  1.00  0.00     0.419 C 
HETATM   29  O5  UNL     1      35.261  36.773  26.097  1.00  0.00    -0.241 OA
BRANCH  28  30
HETATM   30  C11 UNL     1      36.086  36.302  23.990  1.00  0.00     0.287 C 
HETATM   31  O6  UNL     1      35.396  37.134  23.505  1.00  0.00    -0.640 OA
HETATM   32  O7  UNL     1      37.128  35.672  23.410  1.00  0.00    -0.640 OA
ENDBRANCH  28  30
ENDBRANCH  26  27
ENDBRANCH  10  26
TORSDOF 8
ENDMDL
MODEL 4
REMARK VINA RESULT: -5.699394539      4.977     10.334
REMARK  8 active torsions:
REMARK  status: ('A' for Active; 'I' for Inactive)
REMARK       I    between atoms: C1_4  and  N3_6 
REMARK    1  A    between atoms: N3_6  and  C2_8 
REMARK    2  A    between atoms: C2_8  and  C3_9 
REMARK    3  A    between atoms: C2_8  and  C4_12 
REMARK    4  A    between atoms: C4_12  and  N4_14 
REMARK    5  A    between atoms: N4_14  and  N5_16 
REMARK    6  A    between atoms: C9_25  and  O4_26 
REMARK    7  A    between atoms: O4_26  and  N8_27 
REMARK       I    between atoms: N8_27  and  C10_28 
REMARK    8  A    between atoms: C10_28  and  C11_30 
ROOT
HETATM    1  N5  UNL     1      36.736  30.344  28.200  1.00  0.00    -0.247 N 
HETATM    2  C5  UNL     1      37.495  30.836  26.954  1.00  0.00     0.426 C 
HETATM    3  N6  UNL     1      36.365  31.174  26.122  1.00  0.00     0.149 N 
HETATM    4  C6  UNL     1      35.404  30.158  26.503  1.00  0.00     0.357 C 
HETATM    5  C7  UNL     1      35.482  30.803  28.028  1.00  0.00     0.148 C 
HETATM    6  N7  UNL     1      34.435  31.266  28.478  1.00  0.00    -0.251 N 
ATOM      7  H7  UNL     1      34.268  31.394  29.476  1.00  0.00     0.196 HD
HETATM    8  O3  UNL     1      33.468  31.612  27.472  1.00  0.00    -0.274 OA
HETATM    9  C8  UNL     1      34.261  32.401  26.416  1.00  0.00     0.269 C 
HETATM   10  C9  UNL     1      35.710  32.477  26.521  1.00  0.00     0.430 C 
ENDROOT
BRANCH   1  11
HETATM   11  N4  UNL     1      37.326  29.707  29.239  1.00  0.00    -0.286 N 
ATOM     12  H4  UNL     1      37.530  30.302  30.041  1.00  0.00     0.188 HD
BRANCH  11  13
HETATM   13  C4  UNL     1      37.696  28.396  29.391  1.00  0.00     0.126 C 
HETATM   14  S1  UNL     1      37.924  27.314  28.308  1.00  0.00    -0.061 SA
BRANCH  13  15
HETATM   15  C2  UNL     1      37.802  27.937  30.937  1.00  0.00     0.248 C 
BRANCH  15  16
HETATM   16  N3  UNL     1      38.915  27.000  30.914  1.00  0.00    -0.345 N 
HETATM   17  C1  UNL     1      38.650  25.958  31.959  1.00  0.00     0.182 C 
HETATM   18  N1  UNL     1      37.868  25.005  31.630  1.00  0.00    -0.374 N 
HETATM   19  N2  UNL     1      39.201  26.228  33.196  1.00  0.00    -0.064 NA
ATOM     20  H12 UNL     1      37.688  24.297  32.340  1.00  0.00     0.158 HD
ATOM     21  H11 UNL     1      37.461  24.805  30.716  1.00  0.00     0.158 HD
ATOM     22  H3  UNL     1      39.728  27.044  30.299  1.00  0.00     0.163 HD
ENDBRANCH  15  16
BRANCH  15  23
HETATM   23  C3  UNL     1      38.288  29.254  31.413  1.00  0.00     0.203 C 
HETATM   24  O1  UNL     1      39.499  29.639  31.047  1.00  0.00    -0.646 OA
HETATM   25  O2  UNL     1      37.659  30.144  32.263  1.00  0.00    -0.646 OA
ENDBRANCH  15  23
ENDBRANCH  13  15
ENDBRANCH  11  13
ENDBRANCH   1  11
BRANCH  10  26
HETATM   26  O4  UNL     1      36.317  33.320  25.627  1.00  0.00    -0.166 OA
BRANCH  26  27
HETATM   27  N8  UNL     1      36.060  34.476  25.580  1.00  0.00    -0.227 NA
HETATM   28  C10 UNL     1      35.742  35.850  25.562  1.00  0.00     0.419 C 
HETATM   29  O5  UNL     1      35.277  36.676  26.234  1.00  0.00    -0.241 OA
BRANCH  28  30
HETATM   30  C11 UNL     1      36.100  36.299  24.107  1.00  0.00     0.287 C 
HETATM   31  O6  UNL     1      37.040  35.762  23.624  1.00  0.00    -0.640 OA
HETATM   32  O7  UNL     1      35.310  37.228  23.531  1.00  0.00    -0.640 OA
ENDBRANCH  28  30
ENDBRANCH  26  27
ENDBRANCH  10  26
TORSDOF 8
ENDMDL
MODEL 5
REMARK VINA RESULT: -5.694621639      1.904      2.422
REMARK  8 active torsions:
REMARK  status: ('A' for Active; 'I' for Inactive)
REMARK       I    between atoms: C1_4  and  N3_6 
REMARK    1  A    between atoms: N3_6  and  C2_8 
REMARK    2  A    between atoms: C2_8  and  C3_9 
REMARK    3  A    between atoms: C2_8  and  C4_12 
REMARK    4  A    between atoms: C4_12  and  N4_14 
REMARK    5  A    between atoms: N4_14  and  N5_16 
REMARK    6  A    between atoms: C9_25  and  O4_26 
REMARK    7  A    between atoms: O4_26  and  N8_27 
REMARK       I    between atoms: N8_27  and  C10_28 
REMARK    8  A    between atoms: C10_28  and  C11_30 
ROOT
HETATM    1  N5  UNL     1      38.100  36.269  23.360  1.00  0.00    -0.247 N 
HETATM    2  C5  UNL     1      38.635  35.322  24.448  1.00  0.00     0.426 C 
HETATM    3  N6  UNL     1      37.794  35.739  25.544  1.00  0.00     0.149 N 
HETATM    4  C6  UNL     1      37.655  37.158  25.284  1.00  0.00     0.357 C 
HETATM    5  C7  UNL     1      36.932  36.720  23.857  1.00  0.00     0.148 C 
HETATM    6  N7  UNL     1      35.764  37.075  23.706  1.00  0.00    -0.251 N 
ATOM      7  H7  UNL     1      35.321  37.153  22.791  1.00  0.00     0.196 HD
HETATM    8  O3  UNL     1      35.078  37.370  24.935  1.00  0.00    -0.274 OA
HETATM    9  C8  UNL     1      35.403  36.187  25.862  1.00  0.00     0.269 C 
HETATM   10  C9  UNL     1      36.385  35.200  25.443  1.00  0.00     0.430 C 
ENDROOT
BRANCH   1  11
HETATM   11  N4  UNL     1      38.689  36.441  22.154  1.00  0.00    -0.286 N 
ATOM     12  H4  UNL     1      39.666  36.151  22.113  1.00  0.00     0.188 HD
BRANCH  11  13
HETATM   13  C4  UNL     1      38.193  36.940  20.978  1.00  0.00     0.126 C 
HETATM   14  S1  UNL     1      37.639  38.354  20.674  1.00  0.00    -0.061 SA
BRANCH  13  15
HETATM   15  C2  UNL     1      38.102  35.836  19.802  1.00  0.00     0.248 C 
BRANCH  15  16
HETATM   16  N3  UNL     1      38.687  34.659  20.427  1.00  0.00    -0.345 N 
HETATM   17  C1  UNL     1      39.813  34.195  19.553  1.00  0.00     0.182 C 
HETATM   18  N1  UNL     1      40.929  34.797  19.692  1.00  0.00    -0.374 N 
HETATM   19  N2  UNL     1      39.462  33.242  18.617  1.00  0.00    -0.064 NA
ATOM     20  H12 UNL     1      41.695  34.482  19.098  1.00  0.00     0.158 HD
ATOM     21  H11 UNL     1      41.188  35.501  20.383  1.00  0.00     0.158 HD
ATOM     22  H3  UNL     1      38.385  34.228  21.300  1.00  0.00     0.163 HD
ENDBRANCH  15  16
BRANCH  15  23
HETATM   23  C3  UNL     1      36.625  35.731  19.859  1.00  0.00     0.203 C 
HETATM   24  O1  UNL     1      35.950  35.827  18.726  1.00  0.00    -0.646 OA
HETATM   25  O2  UNL     1      35.817  35.602  20.973  1.00  0.00    -0.646 OA
ENDBRANCH  15  23
ENDBRANCH  13  15
ENDBRANCH  11  13
ENDBRANCH   1  11
BRANCH  10  26
HETATM   26  O4  UNL     1      36.502  34.106  26.262  1.00  0.00    -0.166 OA
BRANCH  26  27
HETATM   27  N8  UNL     1      35.661  33.273  26.320  1.00  0.00    -0.227 NA
HETATM   28  C10 UNL     1      34.634  32.310  26.401  1.00  0.00     0.419 C 
HETATM   29  O5  UNL     1      33.525  32.201  26.729  1.00  0.00    -0.241 OA
BRANCH  28  30
HETATM   30  C11 UNL     1      35.329  30.983  25.952  1.00  0.00     0.287 C 
HETATM   31  O6  UNL     1      36.152  31.098  25.107  1.00  0.00    -0.640 OA
HETATM   32  O7  UNL     1      34.951  29.843  26.567  1.00  0.00    -0.640 OA
ENDBRANCH  28  30
ENDBRANCH  26  27
ENDBRANCH  10  26
TORSDOF 8
ENDMDL
