MODEL 1
REMARK VINA RESULT: -6.571925436      0.000      0.000
REMARK  9 active torsions:
REMARK  status: ('A' for Active; 'I' for Inactive)
REMARK    1  A    between atoms: C2_5  and  N3_6 
REMARK    2  A    between atoms: C2_5  and  C8_19 
REMARK    3  A    between atoms: C6_11  and  C7_12 
REMARK    4  A    between atoms: C8_19  and  C9_20 
REMARK    5  A    between atoms: C8_19  and  N7_23 
REMARK    6  A    between atoms: C9_20  and  O3_21 
REMARK    7  A    between atoms: N7_23  and  C10_25 
REMARK    8  A    between atoms: C11_28  and  S1_29 
REMARK    9  A    between atoms: S1_29  and  N9_30 
ROOT
HETATM    1  C1  UNL     1      35.310  38.231  27.656  1.00  0.00     0.258 C 
HETATM    2  N1  UNL     1      35.871  37.928  26.678  1.00  0.00    -0.349 NA
HETATM    3  N2  UNL     1      36.506  37.555  25.547  1.00  0.00    -0.223 N 
ATOM      4  H2  UNL     1      37.111  38.207  25.048  1.00  0.00     0.203 HD
HETATM    5  C2  UNL     1      36.325  36.322  25.100  1.00  0.00     0.134 C 
ENDROOT
BRANCH   5   6
HETATM    6  N3  UNL     1      35.507  35.505  25.810  1.00  0.00    -0.328 N 
HETATM    7  C3  UNL     1      35.389  34.365  26.274  1.00  0.00     0.119 C 
HETATM    8  C4  UNL     1      36.392  33.324  26.122  1.00  0.00     0.048 C 
HETATM    9  N6  UNL     1      34.161  34.124  27.006  1.00  0.00    -0.273 N 
HETATM   10  C5  UNL     1      36.490  32.115  26.715  1.00  0.00     0.010 C 
HETATM   11  C6  UNL     1      35.498  31.611  27.706  1.00  0.00     0.220 C 
HETATM   12  N4  UNL     1      34.194  31.784  27.093  1.00  0.00    -0.106 NA
HETATM   13  N5  UNL     1      33.564  32.964  27.482  1.00  0.00    -0.029 NA
ATOM     14  H6  UNL     1      33.631  34.971  27.210  1.00  0.00     0.185 HD
ATOM     15  H3  UNL     1      34.669  36.032  26.055  1.00  0.00     0.169 HD
BRANCH  11  16
HETATM   16  C7  UNL     1      35.757  30.222  28.103  1.00  0.00     0.198 C 
HETATM   17  O1  UNL     1      36.020  29.360  27.193  1.00  0.00    -0.646 OA
HETATM   18  O2  UNL     1      35.738  29.764  29.397  1.00  0.00    -0.646 OA
ENDBRANCH  11  16
ENDBRANCH   5   6
BRANCH   5  19
HETATM   19  C8  UNL     1      37.008  35.876  23.874  1.00  0.00     0.178 C 
BRANCH  19  20
HETATM   20  C9  UNL     1      38.507  35.866  24.143  1.00  0.00     0.197 C 
BRANCH  20  21
HETATM   21  O3  UNL     1      38.767  35.759  25.520  1.00  0.00    -0.398 OA
ATOM     22  H3  UNL     1      39.663  36.008  25.716  1.00  0.00     0.209 HD
ENDBRANCH  20  21
ENDBRANCH  19  20
BRANCH  19  23
HETATM   23  N7  UNL     1      36.824  36.789  22.766  1.00  0.00    -0.341 N 
ATOM     24  H7  UNL     1      36.730  37.779  22.991  1.00  0.00     0.164 HD
BRANCH  23  25
HETATM   25  C10 UNL     1      36.769  36.468  21.546  1.00  0.00     0.246 A 
HETATM   26  N8  UNL     1      37.639  36.804  20.594  1.00  0.00    -0.294 N 
HETATM   27  C11 UNL     1      37.203  36.252  19.439  1.00  0.00     0.247 A 
ATOM     28  H8  UNL     1      38.478  37.371  20.715  1.00  0.00     0.171 HD
HETATM   29  N10 UNL     1      36.086  35.595  19.707  1.00  0.00    -0.230 N 
HETATM   30  O6  UNL     1      35.844  35.741  20.987  1.00  0.00    -0.199 OA
ATOM     31  H10 UNL     1      35.518  35.072  19.040  1.00  0.00     0.197 HD
BRANCH  27  32
HETATM   32  S1  UNL     1      37.967  36.380  17.872  1.00  0.00     0.290 S 
HETATM   33  O4  UNL     1      37.232  37.425  17.083  1.00  0.00    -0.198 OA
HETATM   34  O5  UNL     1      39.408  36.823  18.035  1.00  0.00    -0.198 OA
BRANCH  32  35
HETATM   35  N9  UNL     1      37.967  34.862  17.067  1.00  0.00    -0.322 N 
ATOM     36  H92 UNL     1      37.147  34.258  16.995  1.00  0.00     0.169 HD
ATOM     37  H91 UNL     1      38.888  34.657  16.682  1.00  0.00     0.169 HD
ENDBRANCH  32  35
ENDBRANCH  27  32
ENDBRANCH  23  25
ENDBRANCH  19  23
ENDBRANCH   5  19
TORSDOF 9
ENDMDL
MODEL 2
REMARK VINA RESULT: -5.928499412      3.748      7.884
REMARK  9 active torsions:
REMARK  status: ('A' for Active; 'I' for Inactive)
REMARK    1  A    between atoms: C2_5  and  N3_6 
REMARK    2  A    between atoms: C2_5  and  C8_19 
REMARK    3  A    between atoms: C6_11  and  C7_12 
REMARK    4  A    between atoms: C8_19  and  C9_20 
REMARK    5  A    between atoms: C8_19  and  N7_23 
REMARK    6  A    between atoms: C9_20  and  O3_21 
REMARK    7  A    between atoms: N7_23  and  C10_25 
REMARK    8  A    between atoms: C11_28  and  S1_29 
REMARK    9  A    between atoms: S1_29  and  N9_30 
ROOT
HETATM    1  C1  UNL     1      40.671  38.359  24.900  1.00  0.00     0.258 C 
HETATM    2  N1  UNL     1      39.870  37.567  24.593  1.00  0.00    -0.349 NA
HETATM    3  N2  UNL     1      38.925  36.670  24.239  1.00  0.00    -0.223 N 
ATOM      4  H2  UNL     1      39.185  35.731  23.934  1.00  0.00     0.203 HD
HETATM    5  C2  UNL     1      37.655  37.036  24.298  1.00  0.00     0.134 C 
ENDROOT
BRANCH   5   6
HETATM    6  N3  UNL     1      37.378  38.299  24.711  1.00  0.00    -0.328 N 
HETATM    7  C3  UNL     1      37.076  38.986  25.692  1.00  0.00     0.119 C 
HETATM    8  C4  UNL     1      36.888  38.446  27.029  1.00  0.00     0.048 C 
HETATM    9  N6  UNL     1      36.924  40.403  25.426  1.00  0.00    -0.273 N 
HETATM   10  C5  UNL     1      36.741  39.080  28.212  1.00  0.00     0.010 C 
HETATM   11  C6  UNL     1      36.751  40.563  28.349  1.00  0.00     0.220 C 
HETATM   12  N4  UNL     1      35.800  41.062  27.373  1.00  0.00    -0.106 NA
HETATM   13  N5  UNL     1      36.402  41.449  26.177  1.00  0.00    -0.029 NA
ATOM     14  H6  UNL     1      37.266  40.688  24.509  1.00  0.00     0.185 HD
ATOM     15  H3  UNL     1      37.445  38.916  23.902  1.00  0.00     0.169 HD
BRANCH  11  16
HETATM   16  C7  UNL     1      36.444  41.004  29.714  1.00  0.00     0.198 C 
HETATM   17  O1  UNL     1      35.779  40.221  30.479  1.00  0.00    -0.646 OA
HETATM   18  O2  UNL     1      36.818  42.212  30.248  1.00  0.00    -0.646 OA
ENDBRANCH  11  16
ENDBRANCH   5   6
BRANCH   5  19
HETATM   19  C8  UNL     1      36.596  36.082  23.928  1.00  0.00     0.178 C 
BRANCH  19  20
HETATM   20  C9  UNL     1      35.575  36.817  23.068  1.00  0.00     0.197 C 
BRANCH  20  21
HETATM   21  O3  UNL     1      35.232  36.055  21.937  1.00  0.00    -0.398 OA
ATOM     22  H3  UNL     1      34.591  35.390  22.160  1.00  0.00     0.209 HD
ENDBRANCH  20  21
ENDBRANCH  19  20
BRANCH  19  23
HETATM   23  N7  UNL     1      35.854  35.597  25.072  1.00  0.00    -0.341 N 
ATOM     24  H7  UNL     1      35.111  36.197  25.432  1.00  0.00     0.164 HD
BRANCH  23  25
HETATM   25  C10 UNL     1      36.044  34.498  25.664  1.00  0.00     0.246 A 
HETATM   26  N8  UNL     1      35.109  33.667  26.121  1.00  0.00    -0.294 N 
HETATM   27  C11 UNL     1      35.746  32.615  26.683  1.00  0.00     0.247 A 
ATOM     28  H8  UNL     1      34.099  33.800  26.059  1.00  0.00     0.171 HD
HETATM   29  N10 UNL     1      37.047  32.823  26.558  1.00  0.00    -0.230 N 
HETATM   30  O6  UNL     1      37.202  33.968  25.940  1.00  0.00    -0.199 OA
ATOM     31  H10 UNL     1      37.792  32.207  26.883  1.00  0.00     0.197 HD
BRANCH  27  32
HETATM   32  S1  UNL     1      34.998  31.230  27.443  1.00  0.00     0.290 S 
HETATM   33  O4  UNL     1      33.651  31.654  27.956  1.00  0.00    -0.198 OA
HETATM   34  O5  UNL     1      34.800  30.127  26.422  1.00  0.00    -0.198 OA
BRANCH  32  35
HETATM   35  N9  UNL     1      35.990  30.615  28.703  1.00  0.00    -0.322 N 
ATOM     36  H92 UNL     1      36.968  30.353  28.578  1.00  0.00     0.169 HD
ATOM     37  H91 UNL     1      35.468  30.553  29.577  1.00  0.00     0.169 HD
ENDBRANCH  32  35
ENDBRANCH  27  32
ENDBRANCH  23  25
ENDBRANCH  19  23
ENDBRANCH   5  19
TORSDOF 9
ENDMDL
MODEL 3
REMARK VINA RESULT: -5.920515253      2.470      3.152
REMARK  9 active torsions:
REMARK  status: ('A' for Active; 'I' for Inactive)
REMARK    1  A    between atoms: C2_5  and  N3_6 
REMARK    2  A    between atoms: C2_5  and  C8_19 
REMARK    3  A    between atoms: C6_11  and  C7_12 
REMARK    4  A    between atoms: C8_19  and  C9_20 
REMARK    5  A    between atoms: C8_19  and  N7_23 
REMARK    6  A    between atoms: C9_20  and  O3_21 
REMARK    7  A    between atoms: N7_23  and  C10_25 
REMARK    8  A    between atoms: C11_28  and  S1_29 
REMARK    9  A    between atoms: S1_29  and  N9_30 
ROOT
HETATM    1  C1  UNL     1      39.711  36.839  27.898  1.00  0.00     0.258 C 
HETATM    2  N1  UNL     1      38.717  37.216  27.414  1.00  0.00    -0.349 NA
HETATM    3  N2  UNL     1      37.565  37.628  26.845  1.00  0.00    -0.223 N 
ATOM      4  H2  UNL     1      37.165  38.538  27.075  1.00  0.00     0.203 HD
HETATM    5  C2  UNL     1      36.967  36.825  25.980  1.00  0.00     0.134 C 
ENDROOT
BRANCH   5   6
HETATM    6  N3  UNL     1      37.552  35.628  25.718  1.00  0.00    -0.328 N 
HETATM    7  C3  UNL     1      37.427  34.405  25.847  1.00  0.00     0.119 C 
HETATM    8  C4  UNL     1      36.295  33.774  26.504  1.00  0.00     0.048 C 
HETATM    9  N6  UNL     1      38.504  33.616  25.282  1.00  0.00    -0.273 N 
HETATM   10  C5  UNL     1      35.933  32.474  26.559  1.00  0.00     0.010 C 
HETATM   11  C6  UNL     1      36.704  31.384  25.897  1.00  0.00     0.220 C 
HETATM   12  N4  UNL     1      38.083  31.557  26.316  1.00  0.00    -0.106 NA
HETATM   13  N5  UNL     1      38.844  32.274  25.395  1.00  0.00    -0.029 NA
ATOM     14  H6  UNL     1      39.136  34.150  24.685  1.00  0.00     0.185 HD
ATOM     15  H3  UNL     1      38.428  35.806  25.229  1.00  0.00     0.169 HD
BRANCH  11  16
HETATM   16  C7  UNL     1      36.179  30.052  26.214  1.00  0.00     0.198 C 
HETATM   17  O1  UNL     1      36.979  29.052  26.190  1.00  0.00    -0.646 OA
HETATM   18  O2  UNL     1      34.873  29.785  26.540  1.00  0.00    -0.646 OA
ENDBRANCH  11  16
ENDBRANCH   5   6
BRANCH   5  19
HETATM   19  C8  UNL     1      35.713  37.243  25.331  1.00  0.00     0.178 C 
BRANCH  19  20
HETATM   20  C9  UNL     1      34.576  37.045  26.325  1.00  0.00     0.197 C 
BRANCH  20  21
HETATM   21  O3  UNL     1      34.619  38.022  27.335  1.00  0.00    -0.398 OA
ATOM     22  H3  UNL     1      35.038  37.682  28.117  1.00  0.00     0.209 HD
ENDBRANCH  20  21
ENDBRANCH  19  20
BRANCH  19  23
HETATM   23  N7  UNL     1      35.371  36.421  24.190  1.00  0.00    -0.341 N 
ATOM     24  H7  UNL     1      34.747  35.632  24.356  1.00  0.00     0.164 HD
BRANCH  23  25
HETATM   25  C10 UNL     1      35.778  36.594  23.007  1.00  0.00     0.246 A 
HETATM   26  N8  UNL     1      36.504  37.616  22.556  1.00  0.00    -0.294 N 
HETATM   27  C11 UNL     1      36.717  37.406  21.237  1.00  0.00     0.247 A 
ATOM     28  H8  UNL     1      36.837  38.410  23.104  1.00  0.00     0.171 HD
HETATM   29  N10 UNL     1      36.122  36.270  20.913  1.00  0.00    -0.230 N 
HETATM   30  O6  UNL     1      35.561  35.798  21.999  1.00  0.00    -0.199 OA
ATOM     31  H10 UNL     1      36.103  35.840  19.987  1.00  0.00     0.197 HD
BRANCH  27  32
HETATM   32  S1  UNL     1      37.610  38.443  20.149  1.00  0.00     0.290 S 
HETATM   33  O4  UNL     1      39.075  38.200  20.374  1.00  0.00    -0.198 OA
HETATM   34  O5  UNL     1      37.277  38.091  18.713  1.00  0.00    -0.198 OA
BRANCH  32  35
HETATM   35  N9  UNL     1      37.196  40.092  20.401  1.00  0.00    -0.322 N 
ATOM     36  H92 UNL     1      37.860  40.802  20.710  1.00  0.00     0.169 HD
ATOM     37  H91 UNL     1      36.210  40.252  20.200  1.00  0.00     0.169 HD
ENDBRANCH  32  35
ENDBRANCH  27  32
ENDBRANCH  23  25
ENDBRANCH  19  23
ENDBRANCH   5  19
TORSDOF 9
ENDMDL
MODEL 4
REMARK VINA RESULT: -5.909036704      1.896      2.297
REMARK  9 active torsions:
REMARK  status: ('A' for Active; 'I' for Inactive)
REMARK    1  A    between atoms: C2_5  and  N3_6 
REMARK    2  A    between atoms: C2_5  and  C8_19 
REMARK    3  A    between atoms: C6_11  and  C7_12 
REMARK    4  A    between atoms: C8_19  and  C9_20 
REMARK    5  A    between atoms: C8_19  and  N7_23 
REMARK    6  A    between atoms: C9_20  and  O3_21 
REMARK    7  A    between atoms: N7_23  and  C10_25 
REMARK    8  A    between atoms: C11_28  and  S1_29 
REMARK    9  A    between atoms: S1_29  and  N9_30 
ROOT
HETATM    1  C1  UNL     1      35.835  38.569  28.006  1.00  0.00     0.258 C 
HETATM    2  N1  UNL     1      36.212  38.726  26.912  1.00  0.00    -0.349 NA
HETATM    3  N2  UNL     1      36.638  38.884  25.641  1.00  0.00    -0.223 N 
ATOM      4  H2  UNL     1      37.003  39.782  25.321  1.00  0.00     0.203 HD
HETATM    5  C2  UNL     1      36.573  37.848  24.821  1.00  0.00     0.134 C 
ENDROOT
BRANCH   5   6
HETATM    6  N3  UNL     1      36.077  36.683  25.311  1.00  0.00    -0.328 N 
HETATM    7  C3  UNL     1      36.351  35.503  25.552  1.00  0.00     0.119 C 
HETATM    8  C4  UNL     1      37.650  34.905  25.289  1.00  0.00     0.048 C 
HETATM    9  N6  UNL     1      35.273  34.729  26.136  1.00  0.00    -0.273 N 
HETATM   10  C5  UNL     1      38.150  33.707  25.659  1.00  0.00     0.010 C 
HETATM   11  C6  UNL     1      37.382  32.719  26.469  1.00  0.00     0.220 C 
HETATM   12  N4  UNL     1      36.102  32.564  25.803  1.00  0.00    -0.106 NA
HETATM   13  N5  UNL     1      35.104  33.367  26.351  1.00  0.00    -0.029 NA
ATOM     14  H6  UNL     1      34.484  35.294  26.450  1.00  0.00     0.185 HD
ATOM     15  H3  UNL     1      35.107  36.843  25.584  1.00  0.00     0.169 HD
BRANCH  11  16
HETATM   16  C7  UNL     1      38.095  31.447  26.627  1.00  0.00     0.198 C 
HETATM   17  O1  UNL     1      38.493  30.829  25.578  1.00  0.00    -0.646 OA
HETATM   18  O2  UNL     1      38.376  30.854  27.832  1.00  0.00    -0.646 OA
ENDBRANCH  11  16
ENDBRANCH   5   6
BRANCH   5  19
HETATM   19  C8  UNL     1      37.036  37.979  23.429  1.00  0.00     0.178 C 
BRANCH  19  20
HETATM   20  C9  UNL     1      37.233  39.461  23.134  1.00  0.00     0.197 C 
BRANCH  20  21
HETATM   21  O3  UNL     1      36.014  40.068  22.787  1.00  0.00    -0.398 OA
ATOM     22  H3  UNL     1      35.282  39.606  23.179  1.00  0.00     0.209 HD
ENDBRANCH  20  21
ENDBRANCH  19  20
BRANCH  19  23
HETATM   23  N7  UNL     1      36.055  37.524  22.467  1.00  0.00    -0.341 N 
ATOM     24  H7  UNL     1      35.078  37.746  22.659  1.00  0.00     0.164 HD
BRANCH  23  25
HETATM   25  C10 UNL     1      36.302  36.877  21.411  1.00  0.00     0.246 A 
HETATM   26  N8  UNL     1      37.051  37.282  20.386  1.00  0.00    -0.294 N 
HETATM   27  C11 UNL     1      37.051  36.286  19.471  1.00  0.00     0.247 A 
ATOM     28  H8  UNL     1      37.534  38.177  20.306  1.00  0.00     0.171 HD
HETATM   29  N10 UNL     1      36.310  35.301  19.953  1.00  0.00    -0.230 N 
HETATM   30  O6  UNL     1      35.868  35.683  21.126  1.00  0.00    -0.199 OA
ATOM     31  H10 UNL     1      36.117  34.410  19.495  1.00  0.00     0.197 HD
BRANCH  27  32
HETATM   32  S1  UNL     1      37.874  36.290  17.929  1.00  0.00     0.290 S 
HETATM   33  O4  UNL     1      37.868  34.886  17.396  1.00  0.00    -0.198 OA
HETATM   34  O5  UNL     1      37.132  37.180  16.951  1.00  0.00    -0.198 OA
BRANCH  32  35
HETATM   35  N9  UNL     1      39.473  36.898  18.092  1.00  0.00    -0.322 N 
ATOM     36  H92 UNL     1      39.846  37.669  17.536  1.00  0.00     0.169 HD
ATOM     37  H91 UNL     1      39.983  36.385  18.810  1.00  0.00     0.169 HD
ENDBRANCH  32  35
ENDBRANCH  27  32
ENDBRANCH  23  25
ENDBRANCH  19  23
ENDBRANCH   5  19
TORSDOF 9
ENDMDL
MODEL 5
REMARK VINA RESULT: -5.890000546      1.720      2.173
REMARK  9 active torsions:
REMARK  status: ('A' for Active; 'I' for Inactive)
REMARK    1  A    between atoms: C2_5  and  N3_6 
REMARK    2  A    between atoms: C2_5  and  C8_19 
REMARK    3  A    between atoms: C6_11  and  C7_12 
REMARK    4  A    between atoms: C8_19  and  C9_20 
REMARK    5  A    between atoms: C8_19  and  N7_23 
REMARK    6  A    between atoms: C9_20  and  O3_21 
REMARK    7  A    between atoms: N7_23  and  C10_25 
REMARK    8  A    between atoms: C11_28  and  S1_29 
REMARK    9  A    between atoms: S1_29  and  N9_30 
ROOT
HETATM    1  C1  UNL     1      35.308  38.258  27.708  1.00  0.00     0.258 C 
HETATM    2  N1  UNL     1      35.830  37.963  26.706  1.00  0.00    -0.349 NA
HETATM    3  N2  UNL     1      36.420  37.600  25.547  1.00  0.00    -0.223 N 
ATOM      4  H2  UNL     1      37.011  38.256  25.035  1.00  0.00     0.203 HD
HETATM    5  C2  UNL     1      36.214  36.375  25.092  1.00  0.00     0.134 C 
ENDROOT
BRANCH   5   6
HETATM    6  N3  UNL     1      35.418  35.554  25.822  1.00  0.00    -0.328 N 
HETATM    7  C3  UNL     1      35.311  34.410  26.279  1.00  0.00     0.119 C 
HETATM    8  C4  UNL     1      36.304  33.367  26.083  1.00  0.00     0.048 C 
HETATM    9  N6  UNL     1      34.107  34.166  27.050  1.00  0.00    -0.273 N 
HETATM   10  C5  UNL     1      36.417  32.151  26.660  1.00  0.00     0.010 C 
HETATM   11  C6  UNL     1      35.458  31.641  27.680  1.00  0.00     0.220 C 
HETATM   12  N4  UNL     1      34.135  31.825  27.114  1.00  0.00    -0.106 NA
HETATM   13  N5  UNL     1      33.523  33.004  27.536  1.00  0.00    -0.029 NA
ATOM     14  H6  UNL     1      33.588  35.014  27.280  1.00  0.00     0.185 HD
ATOM     15  H3  UNL     1      34.591  36.082  26.100  1.00  0.00     0.169 HD
BRANCH  11  16
HETATM   16  C7  UNL     1      35.724  30.248  28.054  1.00  0.00     0.198 C 
HETATM   17  O1  UNL     1      35.989  29.402  27.130  1.00  0.00    -0.646 OA
HETATM   18  O2  UNL     1      35.712  29.769  29.341  1.00  0.00    -0.646 OA
ENDBRANCH  11  16
ENDBRANCH   5   6
BRANCH   5  19
HETATM   19  C8  UNL     1      36.848  35.940  23.836  1.00  0.00     0.178 C 
BRANCH  19  20
HETATM   20  C9  UNL     1      38.279  36.461  23.822  1.00  0.00     0.197 C 
BRANCH  20  21
HETATM   21  O3  UNL     1      38.936  36.151  25.025  1.00  0.00    -0.398 OA
ATOM     22  H3  UNL     1      39.593  36.806  25.231  1.00  0.00     0.209 HD
ENDBRANCH  20  21
ENDBRANCH  19  20
BRANCH  19  23
HETATM   23  N7  UNL     1      36.220  36.513  22.664  1.00  0.00    -0.341 N 
ATOM     24  H7  UNL     1      35.435  36.002  22.261  1.00  0.00     0.164 HD
BRANCH  23  25
HETATM   25  C10 UNL     1      36.559  37.590  22.098  1.00  0.00     0.246 A 
HETATM   26  N8  UNL     1      37.096  37.717  20.885  1.00  0.00    -0.294 N 
HETATM   27  C11 UNL     1      37.301  39.037  20.673  1.00  0.00     0.247 A 
ATOM     28  H8  UNL     1      37.312  36.959  20.237  1.00  0.00     0.171 HD
HETATM   29  N10 UNL     1      36.887  39.683  21.752  1.00  0.00    -0.230 N 
HETATM   30  O6  UNL     1      36.444  38.787  22.599  1.00  0.00    -0.199 OA
ATOM     31  H10 UNL     1      36.910  40.693  21.897  1.00  0.00     0.197 HD
BRANCH  27  32
HETATM   32  S1  UNL     1      37.989  39.766  19.242  1.00  0.00     0.290 S 
HETATM   33  O4  UNL     1      39.463  39.479  19.239  1.00  0.00    -0.198 OA
HETATM   34  O5  UNL     1      37.375  39.147  18.001  1.00  0.00    -0.198 OA
BRANCH  32  35
HETATM   35  N9  UNL     1      37.673  41.454  19.204  1.00  0.00    -0.322 N 
ATOM     36  H92 UNL     1      36.915  41.878  18.668  1.00  0.00     0.169 HD
ATOM     37  H91 UNL     1      38.342  41.960  19.785  1.00  0.00     0.169 HD
ENDBRANCH  32  35
ENDBRANCH  27  32
ENDBRANCH  23  25
ENDBRANCH  19  23
ENDBRANCH   5  19
TORSDOF 9
ENDMDL
