MODEL 1
REMARK VINA RESULT: -3.829702961      0.000      0.000
REMARK  2 active torsions:
REMARK  status: ('A' for Active; 'I' for Inactive)
REMARK    1  A    between atoms: C3_4  and  O1_5 
REMARK    2  A    between atoms: C4_7  and  O2_8 
ROOT
HETATM    1  C1  UNL     1      24.873  11.569  10.441  1.00  0.00     0.313 C 
HETATM    2  N1  UNL     1      23.666  11.259  11.164  1.00  0.00     0.118 N 
HETATM    3  C2  UNL     1      23.133   9.935  10.976  1.00  0.00     0.311 C 
HETATM    4  C3  UNL     1      23.625   9.534  12.360  1.00  0.00     0.205 C 
HETATM    5  C4  UNL     1      23.813  11.017  12.573  1.00  0.00     0.386 C 
ENDROOT
BRANCH   4   6
HETATM    6  O1  UNL     1      22.645   8.985  13.182  1.00  0.00    -0.389 OA
ATOM      7  H1  UNL     1      22.946   8.265  13.723  1.00  0.00     0.210 HD
ENDBRANCH   4   6
BRANCH   5   8
HETATM    8  O2  UNL     1      25.044  11.350  13.123  1.00  0.00    -0.366 OA
ATOM      9  H2  UNL     1      25.052  11.511  14.060  1.00  0.00     0.212 HD
ENDBRANCH   5   8
TORSDOF 2
ENDMDL
MODEL 2
REMARK VINA RESULT: -3.811757245      3.588      4.135
REMARK  2 active torsions:
REMARK  status: ('A' for Active; 'I' for Inactive)
REMARK    1  A    between atoms: C3_4  and  O1_5 
REMARK    2  A    between atoms: C4_7  and  O2_8 
ROOT
HETATM    1  C1  UNL     1      28.558  12.488  12.376  1.00  0.00     0.313 C 
HETATM    2  N1  UNL     1      27.531  13.220  13.072  1.00  0.00     0.118 N 
HETATM    3  C2  UNL     1      26.226  13.219  12.467  1.00  0.00     0.311 C 
HETATM    4  C3  UNL     1      25.730  12.243  13.524  1.00  0.00     0.205 C 
HETATM    5  C4  UNL     1      27.001  12.600  14.256  1.00  0.00     0.386 C 
ENDROOT
BRANCH   4   6
HETATM    6  O1  UNL     1      24.580  12.654  14.193  1.00  0.00    -0.389 OA
ATOM      7  H1  UNL     1      23.885  12.007  14.214  1.00  0.00     0.210 HD
ENDBRANCH   4   6
BRANCH   5   8
HETATM    8  O2  UNL     1      27.699  11.499  14.733  1.00  0.00    -0.366 OA
ATOM      9  H2  UNL     1      28.537  11.324  14.319  1.00  0.00     0.212 HD
ENDBRANCH   5   8
TORSDOF 2
ENDMDL
MODEL 3
REMARK VINA RESULT: -3.804179046      1.487      1.604
REMARK  2 active torsions:
REMARK  status: ('A' for Active; 'I' for Inactive)
REMARK    1  A    between atoms: C3_4  and  O1_5 
REMARK    2  A    between atoms: C4_7  and  O2_8 
ROOT
HETATM    1  C1  UNL     1      25.764  12.034  12.778  1.00  0.00     0.313 C 
HETATM    2  N1  UNL     1      24.736  11.604  11.864  1.00  0.00     0.118 N 
HETATM    3  C2  UNL     1      24.892  10.289  11.302  1.00  0.00     0.311 C 
HETATM    4  C3  UNL     1      23.789   9.764  12.209  1.00  0.00     0.205 C 
HETATM    5  C4  UNL     1      23.482  11.222  12.453  1.00  0.00     0.386 C 
ENDROOT
BRANCH   4   6
HETATM    6  O1  UNL     1      22.766   9.095  11.543  1.00  0.00    -0.389 OA
ATOM      7  H1  UNL     1      22.056   8.804  12.104  1.00  0.00     0.210 HD
ENDBRANCH   4   6
BRANCH   5   8
HETATM    8  O2  UNL     1      23.315  11.540  13.794  1.00  0.00    -0.366 OA
ATOM      9  H2  UNL     1      22.495  11.961  14.024  1.00  0.00     0.212 HD
ENDBRANCH   5   8
TORSDOF 2
ENDMDL
MODEL 4
REMARK VINA RESULT: -3.751079843      3.895      4.494
REMARK  2 active torsions:
REMARK  status: ('A' for Active; 'I' for Inactive)
REMARK    1  A    between atoms: C3_4  and  O1_5 
REMARK    2  A    between atoms: C4_7  and  O2_8 
ROOT
HETATM    1  C1  UNL     1      26.742  14.011  11.711  1.00  0.00     0.313 C 
HETATM    2  N1  UNL     1      26.959  12.698  12.262  1.00  0.00     0.118 N 
HETATM    3  C2  UNL     1      28.254  12.456  12.842  1.00  0.00     0.311 C 
HETATM    4  C3  UNL     1      27.650  12.536  14.237  1.00  0.00     0.205 C 
HETATM    5  C4  UNL     1      26.325  12.424  13.522  1.00  0.00     0.386 C 
ENDROOT
BRANCH   4   6
HETATM    6  O1  UNL     1      27.928  11.440  15.048  1.00  0.00    -0.389 OA
ATOM      7  H1  UNL     1      27.348  10.698  14.917  1.00  0.00     0.210 HD
ENDBRANCH   4   6
BRANCH   5   8
HETATM    8  O2  UNL     1      25.383  13.352  13.945  1.00  0.00    -0.366 OA
ATOM      9  H2  UNL     1      25.644  14.265  13.895  1.00  0.00     0.212 HD
ENDBRANCH   5   8
TORSDOF 2
ENDMDL
MODEL 5
REMARK VINA RESULT: -3.740768882      2.138      2.655
REMARK  2 active torsions:
REMARK  status: ('A' for Active; 'I' for Inactive)
REMARK    1  A    between atoms: C3_4  and  O1_5 
REMARK    2  A    between atoms: C4_7  and  O2_8 
ROOT
HETATM    1  C1  UNL     1      25.379  11.714  12.660  1.00  0.00     0.313 C 
HETATM    2  N1  UNL     1      24.386  11.544  11.630  1.00  0.00     0.118 N 
HETATM    3  C2  UNL     1      24.824  11.767  10.278  1.00  0.00     0.311 C 
HETATM    4  C3  UNL     1      24.813  10.267  10.020  1.00  0.00     0.205 C 
HETATM    5  C4  UNL     1      24.029  10.189  11.308  1.00  0.00     0.386 C 
ENDROOT
BRANCH   4   6
HETATM    6  O1  UNL     1      24.073   9.880   8.907  1.00  0.00    -0.389 OA
ATOM      7  H1  UNL     1      24.118   8.952   8.709  1.00  0.00     0.210 HD
ENDBRANCH   4   6
BRANCH   5   8
HETATM    8  O2  UNL     1      24.488   9.214  12.183  1.00  0.00    -0.366 OA
ATOM      9  H2  UNL     1      23.844   8.578  12.474  1.00  0.00     0.212 HD
ENDBRANCH   5   8
TORSDOF 2
ENDMDL
