MODEL 1
REMARK VINA RESULT: -4.375892492      0.000      0.000
REMARK  0 active torsions:
REMARK  status: ('A' for Active; 'I' for Inactive)
REMARK       I    between atoms: C1_4  and  N3_6 
ROOT
HETATM    1  N1  UNL     1      27.118  11.859  14.112  1.00  0.00    -0.374 N 
ATOM      2  H11 UNL     1      27.355  10.876  13.979  1.00  0.00     0.158 HD
ATOM      3  H12 UNL     1      27.673  12.382  14.789  1.00  0.00     0.158 HD
HETATM    4  C1  UNL     1      26.183  12.463  13.491  1.00  0.00     0.185 C 
HETATM    5  N2  UNL     1      25.854  13.826  13.675  1.00  0.00    -0.064 NA
HETATM    6  N3  UNL     1      25.409  11.735  12.549  1.00  0.00    -0.333 N 
HETATM    7  C2  UNL     1      24.061  11.280  12.753  1.00  0.00     0.154 C 
HETATM    8  C3  UNL     1      23.585  11.055  11.335  1.00  0.00     0.190 C 
HETATM    9  O1  UNL     1      24.678  11.020  10.517  1.00  0.00    -0.370 OA
HETATM   10  C4  UNL     1      25.805  11.314  11.231  1.00  0.00     0.295 C 
ENDROOT
TORSDOF 0
ENDMDL
MODEL 2
REMARK VINA RESULT: -4.293338049      2.950      4.218
REMARK  0 active torsions:
REMARK  status: ('A' for Active; 'I' for Inactive)
REMARK       I    between atoms: C1_4  and  N3_6 
ROOT
HETATM    1  N1  UNL     1      21.991   8.485  10.817  1.00  0.00    -0.374 N 
ATOM      2  H11 UNL     1      22.056   9.075   9.987  1.00  0.00     0.158 HD
ATOM      3  H12 UNL     1      21.369   7.679  10.765  1.00  0.00     0.158 HD
HETATM    4  C1  UNL     1      22.632   8.694  11.898  1.00  0.00     0.185 C 
HETATM    5  N2  UNL     1      22.543   7.878  13.049  1.00  0.00    -0.064 NA
HETATM    6  N3  UNL     1      23.498   9.818  11.971  1.00  0.00    -0.333 N 
HETATM    7  C2  UNL     1      23.228  11.032  12.691  1.00  0.00     0.154 C 
HETATM    8  C3  UNL     1      24.613  11.616  12.856  1.00  0.00     0.190 C 
HETATM    9  O1  UNL     1      25.453  10.982  11.986  1.00  0.00    -0.370 OA
HETATM   10  C4  UNL     1      24.790   9.966  11.354  1.00  0.00     0.295 C 
ENDROOT
TORSDOF 0
ENDMDL
MODEL 3
REMARK VINA RESULT: -4.084037043      2.137      3.501
REMARK  0 active torsions:
REMARK  status: ('A' for Active; 'I' for Inactive)
REMARK       I    between atoms: C1_4  and  N3_6 
ROOT
HETATM    1  N1  UNL     1      24.489   9.626  12.081  1.00  0.00    -0.374 N 
ATOM      2  H11 UNL     1      24.728   9.288  13.013  1.00  0.00     0.158 HD
ATOM      3  H12 UNL     1      24.012   8.972  11.460  1.00  0.00     0.158 HD
HETATM    4  C1  UNL     1      24.748  10.797  11.653  1.00  0.00     0.185 C 
HETATM    5  N2  UNL     1      24.417  11.266  10.360  1.00  0.00    -0.064 NA
HETATM    6  N3  UNL     1      25.413  11.707  12.517  1.00  0.00    -0.333 N 
HETATM    7  C2  UNL     1      26.792  12.098  12.412  1.00  0.00     0.154 C 
HETATM    8  C3  UNL     1      26.814  13.393  13.194  1.00  0.00     0.190 C 
HETATM    9  O1  UNL     1      25.674  13.461  13.943  1.00  0.00    -0.370 OA
HETATM   10  C4  UNL     1      24.856  12.407  13.645  1.00  0.00     0.295 C 
ENDROOT
TORSDOF 0
ENDMDL
MODEL 4
REMARK VINA RESULT: -4.017324030      3.741      5.047
REMARK  0 active torsions:
REMARK  status: ('A' for Active; 'I' for Inactive)
REMARK       I    between atoms: C1_4  and  N3_6 
ROOT
HETATM    1  N1  UNL     1      25.192   8.733   7.635  1.00  0.00    -0.374 N 
ATOM      2  H11 UNL     1      25.735   8.289   8.376  1.00  0.00     0.158 HD
ATOM      3  H12 UNL     1      25.042   8.192   6.784  1.00  0.00     0.158 HD
HETATM    4  C1  UNL     1      24.699   9.905   7.710  1.00  0.00     0.185 C 
HETATM    5  N2  UNL     1      23.947  10.521   6.683  1.00  0.00    -0.064 NA
HETATM    6  N3  UNL     1      24.909  10.659   8.895  1.00  0.00    -0.333 N 
HETATM    7  C2  UNL     1      25.816  11.765   9.029  1.00  0.00     0.154 C 
HETATM    8  C3  UNL     1      25.274  12.473  10.251  1.00  0.00     0.190 C 
HETATM    9  O1  UNL     1      24.430  11.620  10.902  1.00  0.00    -0.370 OA
HETATM   10  C4  UNL     1      24.272  10.474  10.173  1.00  0.00     0.295 C 
ENDROOT
TORSDOF 0
ENDMDL
MODEL 5
REMARK VINA RESULT: -4.014242174      2.121      3.423
REMARK  0 active torsions:
REMARK  status: ('A' for Active; 'I' for Inactive)
REMARK       I    between atoms: C1_4  and  N3_6 
ROOT
HETATM    1  N1  UNL     1      24.863   9.750  10.557  1.00  0.00    -0.374 N 
ATOM      2  H11 UNL     1      24.808   9.067  11.313  1.00  0.00     0.158 HD
ATOM      3  H12 UNL     1      24.815   9.389   9.604  1.00  0.00     0.158 HD
HETATM    4  C1  UNL     1      24.986  11.006  10.731  1.00  0.00     0.185 C 
HETATM    5  N2  UNL     1      25.063  11.952   9.683  1.00  0.00    -0.064 NA
HETATM    6  N3  UNL     1      25.054  11.507  12.057  1.00  0.00    -0.333 N 
HETATM    7  C2  UNL     1      26.244  11.985  12.707  1.00  0.00     0.154 C 
HETATM    8  C3  UNL     1      25.676  12.833  13.824  1.00  0.00     0.190 C 
HETATM    9  O1  UNL     1      24.356  12.516  13.974  1.00  0.00    -0.370 OA
HETATM   10  C4  UNL     1      23.973  11.637  12.999  1.00  0.00     0.295 C 
ENDROOT
TORSDOF 0
ENDMDL
