MODEL 1
REMARK VINA RESULT: -3.926231950      0.000      0.000
REMARK  3 active torsions:
REMARK  status: ('A' for Active; 'I' for Inactive)
REMARK    1  A    between atoms: N1_1  and  C1_5 
REMARK    2  A    between atoms: C3_7  and  N2_8 
REMARK    3  A    between atoms: C4_12  and  O1_13 
ROOT
HETATM    1  C1  UNL     1      24.834  11.651  11.926  1.00  0.00     0.216 C 
HETATM    2  C2  UNL     1      24.716  10.386  11.062  1.00  0.00     0.070 C 
HETATM    3  C3  UNL     1      23.968   9.800  12.268  1.00  0.00     0.216 C 
HETATM    4  C4  UNL     1      23.472  11.226  12.491  1.00  0.00     0.179 C 
ENDROOT
BRANCH   1   5
HETATM    5  N1  UNL     1      25.904  11.448  12.882  1.00  0.00    -0.072 N 
ATOM      6  H13 UNL     1      26.047  10.463  13.109  1.00  0.00     0.274 HD
ATOM      7  H12 UNL     1      26.825  11.633  12.486  1.00  0.00     0.274 HD
ATOM      8  H11 UNL     1      25.708  12.016  13.705  1.00  0.00     0.274 HD
ENDBRANCH   1   5
BRANCH   4   9
HETATM    9  O1  UNL     1      23.337  11.613  13.791  1.00  0.00    -0.391 OA
ATOM     10  H1  UNL     1      23.607  10.922  14.383  1.00  0.00     0.210 HD
ENDBRANCH   4   9
BRANCH   3  11
HETATM   11  N2  UNL     1      22.929   8.876  11.896  1.00  0.00    -0.072 N 
ATOM     12  H23 UNL     1      22.026   9.179  12.260  1.00  0.00     0.274 HD
ATOM     13  H22 UNL     1      22.734   8.933  10.897  1.00  0.00     0.274 HD
ATOM     14  H21 UNL     1      23.129   7.915  12.174  1.00  0.00     0.274 HD
ENDBRANCH   3  11
TORSDOF 3
ENDMDL
MODEL 2
REMARK VINA RESULT: -3.880564653      1.980      2.222
REMARK  3 active torsions:
REMARK  status: ('A' for Active; 'I' for Inactive)
REMARK    1  A    between atoms: N1_1  and  C1_5 
REMARK    2  A    between atoms: C3_7  and  N2_8 
REMARK    3  A    between atoms: C4_12  and  O1_13 
ROOT
HETATM    1  C1  UNL     1      24.089  11.303  12.036  1.00  0.00     0.216 C 
HETATM    2  C2  UNL     1      24.638  11.740  10.668  1.00  0.00     0.070 C 
HETATM    3  C3  UNL     1      25.269  10.341  10.630  1.00  0.00     0.216 C 
HETATM    4  C4  UNL     1      24.034   9.902  11.412  1.00  0.00     0.179 C 
ENDROOT
BRANCH   1   5
HETATM    5  N1  UNL     1      25.156  11.422  13.009  1.00  0.00    -0.072 N 
ATOM      6  H13 UNL     1      25.982  10.878  12.757  1.00  0.00     0.274 HD
ATOM      7  H12 UNL     1      25.592  12.344  13.005  1.00  0.00     0.274 HD
ATOM      8  H11 UNL     1      24.783  11.167  13.923  1.00  0.00     0.274 HD
ENDBRANCH   1   5
BRANCH   4   9
HETATM    9  O1  UNL     1      24.238   8.937  12.354  1.00  0.00    -0.391 OA
ATOM     10  H1  UNL     1      24.400   8.094  11.950  1.00  0.00     0.210 HD
ENDBRANCH   4   9
BRANCH   3  11
HETATM   11  N2  UNL     1      25.342   9.788   9.304  1.00  0.00    -0.072 N 
ATOM     12  H23 UNL     1      24.991  10.452   8.614  1.00  0.00     0.274 HD
ATOM     13  H22 UNL     1      26.311   9.719   8.992  1.00  0.00     0.274 HD
ATOM     14  H21 UNL     1      24.867   8.890   9.217  1.00  0.00     0.274 HD
ENDBRANCH   3  11
TORSDOF 3
ENDMDL
MODEL 3
REMARK VINA RESULT: -3.829566454      1.841      3.135
REMARK  3 active torsions:
REMARK  status: ('A' for Active; 'I' for Inactive)
REMARK    1  A    between atoms: N1_1  and  C1_5 
REMARK    2  A    between atoms: C3_7  and  N2_8 
REMARK    3  A    between atoms: C4_12  and  O1_13 
ROOT
HETATM    1  C1  UNL     1      23.375   9.979  11.526  1.00  0.00     0.216 C 
HETATM    2  C2  UNL     1      23.526  11.152  12.507  1.00  0.00     0.070 C 
HETATM    3  C3  UNL     1      25.034  10.961  12.287  1.00  0.00     0.216 C 
HETATM    4  C4  UNL     1      24.644  10.542  10.872  1.00  0.00     0.179 C 
ENDROOT
BRANCH   1   5
HETATM    5  N1  UNL     1      23.638   8.750  12.248  1.00  0.00    -0.072 N 
ATOM      6  H13 UNL     1      23.584   7.924  11.651  1.00  0.00     0.274 HD
ATOM      7  H12 UNL     1      24.615   8.657  12.524  1.00  0.00     0.274 HD
ATOM      8  H11 UNL     1      22.999   8.703  13.041  1.00  0.00     0.274 HD
ENDBRANCH   1   5
BRANCH   4   9
HETATM    9  O1  UNL     1      25.394   9.547  10.318  1.00  0.00    -0.391 OA
ATOM     10  H1  UNL     1      25.776   9.824   9.494  1.00  0.00     0.210 HD
ENDBRANCH   4   9
BRANCH   3  11
HETATM   11  N2  UNL     1      25.774  12.193  12.343  1.00  0.00    -0.072 N 
ATOM     12  H23 UNL     1      25.315  12.919  11.793  1.00  0.00     0.274 HD
ATOM     13  H22 UNL     1      25.705  12.616  13.269  1.00  0.00     0.274 HD
ATOM     14  H21 UNL     1      26.750  12.088  12.063  1.00  0.00     0.274 HD
ENDBRANCH   3  11
TORSDOF 3
ENDMDL
MODEL 4
REMARK VINA RESULT: -3.811824368      4.212      4.711
REMARK  3 active torsions:
REMARK  status: ('A' for Active; 'I' for Inactive)
REMARK    1  A    between atoms: N1_1  and  C1_5 
REMARK    2  A    between atoms: C3_7  and  N2_8 
REMARK    3  A    between atoms: C4_12  and  O1_13 
ROOT
HETATM    1  C1  UNL     1      25.251  10.613   9.137  1.00  0.00     0.216 C 
HETATM    2  C2  UNL     1      26.681  10.453   8.598  1.00  0.00     0.070 C 
HETATM    3  C3  UNL     1      26.188   9.092   8.087  1.00  0.00     0.216 C 
HETATM    4  C4  UNL     1      24.844   9.791   7.906  1.00  0.00     0.179 C 
ENDROOT
BRANCH   1   5
HETATM    5  N1  UNL     1      25.140   9.846  10.361  1.00  0.00    -0.072 N 
ATOM      6  H13 UNL     1      24.631   8.972  10.233  1.00  0.00     0.274 HD
ATOM      7  H12 UNL     1      26.030   9.446  10.656  1.00  0.00     0.274 HD
ATOM      8  H11 UNL     1      24.722  10.444  11.074  1.00  0.00     0.274 HD
ENDBRANCH   1   5
BRANCH   4   9
HETATM    9  O1  UNL     1      23.739   9.034   8.166  1.00  0.00    -0.391 OA
ATOM     10  H1  UNL     1      23.331   8.739   7.361  1.00  0.00     0.210 HD
ENDBRANCH   4   9
BRANCH   3  11
HETATM   11  N2  UNL     1      26.806   8.695   6.850  1.00  0.00    -0.072 N 
ATOM     12  H23 UNL     1      26.104   8.546   6.125  1.00  0.00     0.274 HD
ATOM     13  H22 UNL     1      27.315   9.474   6.432  1.00  0.00     0.274 HD
ATOM     14  H21 UNL     1      27.408   7.877   6.946  1.00  0.00     0.274 HD
ENDBRANCH   3  11
TORSDOF 3
ENDMDL
MODEL 5
REMARK VINA RESULT: -3.729809699      5.074      5.597
REMARK  3 active torsions:
REMARK  status: ('A' for Active; 'I' for Inactive)
REMARK    1  A    between atoms: N1_1  and  C1_5 
REMARK    2  A    between atoms: C3_7  and  N2_8 
REMARK    3  A    between atoms: C4_12  and  O1_13 
ROOT
HETATM    1  C1  UNL     1      26.346   9.654   8.956  1.00  0.00     0.216 C 
HETATM    2  C2  UNL     1      26.754  10.953   8.245  1.00  0.00     0.070 C 
HETATM    3  C3  UNL     1      26.398  10.197   6.957  1.00  0.00     0.216 C 
HETATM    4  C4  UNL     1      25.337   9.505   7.809  1.00  0.00     0.179 C 
ENDROOT
BRANCH   1   5
HETATM    5  N1  UNL     1      27.440   8.712   8.841  1.00  0.00    -0.072 N 
ATOM      6  H13 UNL     1      28.349   9.142   9.013  1.00  0.00     0.274 HD
ATOM      7  H12 UNL     1      27.460   8.037   9.606  1.00  0.00     0.274 HD
ATOM      8  H11 UNL     1      27.383   8.267   7.926  1.00  0.00     0.274 HD
ENDBRANCH   1   5
BRANCH   4   9
HETATM    9  O1  UNL     1      25.108   8.191   7.524  1.00  0.00    -0.391 OA
ATOM     10  H1  UNL     1      24.197   7.965   7.663  1.00  0.00     0.210 HD
ENDBRANCH   4   9
BRANCH   3  11
HETATM   11  N2  UNL     1      25.854  11.048   5.932  1.00  0.00    -0.072 N 
ATOM     12  H23 UNL     1      24.852  11.179   6.064  1.00  0.00     0.274 HD
ATOM     13  H22 UNL     1      26.167  12.011   6.057  1.00  0.00     0.274 HD
ATOM     14  H21 UNL     1      26.057  10.719   4.989  1.00  0.00     0.274 HD
ENDBRANCH   3  11
TORSDOF 3
ENDMDL
