MODEL 1
REMARK VINA RESULT: -7.854640869      0.000      0.000
REMARK  13 active torsions:
REMARK  status: ('A' for Active; 'I' for Inactive)
REMARK    1  A    between atoms: C2_2  and  C4_4 
REMARK    2  A    between atoms: C7_7  and  O1_8 
REMARK    3  A    between atoms: C9_11  and  C10_12 
REMARK    4  A    between atoms: C10_12  and  C11_13 
REMARK    5  A    between atoms: C11_13  and  C12_14 
REMARK    6  A    between atoms: C15_17  and  O2_18 
REMARK    7  A    between atoms: C17_20  and  O3_21 
REMARK    8  A    between atoms: C18_23  and  C19_24 
REMARK    9  A    between atoms: C19_24  and  O4_25 
REMARK   10  A    between atoms: O4_25  and  C20_26 
REMARK       I    between atoms: C20_26  and  N1_28 
REMARK   11  A    between atoms: N1_28  and  C21_30 
REMARK   12  A    between atoms: C21_30  and  C22_31 
REMARK   13  A    between atoms: C22_31  and  N2_32 
ROOT
HETATM    1  C12 UNL     1      50.207  50.456  18.768  1.00  0.00    -0.053 C 
HETATM    2  C13 UNL     1      50.804  50.598  19.981  1.00  0.00    -0.046 C 
HETATM    3  C14 UNL     1      50.432  49.666  21.054  1.00  0.00     0.046 C 
HETATM    4  C15 UNL     1      51.781  51.661  20.200  1.00  0.00     0.179 C 
HETATM    5  C17 UNL     1      51.312  53.005  19.674  1.00  0.00     0.157 C 
HETATM    6  C18 UNL     1      50.534  52.885  18.402  1.00  0.00     0.046 C 
HETATM    7  C25 UNL     1      50.595  51.503  17.786  1.00  0.00     0.048 C 
ENDROOT
BRANCH   1   8
HETATM    8  C11 UNL     1      49.237  49.399  18.598  1.00  0.00     0.004 C 
BRANCH   8   9
HETATM    9  C10 UNL     1      48.228  49.350  17.544  1.00  0.00    -0.021 C 
BRANCH   9  10
HETATM   10  C9  UNL     1      48.135  48.328  16.498  1.00  0.00     0.018 C 
HETATM   11  C4  UNL     1      47.866  48.981  15.130  1.00  0.00     0.021 C 
HETATM   12  C5  UNL     1      46.409  49.318  14.998  1.00  0.00     0.012 C 
HETATM   13  C6  UNL     1      45.671  48.028  14.718  1.00  0.00     0.032 C 
HETATM   14  C7  UNL     1      46.421  46.907  15.334  1.00  0.00     0.118 C 
HETATM   15  C8  UNL     1      47.054  47.310  16.677  1.00  0.00     0.041 C 
BRANCH  11  16
HETATM   16  C2  UNL     1      48.755  50.161  14.928  1.00  0.00    -0.088 C 
HETATM   17  C1  UNL     1      48.298  51.395  14.991  1.00  0.00     0.014 C 
HETATM   18  C3  UNL     1      50.194  49.945  14.639  1.00  0.00     0.043 C 
ENDBRANCH  11  16
BRANCH  14  19
HETATM   19  O1  UNL     1      45.520  45.856  15.579  1.00  0.00    -0.396 OA
ATOM     20  H1  UNL     1      45.494  45.302  14.808  1.00  0.00     0.210 HD
ENDBRANCH  14  19
ENDBRANCH   9  10
ENDBRANCH   8   9
ENDBRANCH   1   8
BRANCH   4  21
HETATM   21  O2  UNL     1      53.044  51.363  19.692  1.00  0.00    -0.384 OA
HETATM   22  C16 UNL     1      53.393  50.056  20.017  1.00  0.00     0.202 C 
ENDBRANCH   4  21
BRANCH   6  23
HETATM   23  C19 UNL     1      49.114  53.388  18.499  1.00  0.00     0.188 C 
BRANCH  23  24
HETATM   24  O4  UNL     1      48.955  54.609  17.802  1.00  0.00    -0.303 OA
BRANCH  24  25
HETATM   25  C20 UNL     1      49.098  55.857  18.469  1.00  0.00     0.364 C 
HETATM   26  O5  UNL     1      49.101  56.829  17.679  1.00  0.00    -0.238 OA
HETATM   27  N1  UNL     1      49.218  55.904  19.870  1.00  0.00    -0.311 N 
ATOM     28  H1  UNL     1      49.221  54.994  20.330  1.00  0.00     0.170 HD
BRANCH  27  29
HETATM   29  C21 UNL     1      49.334  56.999  20.732  1.00  0.00     0.110 C 
BRANCH  29  30
HETATM   30  C22 UNL     1      50.527  57.309  21.521  1.00  0.00     0.102 C 
BRANCH  30  31
HETATM   31  N2  UNL     1      51.695  56.559  21.563  1.00  0.00    -0.397 N 
HETATM   32  C23 UNL     1      52.947  57.247  21.426  1.00  0.00     0.148 C 
HETATM   33  C24 UNL     1      51.727  55.568  22.598  1.00  0.00     0.148 C 
ENDBRANCH  30  31
ENDBRANCH  29  30
ENDBRANCH  27  29
ENDBRANCH  24  25
ENDBRANCH  23  24
ENDBRANCH   6  23
BRANCH   5  34
HETATM   34  O3  UNL     1      52.441  53.812  19.538  1.00  0.00    -0.392 OA
ATOM     35  H3  UNL     1      52.300  54.368  18.781  1.00  0.00     0.210 HD
ENDBRANCH   5  34
TORSDOF 13
ENDMDL
MODEL 2
REMARK VINA RESULT: -7.718609817      3.143      8.309
REMARK  13 active torsions:
REMARK  status: ('A' for Active; 'I' for Inactive)
REMARK    1  A    between atoms: C2_2  and  C4_4 
REMARK    2  A    between atoms: C7_7  and  O1_8 
REMARK    3  A    between atoms: C9_11  and  C10_12 
REMARK    4  A    between atoms: C10_12  and  C11_13 
REMARK    5  A    between atoms: C11_13  and  C12_14 
REMARK    6  A    between atoms: C15_17  and  O2_18 
REMARK    7  A    between atoms: C17_20  and  O3_21 
REMARK    8  A    between atoms: C18_23  and  C19_24 
REMARK    9  A    between atoms: C19_24  and  O4_25 
REMARK   10  A    between atoms: O4_25  and  C20_26 
REMARK       I    between atoms: C20_26  and  N1_28 
REMARK   11  A    between atoms: N1_28  and  C21_30 
REMARK   12  A    between atoms: C21_30  and  C22_31 
REMARK   13  A    between atoms: C22_31  and  N2_32 
ROOT
HETATM    1  C12 UNL     1      50.000  53.369  18.594  1.00  0.00    -0.053 C 
HETATM    2  C13 UNL     1      51.223  52.815  18.808  1.00  0.00    -0.046 C 
HETATM    3  C14 UNL     1      52.394  53.702  18.840  1.00  0.00     0.046 C 
HETATM    4  C15 UNL     1      51.355  51.372  18.989  1.00  0.00     0.179 C 
HETATM    5  C17 UNL     1      50.582  50.578  17.953  1.00  0.00     0.157 C 
HETATM    6  C18 UNL     1      49.282  51.222  17.589  1.00  0.00     0.046 C 
HETATM    7  C25 UNL     1      48.902  52.372  18.498  1.00  0.00     0.048 C 
ENDROOT
BRANCH   1   8
HETATM    8  C11 UNL     1      49.916  54.799  18.407  1.00  0.00     0.004 C 
BRANCH   8   9
HETATM    9  C10 UNL     1      49.119  55.705  19.229  1.00  0.00    -0.021 C 
BRANCH   9  10
HETATM   10  C9  UNL     1      49.425  56.103  20.606  1.00  0.00     0.018 C 
HETATM   11  C4  UNL     1      49.605  57.629  20.698  1.00  0.00     0.021 C 
HETATM   12  C5  UNL     1      50.978  58.015  20.230  1.00  0.00     0.012 C 
HETATM   13  C6  UNL     1      51.948  57.663  21.336  1.00  0.00     0.032 C 
HETATM   14  C7  UNL     1      51.400  56.517  22.101  1.00  0.00     0.118 C 
HETATM   15  C8  UNL     1      50.670  55.515  21.190  1.00  0.00     0.041 C 
BRANCH  11  16
HETATM   16  C2  UNL     1      48.520  58.331  19.955  1.00  0.00    -0.088 C 
HETATM   17  C1  UNL     1      48.735  58.906  18.788  1.00  0.00     0.014 C 
HETATM   18  C3  UNL     1      47.160  58.394  20.544  1.00  0.00     0.043 C 
ENDBRANCH  11  16
BRANCH  14  19
HETATM   19  O1  UNL     1      52.474  55.844  22.712  1.00  0.00    -0.396 OA
ATOM     20  H1  UNL     1      52.249  55.693  23.623  1.00  0.00     0.210 HD
ENDBRANCH  14  19
ENDBRANCH   9  10
ENDBRANCH   8   9
ENDBRANCH   1   8
BRANCH   4  21
HETATM   21  O2  UNL     1      51.016  50.944  20.271  1.00  0.00    -0.384 OA
HETATM   22  C16 UNL     1      52.151  50.892  21.074  1.00  0.00     0.202 C 
ENDBRANCH   4  21
BRANCH   6  23
HETATM   23  C19 UNL     1      49.171  51.605  16.132  1.00  0.00     0.188 C 
BRANCH  23  24
HETATM   24  O4  UNL     1      49.225  50.464  15.298  1.00  0.00    -0.303 OA
BRANCH  24  25
HETATM   25  C20 UNL     1      48.454  49.305  15.591  1.00  0.00     0.364 C 
HETATM   26  O5  UNL     1      49.162  48.291  15.786  1.00  0.00    -0.238 OA
HETATM   27  N1  UNL     1      47.050  49.379  15.636  1.00  0.00    -0.311 N 
ATOM     28  H1  UNL     1      46.663  50.297  15.419  1.00  0.00     0.170 HD
BRANCH  27  29
HETATM   29  C21 UNL     1      46.101  48.395  15.930  1.00  0.00     0.110 C 
BRANCH  29  30
HETATM   30  C22 UNL     1      45.365  48.306  17.193  1.00  0.00     0.102 C 
BRANCH  30  31
HETATM   31  N2  UNL     1      45.892  47.923  18.419  1.00  0.00    -0.397 N 
HETATM   32  C23 UNL     1      46.992  48.677  18.948  1.00  0.00     0.148 C 
HETATM   33  C24 UNL     1      44.910  47.617  19.417  1.00  0.00     0.148 C 
ENDBRANCH  30  31
ENDBRANCH  29  30
ENDBRANCH  27  29
ENDBRANCH  24  25
ENDBRANCH  23  24
ENDBRANCH   6  23
BRANCH   5  34
HETATM   34  O3  UNL     1      50.420  49.288  18.457  1.00  0.00    -0.392 OA
ATOM     35  H3  UNL     1      49.487  49.109  18.476  1.00  0.00     0.210 HD
ENDBRANCH   5  34
TORSDOF 13
ENDMDL
MODEL 3
REMARK VINA RESULT: -7.619395435      1.726      2.656
REMARK  13 active torsions:
REMARK  status: ('A' for Active; 'I' for Inactive)
REMARK    1  A    between atoms: C2_2  and  C4_4 
REMARK    2  A    between atoms: C7_7  and  O1_8 
REMARK    3  A    between atoms: C9_11  and  C10_12 
REMARK    4  A    between atoms: C10_12  and  C11_13 
REMARK    5  A    between atoms: C11_13  and  C12_14 
REMARK    6  A    between atoms: C15_17  and  O2_18 
REMARK    7  A    between atoms: C17_20  and  O3_21 
REMARK    8  A    between atoms: C18_23  and  C19_24 
REMARK    9  A    between atoms: C19_24  and  O4_25 
REMARK   10  A    between atoms: O4_25  and  C20_26 
REMARK       I    between atoms: C20_26  and  N1_28 
REMARK   11  A    between atoms: N1_28  and  C21_30 
REMARK   12  A    between atoms: C21_30  and  C22_31 
REMARK   13  A    between atoms: C22_31  and  N2_32 
ROOT
HETATM    1  C12 UNL     1      49.837  49.860  17.830  1.00  0.00    -0.053 C 
HETATM    2  C13 UNL     1      50.262  50.246  19.062  1.00  0.00    -0.046 C 
HETATM    3  C14 UNL     1      49.815  49.470  20.228  1.00  0.00     0.046 C 
HETATM    4  C15 UNL     1      51.130  51.410  19.210  1.00  0.00     0.179 C 
HETATM    5  C17 UNL     1      50.647  52.607  18.412  1.00  0.00     0.157 C 
HETATM    6  C18 UNL     1      50.050  52.217  17.097  1.00  0.00     0.046 C 
HETATM    7  C25 UNL     1      50.279  50.765  16.736  1.00  0.00     0.048 C 
ENDROOT
BRANCH   1   8
HETATM    8  C11 UNL     1      48.968  48.711  17.730  1.00  0.00     0.004 C 
BRANCH   8   9
HETATM    9  C10 UNL     1      48.207  48.336  16.542  1.00  0.00    -0.021 C 
BRANCH   9  10
HETATM   10  C9  UNL     1      47.391  49.242  15.729  1.00  0.00     0.018 C 
HETATM   11  C4  UNL     1      45.937  48.740  15.660  1.00  0.00     0.021 C 
HETATM   12  C5  UNL     1      45.819  47.643  14.642  1.00  0.00     0.012 C 
HETATM   13  C6  UNL     1      45.840  48.291  13.275  1.00  0.00     0.032 C 
HETATM   14  C7  UNL     1      46.625  49.546  13.357  1.00  0.00     0.118 C 
HETATM   15  C8  UNL     1      47.826  49.412  14.309  1.00  0.00     0.041 C 
BRANCH  11  16
HETATM   16  C2  UNL     1      45.458  48.332  17.012  1.00  0.00    -0.088 C 
HETATM   17  C1  UNL     1      44.720  47.255  17.192  1.00  0.00     0.014 C 
HETATM   18  C3  UNL     1      45.812  49.161  18.189  1.00  0.00     0.043 C 
ENDBRANCH  11  16
BRANCH  14  19
HETATM   19  O1  UNL     1      47.121  49.838  12.073  1.00  0.00    -0.396 OA
ATOM     20  H1  UNL     1      46.477  49.555  11.435  1.00  0.00     0.210 HD
ENDBRANCH  14  19
ENDBRANCH   9  10
ENDBRANCH   8   9
ENDBRANCH   1   8
BRANCH   4  21
HETATM   21  O2  UNL     1      52.466  51.143  18.911  1.00  0.00    -0.384 OA
HETATM   22  C16 UNL     1      53.109  50.616  20.027  1.00  0.00     0.202 C 
ENDBRANCH   4  21
BRANCH   6  23
HETATM   23  C19 UNL     1      48.599  52.606  16.941  1.00  0.00     0.188 C 
BRANCH  23  24
HETATM   24  O4  UNL     1      48.465  53.772  16.152  1.00  0.00    -0.303 OA
BRANCH  24  25
HETATM   25  C20 UNL     1      48.311  55.052  16.755  1.00  0.00     0.364 C 
HETATM   26  O5  UNL     1      47.507  55.784  16.135  1.00  0.00    -0.238 OA
HETATM   27  N1  UNL     1      49.026  55.376  17.922  1.00  0.00    -0.311 N 
ATOM     28  H1  UNL     1      49.655  54.646  18.256  1.00  0.00     0.170 HD
BRANCH  27  29
HETATM   29  C21 UNL     1      49.012  56.540  18.697  1.00  0.00     0.110 C 
BRANCH  29  30
HETATM   30  C22 UNL     1      49.044  56.560  20.161  1.00  0.00     0.102 C 
BRANCH  30  31
HETATM   31  N2  UNL     1      49.672  57.513  20.950  1.00  0.00    -0.397 N 
HETATM   32  C23 UNL     1      48.849  58.431  21.685  1.00  0.00     0.148 C 
HETATM   33  C24 UNL     1      50.763  57.011  21.732  1.00  0.00     0.148 C 
ENDBRANCH  30  31
ENDBRANCH  29  30
ENDBRANCH  27  29
ENDBRANCH  24  25
ENDBRANCH  23  24
ENDBRANCH   6  23
BRANCH   5  34
HETATM   34  O3  UNL     1      51.730  53.475  18.274  1.00  0.00    -0.392 OA
ATOM     35  H3  UNL     1      51.928  53.532  17.346  1.00  0.00     0.210 HD
ENDBRANCH   5  34
TORSDOF 13
ENDMDL
MODEL 4
REMARK VINA RESULT: -7.596628423      2.044      4.257
REMARK  13 active torsions:
REMARK  status: ('A' for Active; 'I' for Inactive)
REMARK    1  A    between atoms: C2_2  and  C4_4 
REMARK    2  A    between atoms: C7_7  and  O1_8 
REMARK    3  A    between atoms: C9_11  and  C10_12 
REMARK    4  A    between atoms: C10_12  and  C11_13 
REMARK    5  A    between atoms: C11_13  and  C12_14 
REMARK    6  A    between atoms: C15_17  and  O2_18 
REMARK    7  A    between atoms: C17_20  and  O3_21 
REMARK    8  A    between atoms: C18_23  and  C19_24 
REMARK    9  A    between atoms: C19_24  and  O4_25 
REMARK   10  A    between atoms: O4_25  and  C20_26 
REMARK       I    between atoms: C20_26  and  N1_28 
REMARK   11  A    between atoms: N1_28  and  C21_30 
REMARK   12  A    between atoms: C21_30  and  C22_31 
REMARK   13  A    between atoms: C22_31  and  N2_32 
ROOT
HETATM    1  C12 UNL     1      49.123  49.479  17.038  1.00  0.00    -0.053 C 
HETATM    2  C13 UNL     1      49.892  50.319  16.297  1.00  0.00    -0.046 C 
HETATM    3  C14 UNL     1      50.359  49.860  14.981  1.00  0.00     0.046 C 
HETATM    4  C15 UNL     1      50.248  51.638  16.813  1.00  0.00     0.179 C 
HETATM    5  C17 UNL     1      50.734  51.595  18.249  1.00  0.00     0.157 C 
HETATM    6  C18 UNL     1      49.999  50.586  19.074  1.00  0.00     0.046 C 
HETATM    7  C25 UNL     1      48.780  50.013  18.382  1.00  0.00     0.048 C 
ENDROOT
BRANCH   1   8
HETATM    8  C11 UNL     1      48.806  48.178  16.495  1.00  0.00     0.004 C 
BRANCH   8   9
HETATM    9  C10 UNL     1      47.601  47.859  15.735  1.00  0.00    -0.021 C 
BRANCH   9  10
HETATM   10  C9  UNL     1      46.710  48.832  15.098  1.00  0.00     0.018 C 
HETATM   11  C4  UNL     1      45.286  48.259  14.977  1.00  0.00     0.021 C 
HETATM   12  C5  UNL     1      45.201  47.336  13.797  1.00  0.00     0.012 C 
HETATM   13  C6  UNL     1      45.143  48.196  12.554  1.00  0.00     0.032 C 
HETATM   14  C7  UNL     1      45.857  49.468  12.823  1.00  0.00     0.118 C 
HETATM   15  C8  UNL     1      47.092  49.256  13.716  1.00  0.00     0.041 C 
BRANCH  11  16
HETATM   16  C2  UNL     1      44.872  47.609  16.254  1.00  0.00    -0.088 C 
HETATM   17  C1  UNL     1      44.190  46.481  16.270  1.00  0.00     0.014 C 
HETATM   18  C3  UNL     1      45.229  48.248  17.544  1.00  0.00     0.043 C 
ENDBRANCH  11  16
BRANCH  14  19
HETATM   19  O1  UNL     1      46.296  49.994  11.595  1.00  0.00    -0.396 OA
ATOM     20  H1  UNL     1      46.447  50.925  11.708  1.00  0.00     0.210 HD
ENDBRANCH  14  19
ENDBRANCH   9  10
ENDBRANCH   8   9
ENDBRANCH   1   8
BRANCH   4  21
HETATM   21  O2  UNL     1      49.224  52.576  16.682  1.00  0.00    -0.384 OA
HETATM   22  C16 UNL     1      48.367  52.207  15.650  1.00  0.00     0.202 C 
ENDBRANCH   4  21
BRANCH   6  23
HETATM   23  C19 UNL     1      50.879  49.497  19.641  1.00  0.00     0.188 C 
BRANCH  23  24
HETATM   24  O4  UNL     1      51.298  49.811  20.955  1.00  0.00    -0.303 OA
BRANCH  24  25
HETATM   25  C20 UNL     1      52.001  51.017  21.231  1.00  0.00     0.364 C 
HETATM   26  O5  UNL     1      53.204  50.963  20.887  1.00  0.00    -0.238 OA
HETATM   27  N1  UNL     1      51.339  52.103  21.830  1.00  0.00    -0.311 N 
ATOM     28  H1  UNL     1      50.360  51.935  22.060  1.00  0.00     0.170 HD
BRANCH  27  29
HETATM   29  C21 UNL     1      51.809  53.379  22.160  1.00  0.00     0.110 C 
BRANCH  29  30
HETATM   30  C22 UNL     1      51.216  54.629  21.682  1.00  0.00     0.102 C 
BRANCH  30  31
HETATM   31  N2  UNL     1      51.900  55.808  21.418  1.00  0.00    -0.397 N 
HETATM   32  C23 UNL     1      52.547  55.945  20.144  1.00  0.00     0.148 C 
HETATM   33  C24 UNL     1      51.202  56.998  21.807  1.00  0.00     0.148 C 
ENDBRANCH  30  31
ENDBRANCH  29  30
ENDBRANCH  27  29
ENDBRANCH  24  25
ENDBRANCH  23  24
ENDBRANCH   6  23
BRANCH   5  34
HETATM   34  O3  UNL     1      50.627  52.887  18.761  1.00  0.00    -0.392 OA
ATOM     35  H3  UNL     1      51.019  52.881  19.627  1.00  0.00     0.210 HD
ENDBRANCH   5  34
TORSDOF 13
ENDMDL
MODEL 5
REMARK VINA RESULT: -7.530701837      3.256      8.674
REMARK  13 active torsions:
REMARK  status: ('A' for Active; 'I' for Inactive)
REMARK    1  A    between atoms: C2_2  and  C4_4 
REMARK    2  A    between atoms: C7_7  and  O1_8 
REMARK    3  A    between atoms: C9_11  and  C10_12 
REMARK    4  A    between atoms: C10_12  and  C11_13 
REMARK    5  A    between atoms: C11_13  and  C12_14 
REMARK    6  A    between atoms: C15_17  and  O2_18 
REMARK    7  A    between atoms: C17_20  and  O3_21 
REMARK    8  A    between atoms: C18_23  and  C19_24 
REMARK    9  A    between atoms: C19_24  and  O4_25 
REMARK   10  A    between atoms: O4_25  and  C20_26 
REMARK       I    between atoms: C20_26  and  N1_28 
REMARK   11  A    between atoms: N1_28  and  C21_30 
REMARK   12  A    between atoms: C21_30  and  C22_31 
REMARK   13  A    between atoms: C22_31  and  N2_32 
ROOT
HETATM    1  C12 UNL     1      49.951  53.321  18.580  1.00  0.00    -0.053 C 
HETATM    2  C13 UNL     1      51.149  52.703  18.755  1.00  0.00    -0.046 C 
HETATM    3  C14 UNL     1      52.364  53.529  18.772  1.00  0.00     0.046 C 
HETATM    4  C15 UNL     1      51.212  51.252  18.910  1.00  0.00     0.179 C 
HETATM    5  C17 UNL     1      50.376  50.516  17.880  1.00  0.00     0.157 C 
HETATM    6  C18 UNL     1      49.101  51.230  17.559  1.00  0.00     0.046 C 
HETATM    7  C25 UNL     1      48.802  52.382  18.495  1.00  0.00     0.048 C 
ENDROOT
BRANCH   1   8
HETATM    8  C11 UNL     1      49.935  54.756  18.418  1.00  0.00     0.004 C 
BRANCH   8   9
HETATM    9  C10 UNL     1      49.146  55.682  19.225  1.00  0.00    -0.021 C 
BRANCH   9  10
HETATM   10  C9  UNL     1      49.441  56.078  20.605  1.00  0.00     0.018 C 
HETATM   11  C4  UNL     1      49.615  57.604  20.701  1.00  0.00     0.021 C 
HETATM   12  C5  UNL     1      50.990  57.995  20.244  1.00  0.00     0.012 C 
HETATM   13  C6  UNL     1      51.953  57.645  21.357  1.00  0.00     0.032 C 
HETATM   14  C7  UNL     1      51.403  56.495  22.116  1.00  0.00     0.118 C 
HETATM   15  C8  UNL     1      50.683  55.493  21.198  1.00  0.00     0.041 C 
BRANCH  11  16
HETATM   16  C2  UNL     1      48.533  58.304  19.951  1.00  0.00    -0.088 C 
HETATM   17  C1  UNL     1      48.751  58.867  18.780  1.00  0.00     0.014 C 
HETATM   18  C3  UNL     1      47.173  58.379  20.539  1.00  0.00     0.043 C 
ENDBRANCH  11  16
BRANCH  14  19
HETATM   19  O1  UNL     1      52.474  55.825  22.734  1.00  0.00    -0.396 OA
ATOM     20  H1  UNL     1      53.127  55.634  22.070  1.00  0.00     0.210 HD
ENDBRANCH  14  19
ENDBRANCH   9  10
ENDBRANCH   8   9
ENDBRANCH   1   8
BRANCH   4  21
HETATM   21  O2  UNL     1      50.883  50.819  20.193  1.00  0.00    -0.384 OA
HETATM   22  C16 UNL     1      52.032  50.704  20.969  1.00  0.00     0.202 C 
ENDBRANCH   4  21
BRANCH   6  23
HETATM   23  C19 UNL     1      48.975  51.643  16.112  1.00  0.00     0.188 C 
BRANCH  23  24
HETATM   24  O4  UNL     1      49.377  50.600  15.246  1.00  0.00    -0.303 OA
BRANCH  24  25
HETATM   25  C20 UNL     1      48.523  49.493  14.985  1.00  0.00     0.364 C 
HETATM   26  O5  UNL     1      48.874  48.458  15.597  1.00  0.00    -0.238 OA
HETATM   27  N1  UNL     1      47.423  49.633  14.120  1.00  0.00    -0.311 N 
ATOM     28  H1  UNL     1      47.325  50.557  13.698  1.00  0.00     0.170 HD
BRANCH  27  29
HETATM   29  C21 UNL     1      46.442  48.710  13.746  1.00  0.00     0.110 C 
BRANCH  29  30
HETATM   30  C22 UNL     1      45.247  48.405  14.534  1.00  0.00     0.102 C 
BRANCH  30  31
HETATM   31  N2  UNL     1      45.204  47.630  15.685  1.00  0.00    -0.397 N 
HETATM   32  C23 UNL     1      45.517  48.257  16.937  1.00  0.00     0.148 C 
HETATM   33  C24 UNL     1      44.063  46.767  15.777  1.00  0.00     0.148 C 
ENDBRANCH  30  31
ENDBRANCH  29  30
ENDBRANCH  27  29
ENDBRANCH  24  25
ENDBRANCH  23  24
ENDBRANCH   6  23
BRANCH   5  34
HETATM   34  O3  UNL     1      50.160  49.227  18.368  1.00  0.00    -0.392 OA
ATOM     35  H3  UNL     1      50.006  48.664  17.619  1.00  0.00     0.210 HD
ENDBRANCH   5  34
TORSDOF 13
ENDMDL
