MODEL 1
REMARK VINA RESULT: -8.684487430      0.000      0.000
REMARK  14 active torsions:
REMARK  status: ('A' for Active; 'I' for Inactive)
REMARK    1  A    between atoms: C2_2  and  C3_3 
REMARK    2  A    between atoms: C3_3  and  C4_4 
REMARK    3  A    between atoms: C4_4  and  C5_5 
REMARK    4  A    between atoms: C5_5  and  C6_6 
REMARK    5  A    between atoms: C6_6  and  C7_7 
REMARK    6  A    between atoms: C7_7  and  O2_9 
REMARK    7  A    between atoms: O2_9  and  C8_10 
REMARK    8  A    between atoms: C10_12  and  C11_13 
REMARK    9  A    between atoms: C14_16  and  C15_17 
REMARK   10  A    between atoms: C15_17  and  O3_18 
REMARK   11  A    between atoms: C15_17  and  C16_20 
REMARK   12  A    between atoms: C16_20  and  C18_22 
REMARK   13  A    between atoms: C18_22  and  O4_24 
REMARK   14  A    between atoms: C22_29  and  O6_30 
ROOT
HETATM    1  C8  UNL     1      50.206  53.271  18.545  1.00  0.00     0.141 C 
HETATM    2  C9  UNL     1      49.509  54.620  18.498  1.00  0.00     0.065 C 
HETATM    3  C10 UNL     1      50.060  55.648  19.408  1.00  0.00     0.128 C 
HETATM    4  O5  UNL     1      50.607  55.226  20.585  1.00  0.00    -0.377 OA
HETATM    5  C21 UNL     1      51.443  54.160  20.415  1.00  0.00     0.157 C 
HETATM    6  C22 UNL     1      52.078  53.622  21.634  1.00  0.00     0.148 C 
HETATM    7  C23 UNL     1      51.842  52.118  21.677  1.00  0.00     0.039 C 
HETATM    8  C24 UNL     1      51.289  51.776  20.283  1.00  0.00    -0.007 C 
HETATM    9  C25 UNL     1      52.401  51.398  19.379  1.00  0.00     0.010 C 
HETATM   10  C26 UNL     1      50.550  52.998  19.958  1.00  0.00     0.050 C 
ENDROOT
BRANCH   3  11
HETATM   11  C11 UNL     1      48.880  56.561  19.787  1.00  0.00     0.015 C 
HETATM   12  C12 UNL     1      49.135  57.264  21.080  1.00  0.00     0.007 C 
HETATM   13  C13 UNL     1      48.349  58.586  20.977  1.00  0.00     0.007 C 
HETATM   14  C14 UNL     1      48.417  58.943  19.532  1.00  0.00     0.015 C 
HETATM   15  C20 UNL     1      48.663  57.639  18.784  1.00  0.00     0.014 C 
BRANCH  14  16
HETATM   16  C15 UNL     1      47.256  59.611  18.918  1.00  0.00     0.128 C 
BRANCH  16  17
HETATM   17  O3  UNL     1      47.294  59.268  17.529  1.00  0.00    -0.395 OA
ATOM     18  H3  UNL     1      46.938  60.017  17.065  1.00  0.00     0.210 HD
ENDBRANCH  16  17
BRANCH  16  19
HETATM   19  C16 UNL     1      47.174  61.096  18.950  1.00  0.00     0.039 C 
HETATM   20  C17 UNL     1      48.114  61.659  17.840  1.00  0.00     0.015 C 
BRANCH  19  21
HETATM   21  C18 UNL     1      45.844  61.713  18.641  1.00  0.00     0.120 C 
HETATM   22  C19 UNL     1      45.906  63.139  19.226  1.00  0.00     0.040 C 
BRANCH  21  23
HETATM   23  O4  UNL     1      45.645  61.815  17.249  1.00  0.00    -0.396 OA
ATOM     24  H4  UNL     1      45.145  62.593  17.032  1.00  0.00     0.210 HD
ENDBRANCH  21  23
ENDBRANCH  19  21
ENDBRANCH  16  19
ENDBRANCH  14  16
ENDBRANCH   3  11
BRANCH   1  25
HETATM   25  O2  UNL     1      49.316  52.341  17.976  1.00  0.00    -0.315 OA
BRANCH  25  26
HETATM   26  C7  UNL     1      49.763  51.504  16.992  1.00  0.00     0.259 C 
HETATM   27  O1  UNL     1      50.552  51.903  16.085  1.00  0.00    -0.265 OA
BRANCH  26  28
HETATM   28  C6  UNL     1      49.364  50.059  16.905  1.00  0.00     0.111 C 
BRANCH  28  29
HETATM   29  C5  UNL     1      49.418  49.383  18.232  1.00  0.00     0.010 C 
BRANCH  29  30
HETATM   30  C4  UNL     1      48.028  49.134  18.733  1.00  0.00     0.004 C 
BRANCH  30  31
HETATM   31  C3  UNL     1      47.001  49.240  17.653  1.00  0.00     0.026 C 
BRANCH  31  32
HETATM   32  C2  UNL     1      45.677  48.806  18.157  1.00  0.00    -0.037 C 
HETATM   33  C1  UNL     1      45.611  47.967  19.165  1.00  0.00     0.007 C 
ENDBRANCH  31  32
ENDBRANCH  30  31
ENDBRANCH  29  30
ENDBRANCH  28  29
ENDBRANCH  26  28
ENDBRANCH  25  26
ENDBRANCH   1  25
BRANCH   6  34
HETATM   34  O6  UNL     1      51.724  54.249  22.807  1.00  0.00    -0.393 OA
ATOM     35  H6  UNL     1      51.230  53.716  23.419  1.00  0.00     0.210 HD
ENDBRANCH   6  34
TORSDOF 14
ENDMDL
MODEL 2
REMARK VINA RESULT: -8.494396715      2.922      8.954
REMARK  14 active torsions:
REMARK  status: ('A' for Active; 'I' for Inactive)
REMARK    1  A    between atoms: C2_2  and  C3_3 
REMARK    2  A    between atoms: C3_3  and  C4_4 
REMARK    3  A    between atoms: C4_4  and  C5_5 
REMARK    4  A    between atoms: C5_5  and  C6_6 
REMARK    5  A    between atoms: C6_6  and  C7_7 
REMARK    6  A    between atoms: C7_7  and  O2_9 
REMARK    7  A    between atoms: O2_9  and  C8_10 
REMARK    8  A    between atoms: C10_12  and  C11_13 
REMARK    9  A    between atoms: C14_16  and  C15_17 
REMARK   10  A    between atoms: C15_17  and  O3_18 
REMARK   11  A    between atoms: C15_17  and  C16_20 
REMARK   12  A    between atoms: C16_20  and  C18_22 
REMARK   13  A    between atoms: C18_22  and  O4_24 
REMARK   14  A    between atoms: C22_29  and  O6_30 
ROOT
HETATM    1  C8  UNL     1      50.123  52.334  18.876  1.00  0.00     0.141 C 
HETATM    2  C9  UNL     1      49.077  51.630  18.028  1.00  0.00     0.065 C 
HETATM    3  C10 UNL     1      48.722  50.263  18.469  1.00  0.00     0.128 C 
HETATM    4  O5  UNL     1      49.692  49.519  19.076  1.00  0.00    -0.377 OA
HETATM    5  C21 UNL     1      50.368  50.228  20.027  1.00  0.00     0.157 C 
HETATM    6  C22 UNL     1      51.448  49.512  20.735  1.00  0.00     0.148 C 
HETATM    7  C23 UNL     1      52.711  50.363  20.674  1.00  0.00     0.039 C 
HETATM    8  C24 UNL     1      52.231  51.725  20.146  1.00  0.00    -0.007 C 
HETATM    9  C25 UNL     1      51.898  52.616  21.282  1.00  0.00     0.010 C 
HETATM   10  C26 UNL     1      51.131  51.323  19.267  1.00  0.00     0.050 C 
ENDROOT
BRANCH   3  11
HETATM   11  C11 UNL     1      48.325  49.493  17.197  1.00  0.00     0.015 C 
HETATM   12  C12 UNL     1      49.036  48.181  17.116  1.00  0.00     0.007 C 
HETATM   13  C13 UNL     1      48.088  47.262  16.322  1.00  0.00     0.007 C 
HETATM   14  C14 UNL     1      46.723  47.717  16.709  1.00  0.00     0.015 C 
HETATM   15  C20 UNL     1      46.874  49.160  17.175  1.00  0.00     0.014 C 
BRANCH  14  16
HETATM   16  C15 UNL     1      45.654  47.674  15.696  1.00  0.00     0.128 C 
BRANCH  16  17
HETATM   17  O3  UNL     1      45.049  46.382  15.817  1.00  0.00    -0.395 OA
ATOM     18  H3  UNL     1      44.882  46.087  14.929  1.00  0.00     0.210 HD
ENDBRANCH  16  17
BRANCH  16  19
HETATM   19  C16 UNL     1      46.014  47.801  14.258  1.00  0.00     0.039 C 
HETATM   20  C17 UNL     1      45.089  46.849  13.438  1.00  0.00     0.015 C 
BRANCH  19  21
HETATM   21  C18 UNL     1      45.807  49.141  13.618  1.00  0.00     0.120 C 
HETATM   22  C19 UNL     1      47.189  49.824  13.638  1.00  0.00     0.040 C 
BRANCH  21  23
HETATM   23  O4  UNL     1      45.402  49.002  12.275  1.00  0.00    -0.396 OA
ATOM     24  H4  UNL     1      45.193  49.847  11.893  1.00  0.00     0.210 HD
ENDBRANCH  21  23
ENDBRANCH  19  21
ENDBRANCH  16  19
ENDBRANCH  14  16
ENDBRANCH   3  11
BRANCH   1  25
HETATM   25  O2  UNL     1      50.632  53.385  18.091  1.00  0.00    -0.315 OA
BRANCH  25  26
HETATM   26  C7  UNL     1      50.791  54.621  18.653  1.00  0.00     0.259 C 
HETATM   27  O1  UNL     1      51.928  55.174  18.739  1.00  0.00    -0.265 OA
BRANCH  26  28
HETATM   28  C6  UNL     1      49.646  55.419  19.209  1.00  0.00     0.111 C 
BRANCH  28  29
HETATM   29  C5  UNL     1      49.891  55.840  20.616  1.00  0.00     0.010 C 
BRANCH  29  30
HETATM   30  C4  UNL     1      50.112  57.321  20.673  1.00  0.00     0.004 C 
BRANCH  30  31
HETATM   31  C3  UNL     1      49.123  58.015  21.553  1.00  0.00     0.026 C 
BRANCH  31  32
HETATM   32  C2  UNL     1      47.856  58.247  20.821  1.00  0.00    -0.037 C 
HETATM   33  C1  UNL     1      47.871  58.938  19.705  1.00  0.00     0.007 C 
ENDBRANCH  31  32
ENDBRANCH  30  31
ENDBRANCH  29  30
ENDBRANCH  28  29
ENDBRANCH  26  28
ENDBRANCH  25  26
ENDBRANCH   1  25
BRANCH   6  34
HETATM   34  O6  UNL     1      51.661  48.216  20.327  1.00  0.00    -0.393 OA
ATOM     35  H6  UNL     1      50.890  47.757  20.013  1.00  0.00     0.210 HD
ENDBRANCH   6  34
TORSDOF 14
ENDMDL
MODEL 3
REMARK VINA RESULT: -8.481110753      0.588      1.009
REMARK  14 active torsions:
REMARK  status: ('A' for Active; 'I' for Inactive)
REMARK    1  A    between atoms: C2_2  and  C3_3 
REMARK    2  A    between atoms: C3_3  and  C4_4 
REMARK    3  A    between atoms: C4_4  and  C5_5 
REMARK    4  A    between atoms: C5_5  and  C6_6 
REMARK    5  A    between atoms: C6_6  and  C7_7 
REMARK    6  A    between atoms: C7_7  and  O2_9 
REMARK    7  A    between atoms: O2_9  and  C8_10 
REMARK    8  A    between atoms: C10_12  and  C11_13 
REMARK    9  A    between atoms: C14_16  and  C15_17 
REMARK   10  A    between atoms: C15_17  and  O3_18 
REMARK   11  A    between atoms: C15_17  and  C16_20 
REMARK   12  A    between atoms: C16_20  and  C18_22 
REMARK   13  A    between atoms: C18_22  and  O4_24 
REMARK   14  A    between atoms: C22_29  and  O6_30 
ROOT
HETATM    1  C8  UNL     1      50.286  53.275  18.438  1.00  0.00     0.141 C 
HETATM    2  C9  UNL     1      49.621  54.641  18.458  1.00  0.00     0.065 C 
HETATM    3  C10 UNL     1      50.118  55.571  19.495  1.00  0.00     0.128 C 
HETATM    4  O5  UNL     1      50.563  55.035  20.669  1.00  0.00    -0.377 OA
HETATM    5  C21 UNL     1      51.390  53.967  20.469  1.00  0.00     0.157 C 
HETATM    6  C22 UNL     1      51.917  53.309  21.681  1.00  0.00     0.148 C 
HETATM    7  C23 UNL     1      51.650  51.813  21.572  1.00  0.00     0.039 C 
HETATM    8  C24 UNL     1      51.201  51.608  20.115  1.00  0.00    -0.007 C 
HETATM    9  C25 UNL     1      52.373  51.281  19.269  1.00  0.00     0.010 C 
HETATM   10  C26 UNL     1      50.513  52.872  19.844  1.00  0.00     0.050 C 
ENDROOT
BRANCH   3  11
HETATM   11  C11 UNL     1      48.930  56.478  19.862  1.00  0.00     0.015 C 
HETATM   12  C12 UNL     1      49.212  57.261  21.103  1.00  0.00     0.007 C 
HETATM   13  C13 UNL     1      48.390  58.557  20.952  1.00  0.00     0.007 C 
HETATM   14  C14 UNL     1      48.400  58.831  19.487  1.00  0.00     0.015 C 
HETATM   15  C20 UNL     1      48.653  57.491  18.807  1.00  0.00     0.014 C 
BRANCH  14  16
HETATM   16  C15 UNL     1      47.203  59.435  18.877  1.00  0.00     0.128 C 
BRANCH  16  17
HETATM   17  O3  UNL     1      47.163  58.956  17.529  1.00  0.00    -0.395 OA
ATOM     18  H3  UNL     1      47.129  59.729  16.977  1.00  0.00     0.210 HD
ENDBRANCH  16  17
BRANCH  16  19
HETATM   19  C16 UNL     1      47.116  60.915  18.766  1.00  0.00     0.039 C 
HETATM   20  C17 UNL     1      48.333  61.414  17.926  1.00  0.00     0.015 C 
BRANCH  19  21
HETATM   21  C18 UNL     1      45.928  61.478  18.045  1.00  0.00     0.120 C 
HETATM   22  C19 UNL     1      45.592  62.795  18.772  1.00  0.00     0.040 C 
BRANCH  21  23
HETATM   23  O4  UNL     1      46.247  61.781  16.705  1.00  0.00    -0.396 OA
ATOM     24  H4  UNL     1      46.955  62.413  16.659  1.00  0.00     0.210 HD
ENDBRANCH  21  23
ENDBRANCH  19  21
ENDBRANCH  16  19
ENDBRANCH  14  16
ENDBRANCH   3  11
BRANCH   1  25
HETATM   25  O2  UNL     1      49.425  52.421  17.723  1.00  0.00    -0.315 OA
BRANCH  25  26
HETATM   26  C7  UNL     1      49.876  51.826  16.579  1.00  0.00     0.259 C 
HETATM   27  O1  UNL     1      51.045  52.031  16.136  1.00  0.00    -0.265 OA
BRANCH  26  28
HETATM   28  C6  UNL     1      49.035  50.890  15.759  1.00  0.00     0.111 C 
BRANCH  28  29
HETATM   29  C5  UNL     1      49.608  49.515  15.718  1.00  0.00     0.010 C 
BRANCH  29  30
HETATM   30  C4  UNL     1      48.860  48.623  16.662  1.00  0.00     0.004 C 
BRANCH  30  31
HETATM   31  C3  UNL     1      49.289  48.804  18.082  1.00  0.00     0.026 C 
BRANCH  31  32
HETATM   32  C2  UNL     1      48.130  49.178  18.926  1.00  0.00    -0.037 C 
HETATM   33  C1  UNL     1      46.912  48.977  18.480  1.00  0.00     0.007 C 
ENDBRANCH  31  32
ENDBRANCH  30  31
ENDBRANCH  29  30
ENDBRANCH  28  29
ENDBRANCH  26  28
ENDBRANCH  25  26
ENDBRANCH   1  25
BRANCH   6  34
HETATM   34  O6  UNL     1      51.485  53.840  22.874  1.00  0.00    -0.393 OA
ATOM     35  H6  UNL     1      50.673  54.333  22.829  1.00  0.00     0.210 HD
ENDBRANCH   6  34
TORSDOF 14
ENDMDL
MODEL 4
REMARK VINA RESULT: -8.472064800      3.279      8.949
REMARK  14 active torsions:
REMARK  status: ('A' for Active; 'I' for Inactive)
REMARK    1  A    between atoms: C2_2  and  C3_3 
REMARK    2  A    between atoms: C3_3  and  C4_4 
REMARK    3  A    between atoms: C4_4  and  C5_5 
REMARK    4  A    between atoms: C5_5  and  C6_6 
REMARK    5  A    between atoms: C6_6  and  C7_7 
REMARK    6  A    between atoms: C7_7  and  O2_9 
REMARK    7  A    between atoms: O2_9  and  C8_10 
REMARK    8  A    between atoms: C10_12  and  C11_13 
REMARK    9  A    between atoms: C14_16  and  C15_17 
REMARK   10  A    between atoms: C15_17  and  O3_18 
REMARK   11  A    between atoms: C15_17  and  C16_20 
REMARK   12  A    between atoms: C16_20  and  C18_22 
REMARK   13  A    between atoms: C18_22  and  O4_24 
REMARK   14  A    between atoms: C22_29  and  O6_30 
ROOT
HETATM    1  C8  UNL     1      50.133  52.304  18.818  1.00  0.00     0.141 C 
HETATM    2  C9  UNL     1      49.082  51.591  17.984  1.00  0.00     0.065 C 
HETATM    3  C10 UNL     1      48.721  50.234  18.449  1.00  0.00     0.128 C 
HETATM    4  O5  UNL     1      49.689  49.496  19.066  1.00  0.00    -0.377 OA
HETATM    5  C21 UNL     1      50.371  50.217  20.004  1.00  0.00     0.157 C 
HETATM    6  C22 UNL     1      51.449  49.508  20.722  1.00  0.00     0.148 C 
HETATM    7  C23 UNL     1      52.715  50.351  20.644  1.00  0.00     0.039 C 
HETATM    8  C24 UNL     1      52.241  51.707  20.094  1.00  0.00    -0.007 C 
HETATM    9  C25 UNL     1      51.914  52.619  21.217  1.00  0.00     0.010 C 
HETATM   10  C26 UNL     1      51.137  51.296  19.224  1.00  0.00     0.050 C 
ENDROOT
BRANCH   3  11
HETATM   11  C11 UNL     1      48.318  49.444  17.190  1.00  0.00     0.015 C 
HETATM   12  C12 UNL     1      49.019  48.126  17.132  1.00  0.00     0.007 C 
HETATM   13  C13 UNL     1      48.064  47.200  16.355  1.00  0.00     0.007 C 
HETATM   14  C14 UNL     1      46.703  47.673  16.734  1.00  0.00     0.015 C 
HETATM   15  C20 UNL     1      46.865  49.122  17.175  1.00  0.00     0.014 C 
BRANCH  14  16
HETATM   16  C15 UNL     1      45.633  47.619  15.722  1.00  0.00     0.128 C 
BRANCH  16  17
HETATM   17  O3  UNL     1      45.055  46.314  15.828  1.00  0.00    -0.395 OA
ATOM     18  H3  UNL     1      44.720  46.105  14.964  1.00  0.00     0.210 HD
ENDBRANCH  16  17
BRANCH  16  19
HETATM   19  C16 UNL     1      45.988  47.771  14.285  1.00  0.00     0.039 C 
HETATM   20  C17 UNL     1      45.076  46.816  13.455  1.00  0.00     0.015 C 
BRANCH  19  21
HETATM   21  C18 UNL     1      45.759  49.116  13.664  1.00  0.00     0.120 C 
HETATM   22  C19 UNL     1      47.141  49.800  13.644  1.00  0.00     0.040 C 
BRANCH  21  23
HETATM   23  O4  UNL     1      45.310  48.988  12.333  1.00  0.00    -0.396 OA
ATOM     24  H4  UNL     1      45.943  48.517  11.804  1.00  0.00     0.210 HD
ENDBRANCH  21  23
ENDBRANCH  19  21
ENDBRANCH  16  19
ENDBRANCH  14  16
ENDBRANCH   3  11
BRANCH   1  25
HETATM   25  O2  UNL     1      50.645  53.340  18.015  1.00  0.00    -0.315 OA
BRANCH  25  26
HETATM   26  C7  UNL     1      50.679  54.614  18.510  1.00  0.00     0.259 C 
HETATM   27  O1  UNL     1      51.771  55.223  18.711  1.00  0.00    -0.265 OA
BRANCH  26  28
HETATM   28  C6  UNL     1      49.439  55.390  18.853  1.00  0.00     0.111 C 
BRANCH  28  29
HETATM   29  C5  UNL     1      49.286  55.578  20.323  1.00  0.00     0.010 C 
BRANCH  29  30
HETATM   30  C4  UNL     1      49.077  57.030  20.631  1.00  0.00     0.004 C 
BRANCH  30  31
HETATM   31  C3  UNL     1      50.172  57.601  21.472  1.00  0.00     0.026 C 
BRANCH  31  32
HETATM   32  C2  UNL     1      51.067  56.523  21.954  1.00  0.00    -0.037 C 
HETATM   33  C1  UNL     1      52.368  56.667  21.853  1.00  0.00     0.007 C 
ENDBRANCH  31  32
ENDBRANCH  30  31
ENDBRANCH  29  30
ENDBRANCH  28  29
ENDBRANCH  26  28
ENDBRANCH  25  26
ENDBRANCH   1  25
BRANCH   6  34
HETATM   34  O6  UNL     1      51.654  48.204  20.335  1.00  0.00    -0.393 OA
ATOM     35  H6  UNL     1      51.576  47.557  21.027  1.00  0.00     0.210 HD
ENDBRANCH   6  34
TORSDOF 14
ENDMDL
MODEL 5
REMARK VINA RESULT: -8.442731544      2.691      8.668
REMARK  14 active torsions:
REMARK  status: ('A' for Active; 'I' for Inactive)
REMARK    1  A    between atoms: C2_2  and  C3_3 
REMARK    2  A    between atoms: C3_3  and  C4_4 
REMARK    3  A    between atoms: C4_4  and  C5_5 
REMARK    4  A    between atoms: C5_5  and  C6_6 
REMARK    5  A    between atoms: C6_6  and  C7_7 
REMARK    6  A    between atoms: C7_7  and  O2_9 
REMARK    7  A    between atoms: O2_9  and  C8_10 
REMARK    8  A    between atoms: C10_12  and  C11_13 
REMARK    9  A    between atoms: C14_16  and  C15_17 
REMARK   10  A    between atoms: C15_17  and  O3_18 
REMARK   11  A    between atoms: C15_17  and  C16_20 
REMARK   12  A    between atoms: C16_20  and  C18_22 
REMARK   13  A    between atoms: C18_22  and  O4_24 
REMARK   14  A    between atoms: C22_29  and  O6_30 
ROOT
HETATM    1  C8  UNL     1      50.592  53.627  19.151  1.00  0.00     0.141 C 
HETATM    2  C9  UNL     1      49.747  53.282  17.935  1.00  0.00     0.065 C 
HETATM    3  C10 UNL     1      49.217  51.902  17.905  1.00  0.00     0.128 C 
HETATM    4  O5  UNL     1      49.964  50.921  18.491  1.00  0.00    -0.377 OA
HETATM    5  C21 UNL     1      50.425  51.289  19.723  1.00  0.00     0.157 C 
HETATM    6  C22 UNL     1      51.255  50.297  20.435  1.00  0.00     0.148 C 
HETATM    7  C23 UNL     1      52.540  50.979  20.886  1.00  0.00     0.039 C 
HETATM    8  C24 UNL     1      52.284  52.477  20.648  1.00  0.00    -0.007 C 
HETATM    9  C25 UNL     1      51.734  53.095  21.878  1.00  0.00     0.010 C 
HETATM   10  C26 UNL     1      51.412  52.438  19.472  1.00  0.00     0.050 C 
ENDROOT
BRANCH   3  11
HETATM   11  C11 UNL     1      49.102  51.521  16.418  1.00  0.00     0.015 C 
HETATM   12  C12 UNL     1      50.367  50.904  15.919  1.00  0.00     0.007 C 
HETATM   13  C13 UNL     1      49.929  49.954  14.787  1.00  0.00     0.007 C 
HETATM   14  C14 UNL     1      48.594  49.455  15.222  1.00  0.00     0.015 C 
HETATM   15  C20 UNL     1      48.043  50.501  16.183  1.00  0.00     0.014 C 
BRANCH  14  16
HETATM   16  C15 UNL     1      47.572  49.196  14.193  1.00  0.00     0.128 C 
BRANCH  16  17
HETATM   17  O3  UNL     1      47.427  50.420  13.464  1.00  0.00    -0.395 OA
ATOM     18  H3  UNL     1      47.175  50.172  12.583  1.00  0.00     0.210 HD
ENDBRANCH  16  17
BRANCH  16  19
HETATM   19  C16 UNL     1      46.193  48.831  14.617  1.00  0.00     0.039 C 
HETATM   20  C17 UNL     1      45.341  48.576  13.335  1.00  0.00     0.015 C 
BRANCH  19  21
HETATM   21  C18 UNL     1      46.034  47.570  15.410  1.00  0.00     0.120 C 
HETATM   22  C19 UNL     1      45.296  47.985  16.699  1.00  0.00     0.040 C 
BRANCH  21  23
HETATM   23  O4  UNL     1      45.232  46.637  14.721  1.00  0.00    -0.396 OA
ATOM     24  H4  UNL     1      44.317  46.732  14.961  1.00  0.00     0.210 HD
ENDBRANCH  21  23
ENDBRANCH  19  21
ENDBRANCH  16  19
ENDBRANCH  14  16
ENDBRANCH   3  11
BRANCH   1  25
HETATM   25  O2  UNL     1      51.337  54.770  18.809  1.00  0.00    -0.315 OA
BRANCH  25  26
HETATM   26  C7  UNL     1      51.200  55.904  19.559  1.00  0.00     0.259 C 
HETATM   27  O1  UNL     1      52.036  56.854  19.492  1.00  0.00    -0.265 OA
BRANCH  26  28
HETATM   28  C6  UNL     1      50.060  56.120  20.513  1.00  0.00     0.111 C 
BRANCH  28  29
HETATM   29  C5  UNL     1      50.388  57.132  21.556  1.00  0.00     0.010 C 
BRANCH  29  30
HETATM   30  C4  UNL     1      49.252  58.097  21.704  1.00  0.00     0.004 C 
BRANCH  30  31
HETATM   31  C3  UNL     1      48.171  57.870  20.698  1.00  0.00     0.026 C 
BRANCH  31  32
HETATM   32  C2  UNL     1      47.954  59.092  19.890  1.00  0.00    -0.037 C 
HETATM   33  C1  UNL     1      48.354  59.121  18.640  1.00  0.00     0.007 C 
ENDBRANCH  31  32
ENDBRANCH  30  31
ENDBRANCH  29  30
ENDBRANCH  28  29
ENDBRANCH  26  28
ENDBRANCH  25  26
ENDBRANCH   1  25
BRANCH   6  34
HETATM   34  O6  UNL     1      51.487  49.125  19.753  1.00  0.00    -0.393 OA
ATOM     35  H6  UNL     1      52.353  49.042  19.371  1.00  0.00     0.210 HD
ENDBRANCH   6  34
TORSDOF 14
ENDMDL
