MODEL 1
REMARK VINA RESULT: -9.189651056      0.000      0.000
REMARK  14 active torsions:
REMARK  status: ('A' for Active; 'I' for Inactive)
REMARK    1  A    between atoms: C2_2  and  C3_3 
REMARK    2  A    between atoms: C3_3  and  C4_4 
REMARK    3  A    between atoms: C3_3  and  C22_29 
REMARK    4  A    between atoms: C5_5  and  C6_6 
REMARK    5  A    between atoms: C6_6  and  C7_7 
REMARK    6  A    between atoms: C6_6  and  O2_9 
REMARK    7  A    between atoms: O2_9  and  C8_10 
REMARK    8  A    between atoms: C8_10  and  C9_12 
REMARK    9  A    between atoms: C9_12  and  O4_13 
REMARK   10  A    between atoms: C18_23  and  O5_24 
REMARK   11  A    between atoms: C22_29  and  C23_30 
REMARK   12  A    between atoms: C23_30  and  C24_31 
REMARK   13  A    between atoms: C24_31  and  C25_32 
REMARK   14  A    between atoms: C25_32  and  O6_34 
ROOT
HETATM    1  C8  UNL     1      52.507  52.422  17.258  1.00  0.00     0.295 C 
HETATM    2  O3  UNL     1      53.586  52.112  16.707  1.00  0.00    -0.262 OA
ENDROOT
BRANCH   1   3
HETATM    3  O2  UNL     1      51.367  52.419  16.490  1.00  0.00    -0.303 OA
BRANCH   3   4
HETATM    4  C6  UNL     1      50.539  51.282  16.482  1.00  0.00     0.215 C 
BRANCH   4   5
HETATM    5  C5  UNL     1      49.137  51.525  16.865  1.00  0.00     0.009 C 
HETATM    6  C4  UNL     1      48.290  50.670  17.390  1.00  0.00    -0.023 C 
BRANCH   6   7
HETATM    7  C3  UNL     1      48.588  49.261  17.704  1.00  0.00     0.007 C 
BRANCH   7   8
HETATM    8  C2  UNL     1      48.536  48.437  16.400  1.00  0.00     0.004 C 
HETATM    9  C1  UNL     1      49.117  47.070  16.660  1.00  0.00     0.006 C 
ENDBRANCH   7   8
BRANCH   7  10
HETATM   10  C22 UNL     1      47.420  48.773  18.562  1.00  0.00     0.008 C 
BRANCH  10  11
HETATM   11  C23 UNL     1      46.096  48.993  17.913  1.00  0.00     0.003 C 
BRANCH  11  12
HETATM   12  C24 UNL     1      45.321  47.706  17.882  1.00  0.00     0.031 C 
BRANCH  12  13
HETATM   13  C25 UNL     1      44.538  47.521  16.610  1.00  0.00     0.114 C 
HETATM   14  C26 UNL     1      45.565  47.437  15.479  1.00  0.00     0.039 C 
BRANCH  13  15
HETATM   15  O6  UNL     1      43.800  46.359  16.643  1.00  0.00    -0.396 OA
ATOM     16  H6  UNL     1      43.465  46.139  15.782  1.00  0.00     0.210 HD
ENDBRANCH  13  15
ENDBRANCH  12  13
ENDBRANCH  11  12
ENDBRANCH  10  11
ENDBRANCH   7  10
ENDBRANCH   6   7
ENDBRANCH   4   5
BRANCH   4  17
HETATM   17  C7  UNL     1      50.640  50.672  15.127  1.00  0.00     0.267 C 
HETATM   18  O1  UNL     1      51.614  50.878  14.446  1.00  0.00    -0.304 OA
ENDBRANCH   4  17
ENDBRANCH   3   4
ENDBRANCH   1   3
BRANCH   1  19
HETATM   19  C9  UNL     1      52.412  52.790  18.686  1.00  0.00     0.149 C 
HETATM   20  C10 UNL     1      51.835  51.643  19.510  1.00  0.00     0.049 C 
HETATM   21  C11 UNL     1      51.243  52.439  20.681  1.00  0.00     0.009 C 
HETATM   22  C12 UNL     1      50.557  53.555  19.947  1.00  0.00    -0.002 C 
HETATM   23  C13 UNL     1      51.446  53.929  18.825  1.00  0.00     0.035 C 
HETATM   24  C21 UNL     1      50.122  54.679  20.827  1.00  0.00     0.001 C 
HETATM   25  C14 UNL     1      52.219  55.204  19.027  1.00  0.00     0.009 C 
HETATM   26  C15 UNL     1      52.461  55.520  20.479  1.00  0.00     0.012 C 
HETATM   27  C16 UNL     1      51.179  55.610  21.268  1.00  0.00    -0.014 C 
HETATM   28  C17 UNL     1      51.541  55.490  22.734  1.00  0.00     0.018 C 
HETATM   29  C18 UNL     1      50.641  57.031  21.070  1.00  0.00     0.126 C 
HETATM   30  C19 UNL     1      49.201  56.881  20.662  1.00  0.00     0.033 C 
HETATM   31  C20 UNL     1      49.088  55.496  20.062  1.00  0.00     0.008 C 
BRANCH  19  32
HETATM   32  O4  UNL     1      53.661  53.059  19.241  1.00  0.00    -0.379 OA
ATOM     33  H4  UNL     1      53.654  52.983  20.188  1.00  0.00     0.211 HD
ENDBRANCH  19  32
BRANCH  29  34
HETATM   34  O5  UNL     1      50.687  57.771  22.231  1.00  0.00    -0.395 OA
ATOM     35  H5  UNL     1      51.571  58.039  22.451  1.00  0.00     0.210 HD
ENDBRANCH  29  34
ENDBRANCH   1  19
TORSDOF 14
ENDMDL
MODEL 2
REMARK VINA RESULT: -9.164115671      1.060      1.520
REMARK  14 active torsions:
REMARK  status: ('A' for Active; 'I' for Inactive)
REMARK    1  A    between atoms: C2_2  and  C3_3 
REMARK    2  A    between atoms: C3_3  and  C4_4 
REMARK    3  A    between atoms: C3_3  and  C22_29 
REMARK    4  A    between atoms: C5_5  and  C6_6 
REMARK    5  A    between atoms: C6_6  and  C7_7 
REMARK    6  A    between atoms: C6_6  and  O2_9 
REMARK    7  A    between atoms: O2_9  and  C8_10 
REMARK    8  A    between atoms: C8_10  and  C9_12 
REMARK    9  A    between atoms: C9_12  and  O4_13 
REMARK   10  A    between atoms: C18_23  and  O5_24 
REMARK   11  A    between atoms: C22_29  and  C23_30 
REMARK   12  A    between atoms: C23_30  and  C24_31 
REMARK   13  A    between atoms: C24_31  and  C25_32 
REMARK   14  A    between atoms: C25_32  and  O6_34 
ROOT
HETATM    1  C8  UNL     1      52.439  52.354  17.167  1.00  0.00     0.295 C 
HETATM    2  O3  UNL     1      53.515  52.061  16.601  1.00  0.00    -0.262 OA
ENDROOT
BRANCH   1   3
HETATM    3  O2  UNL     1      51.290  52.340  16.413  1.00  0.00    -0.303 OA
BRANCH   3   4
HETATM    4  C6  UNL     1      50.506  51.174  16.365  1.00  0.00     0.215 C 
BRANCH   4   5
HETATM    5  C5  UNL     1      49.065  51.377  16.605  1.00  0.00     0.009 C 
HETATM    6  C4  UNL     1      48.112  50.475  16.565  1.00  0.00    -0.023 C 
BRANCH   6   7
HETATM    7  C3  UNL     1      48.305  49.046  16.260  1.00  0.00     0.007 C 
BRANCH   7   8
HETATM    8  C2  UNL     1      47.363  48.650  15.103  1.00  0.00     0.004 C 
HETATM    9  C1  UNL     1      47.225  49.819  14.161  1.00  0.00     0.006 C 
ENDBRANCH   7   8
BRANCH   7  10
HETATM   10  C22 UNL     1      47.806  48.290  17.493  1.00  0.00     0.008 C 
BRANCH  10  11
HETATM   11  C23 UNL     1      46.685  48.989  18.183  1.00  0.00     0.003 C 
BRANCH  11  12
HETATM   12  C24 UNL     1      46.352  48.282  19.466  1.00  0.00     0.031 C 
BRANCH  12  13
HETATM   13  C25 UNL     1      45.096  47.459  19.377  1.00  0.00     0.114 C 
HETATM   14  C26 UNL     1      44.561  47.331  20.805  1.00  0.00     0.039 C 
BRANCH  13  15
HETATM   15  O6  UNL     1      44.150  48.076  18.590  1.00  0.00    -0.396 OA
ATOM     16  H6  UNL     1      43.371  47.540  18.502  1.00  0.00     0.210 HD
ENDBRANCH  13  15
ENDBRANCH  12  13
ENDBRANCH  11  12
ENDBRANCH  10  11
ENDBRANCH   7  10
ENDBRANCH   6   7
ENDBRANCH   4   5
BRANCH   4  17
HETATM   17  C7  UNL     1      50.756  50.528  15.046  1.00  0.00     0.267 C 
HETATM   18  O1  UNL     1      51.688  50.885  14.370  1.00  0.00    -0.304 OA
ENDBRANCH   4  17
ENDBRANCH   3   4
ENDBRANCH   1   3
BRANCH   1  19
HETATM   19  C9  UNL     1      52.356  52.712  18.598  1.00  0.00     0.149 C 
HETATM   20  C10 UNL     1      51.774  51.564  19.418  1.00  0.00     0.049 C 
HETATM   21  C11 UNL     1      51.198  52.357  20.599  1.00  0.00     0.009 C 
HETATM   22  C12 UNL     1      50.517  53.484  19.877  1.00  0.00    -0.002 C 
HETATM   23  C13 UNL     1      51.402  53.859  18.753  1.00  0.00     0.035 C 
HETATM   24  C21 UNL     1      50.098  54.605  20.769  1.00  0.00     0.001 C 
HETATM   25  C14 UNL     1      52.187  55.125  18.959  1.00  0.00     0.009 C 
HETATM   26  C15 UNL     1      52.442  55.428  20.411  1.00  0.00     0.012 C 
HETATM   27  C16 UNL     1      51.166  55.523  21.210  1.00  0.00    -0.014 C 
HETATM   28  C17 UNL     1      51.537  55.389  22.673  1.00  0.00     0.018 C 
HETATM   29  C18 UNL     1      50.640  56.951  21.026  1.00  0.00     0.126 C 
HETATM   30  C19 UNL     1      49.196  56.817  20.626  1.00  0.00     0.033 C 
HETATM   31  C20 UNL     1      49.066  55.438  20.017  1.00  0.00     0.008 C 
BRANCH  19  32
HETATM   32  O4  UNL     1      53.612  52.965  19.148  1.00  0.00    -0.379 OA
ATOM     33  H4  UNL     1      53.558  53.205  20.065  1.00  0.00     0.211 HD
ENDBRANCH  19  32
BRANCH  29  34
HETATM   34  O5  UNL     1      50.700  57.682  22.192  1.00  0.00    -0.395 OA
ATOM     35  H5  UNL     1      50.437  58.585  22.063  1.00  0.00     0.210 HD
ENDBRANCH  29  34
ENDBRANCH   1  19
TORSDOF 14
ENDMDL
MODEL 3
REMARK VINA RESULT: -8.910888187      0.951      1.644
REMARK  14 active torsions:
REMARK  status: ('A' for Active; 'I' for Inactive)
REMARK    1  A    between atoms: C2_2  and  C3_3 
REMARK    2  A    between atoms: C3_3  and  C4_4 
REMARK    3  A    between atoms: C3_3  and  C22_29 
REMARK    4  A    between atoms: C5_5  and  C6_6 
REMARK    5  A    between atoms: C6_6  and  C7_7 
REMARK    6  A    between atoms: C6_6  and  O2_9 
REMARK    7  A    between atoms: O2_9  and  C8_10 
REMARK    8  A    between atoms: C8_10  and  C9_12 
REMARK    9  A    between atoms: C9_12  and  O4_13 
REMARK   10  A    between atoms: C18_23  and  O5_24 
REMARK   11  A    between atoms: C22_29  and  C23_30 
REMARK   12  A    between atoms: C23_30  and  C24_31 
REMARK   13  A    between atoms: C24_31  and  C25_32 
REMARK   14  A    between atoms: C25_32  and  O6_34 
ROOT
HETATM    1  C8  UNL     1      52.214  52.138  17.564  1.00  0.00     0.295 C 
HETATM    2  O3  UNL     1      53.061  52.442  16.696  1.00  0.00    -0.262 OA
ENDROOT
BRANCH   1   3
HETATM    3  O2  UNL     1      51.217  51.260  17.211  1.00  0.00    -0.303 OA
BRANCH   3   4
HETATM    4  C6  UNL     1      50.506  51.463  16.015  1.00  0.00     0.215 C 
BRANCH   4   5
HETATM    5  C5  UNL     1      50.432  50.291  15.124  1.00  0.00     0.009 C 
HETATM    6  C4  UNL     1      49.621  49.263  15.219  1.00  0.00    -0.023 C 
BRANCH   6   7
HETATM    7  C3  UNL     1      48.601  49.076  16.267  1.00  0.00     0.007 C 
BRANCH   7   8
HETATM    8  C2  UNL     1      49.236  48.319  17.453  1.00  0.00     0.004 C 
HETATM    9  C1  UNL     1      48.996  49.101  18.720  1.00  0.00     0.006 C 
ENDBRANCH   7   8
BRANCH   7  10
HETATM   10  C22 UNL     1      47.560  48.131  15.667  1.00  0.00     0.008 C 
BRANCH  10  11
HETATM   11  C23 UNL     1      46.188  48.716  15.655  1.00  0.00     0.003 C 
BRANCH  11  12
HETATM   12  C24 UNL     1      45.697  48.900  17.063  1.00  0.00     0.031 C 
BRANCH  12  13
HETATM   13  C25 UNL     1      45.401  47.599  17.758  1.00  0.00     0.114 C 
HETATM   14  C26 UNL     1      45.421  47.896  19.259  1.00  0.00     0.039 C 
BRANCH  13  15
HETATM   15  O6  UNL     1      44.161  47.115  17.405  1.00  0.00    -0.396 OA
ATOM     16  H6  UNL     1      44.180  46.173  17.286  1.00  0.00     0.210 HD
ENDBRANCH  13  15
ENDBRANCH  12  13
ENDBRANCH  11  12
ENDBRANCH  10  11
ENDBRANCH   7  10
ENDBRANCH   6   7
ENDBRANCH   4   5
BRANCH   4  17
HETATM   17  C7  UNL     1      49.150  51.956  16.385  1.00  0.00     0.267 C 
HETATM   18  O1  UNL     1      48.903  53.135  16.324  1.00  0.00    -0.304 OA
ENDBRANCH   4  17
ENDBRANCH   3   4
ENDBRANCH   1   3
BRANCH   1  19
HETATM   19  C9  UNL     1      52.242  52.681  18.938  1.00  0.00     0.149 C 
HETATM   20  C10 UNL     1      51.718  51.657  19.942  1.00  0.00     0.049 C 
HETATM   21  C11 UNL     1      51.237  52.605  21.049  1.00  0.00     0.009 C 
HETATM   22  C12 UNL     1      50.508  53.639  20.239  1.00  0.00    -0.002 C 
HETATM   23  C13 UNL     1      51.307  53.851  19.012  1.00  0.00     0.035 C 
HETATM   24  C21 UNL     1      50.163  54.872  21.005  1.00  0.00     0.001 C 
HETATM   25  C14 UNL     1      52.111  55.121  18.991  1.00  0.00     0.009 C 
HETATM   26  C15 UNL     1      52.476  55.608  20.368  1.00  0.00     0.012 C 
HETATM   27  C16 UNL     1      51.265  55.824  21.241  1.00  0.00    -0.014 C 
HETATM   28  C17 UNL     1      51.745  55.877  22.676  1.00  0.00     0.018 C 
HETATM   29  C18 UNL     1      50.733  57.223  20.911  1.00  0.00     0.126 C 
HETATM   30  C19 UNL     1      49.262  57.059  20.641  1.00  0.00     0.033 C 
HETATM   31  C20 UNL     1      49.081  55.614  20.229  1.00  0.00     0.008 C 
BRANCH  19  32
HETATM   32  O4  UNL     1      53.536  52.985  19.354  1.00  0.00    -0.379 OA
ATOM     33  H4  UNL     1      53.778  52.512  20.142  1.00  0.00     0.211 HD
ENDBRANCH  19  32
BRANCH  29  34
HETATM   34  O5  UNL     1      50.885  58.099  21.964  1.00  0.00    -0.395 OA
ATOM     35  H5  UNL     1      51.607  58.700  21.829  1.00  0.00     0.210 HD
ENDBRANCH  29  34
ENDBRANCH   1  19
TORSDOF 14
ENDMDL
MODEL 4
REMARK VINA RESULT: -8.726885943      1.900      2.847
REMARK  14 active torsions:
REMARK  status: ('A' for Active; 'I' for Inactive)
REMARK    1  A    between atoms: C2_2  and  C3_3 
REMARK    2  A    between atoms: C3_3  and  C4_4 
REMARK    3  A    between atoms: C3_3  and  C22_29 
REMARK    4  A    between atoms: C5_5  and  C6_6 
REMARK    5  A    between atoms: C6_6  and  C7_7 
REMARK    6  A    between atoms: C6_6  and  O2_9 
REMARK    7  A    between atoms: O2_9  and  C8_10 
REMARK    8  A    between atoms: C8_10  and  C9_12 
REMARK    9  A    between atoms: C9_12  and  O4_13 
REMARK   10  A    between atoms: C18_23  and  O5_24 
REMARK   11  A    between atoms: C22_29  and  C23_30 
REMARK   12  A    between atoms: C23_30  and  C24_31 
REMARK   13  A    between atoms: C24_31  and  C25_32 
REMARK   14  A    between atoms: C25_32  and  O6_34 
ROOT
HETATM    1  C8  UNL     1      52.464  52.481  17.232  1.00  0.00     0.295 C 
HETATM    2  O3  UNL     1      53.507  52.106  16.654  1.00  0.00    -0.262 OA
ENDROOT
BRANCH   1   3
HETATM    3  O2  UNL     1      51.292  52.476  16.514  1.00  0.00    -0.303 OA
BRANCH   3   4
HETATM    4  C6  UNL     1      50.419  51.380  16.618  1.00  0.00     0.215 C 
BRANCH   4   5
HETATM    5  C5  UNL     1      49.019  51.720  16.931  1.00  0.00     0.009 C 
HETATM    6  C4  UNL     1      48.035  50.893  17.199  1.00  0.00    -0.023 C 
BRANCH   6   7
HETATM    7  C3  UNL     1      48.144  49.424  17.237  1.00  0.00     0.007 C 
BRANCH   7   8
HETATM    8  C2  UNL     1      47.035  48.818  16.349  1.00  0.00     0.004 C 
HETATM    9  C1  UNL     1      47.402  49.020  14.901  1.00  0.00     0.006 C 
ENDBRANCH   7   8
BRANCH   7  10
HETATM   10  C22 UNL     1      47.806  49.022  18.674  1.00  0.00     0.008 C 
BRANCH  10  11
HETATM   11  C23 UNL     1      48.846  49.450  19.652  1.00  0.00     0.003 C 
BRANCH  11  12
HETATM   12  C24 UNL     1      50.168  48.830  19.298  1.00  0.00     0.031 C 
BRANCH  12  13
HETATM   13  C25 UNL     1      51.178  48.919  20.411  1.00  0.00     0.114 C 
HETATM   14  C26 UNL     1      50.386  49.185  21.692  1.00  0.00     0.039 C 
BRANCH  13  15
HETATM   15  O6  UNL     1      51.878  47.741  20.544  1.00  0.00    -0.396 OA
ATOM     16  H6  UNL     1      52.798  47.905  20.715  1.00  0.00     0.210 HD
ENDBRANCH  13  15
ENDBRANCH  12  13
ENDBRANCH  11  12
ENDBRANCH  10  11
ENDBRANCH   7  10
ENDBRANCH   6   7
ENDBRANCH   4   5
BRANCH   4  17
HETATM   17  C7  UNL     1      50.524  50.609  15.347  1.00  0.00     0.267 C 
HETATM   18  O1  UNL     1      51.361  50.908  14.532  1.00  0.00    -0.304 OA
ENDBRANCH   4  17
ENDBRANCH   3   4
ENDBRANCH   1   3
BRANCH   1  19
HETATM   19  C9  UNL     1      52.443  52.925  18.641  1.00  0.00     0.149 C 
HETATM   20  C10 UNL     1      52.007  51.792  19.566  1.00  0.00     0.049 C 
HETATM   21  C11 UNL     1      51.445  52.614  20.733  1.00  0.00     0.009 C 
HETATM   22  C12 UNL     1      50.632  53.638  19.993  1.00  0.00    -0.002 C 
HETATM   23  C13 UNL     1      51.412  54.004  18.790  1.00  0.00     0.035 C 
HETATM   24  C21 UNL     1      50.182  54.780  20.841  1.00  0.00     0.001 C 
HETATM   25  C14 UNL     1      52.106  55.336  18.866  1.00  0.00     0.009 C 
HETATM   26  C15 UNL     1      52.426  55.752  20.276  1.00  0.00     0.012 C 
HETATM   27  C16 UNL     1      51.199  55.803  21.152  1.00  0.00    -0.014 C 
HETATM   28  C17 UNL     1      51.670  55.794  22.592  1.00  0.00     0.018 C 
HETATM   29  C18 UNL     1      50.550  57.172  20.919  1.00  0.00     0.126 C 
HETATM   30  C19 UNL     1      49.099  56.903  20.626  1.00  0.00     0.033 C 
HETATM   31  C20 UNL     1      49.042  55.481  20.112  1.00  0.00     0.008 C 
BRANCH  19  32
HETATM   32  O4  UNL     1      53.707  53.307  19.088  1.00  0.00    -0.379 OA
ATOM     33  H4  UNL     1      53.936  52.889  19.909  1.00  0.00     0.211 HD
ENDBRANCH  19  32
BRANCH  29  34
HETATM   34  O5  UNL     1      50.625  57.980  22.032  1.00  0.00    -0.395 OA
ATOM     35  H5  UNL     1      50.517  57.490  22.838  1.00  0.00     0.210 HD
ENDBRANCH  29  34
ENDBRANCH   1  19
TORSDOF 14
ENDMDL
MODEL 5
REMARK VINA RESULT: -8.677513393      1.766      8.825
REMARK  14 active torsions:
REMARK  status: ('A' for Active; 'I' for Inactive)
REMARK    1  A    between atoms: C2_2  and  C3_3 
REMARK    2  A    between atoms: C3_3  and  C4_4 
REMARK    3  A    between atoms: C3_3  and  C22_29 
REMARK    4  A    between atoms: C5_5  and  C6_6 
REMARK    5  A    between atoms: C6_6  and  C7_7 
REMARK    6  A    between atoms: C6_6  and  O2_9 
REMARK    7  A    between atoms: O2_9  and  C8_10 
REMARK    8  A    between atoms: C8_10  and  C9_12 
REMARK    9  A    between atoms: C9_12  and  O4_13 
REMARK   10  A    between atoms: C18_23  and  O5_24 
REMARK   11  A    between atoms: C22_29  and  C23_30 
REMARK   12  A    between atoms: C23_30  and  C24_31 
REMARK   13  A    between atoms: C24_31  and  C25_32 
REMARK   14  A    between atoms: C25_32  and  O6_34 
ROOT
HETATM    1  C8  UNL     1      51.244  51.904  18.664  1.00  0.00     0.295 C 
HETATM    2  O3  UNL     1      52.488  52.016  18.595  1.00  0.00    -0.262 OA
ENDROOT
BRANCH   1   3
HETATM    3  O2  UNL     1      50.634  52.214  19.856  1.00  0.00    -0.303 OA
BRANCH   3   4
HETATM    4  C6  UNL     1      50.662  53.539  20.325  1.00  0.00     0.215 C 
BRANCH   4   5
HETATM    5  C5  UNL     1      49.423  54.308  20.106  1.00  0.00     0.009 C 
HETATM    6  C4  UNL     1      49.226  55.587  20.325  1.00  0.00    -0.023 C 
BRANCH   6   7
HETATM    7  C3  UNL     1      50.233  56.527  20.850  1.00  0.00     0.007 C 
BRANCH   7   8
HETATM    8  C2  UNL     1      49.509  57.747  21.458  1.00  0.00     0.004 C 
HETATM    9  C1  UNL     1      48.214  57.969  20.717  1.00  0.00     0.006 C 
ENDBRANCH   7   8
BRANCH   7  10
HETATM   10  C22 UNL     1      50.989  57.047  19.626  1.00  0.00     0.008 C 
BRANCH  10  11
HETATM   11  C23 UNL     1      52.444  56.721  19.666  1.00  0.00     0.003 C 
BRANCH  11  12
HETATM   12  C24 UNL     1      52.907  56.615  21.091  1.00  0.00     0.031 C 
BRANCH  12  13
HETATM   13  C25 UNL     1      53.970  57.620  21.442  1.00  0.00     0.114 C 
HETATM   14  C26 UNL     1      53.339  59.001  21.253  1.00  0.00     0.039 C 
BRANCH  13  15
HETATM   15  O6  UNL     1      54.378  57.479  22.749  1.00  0.00    -0.396 OA
ATOM     16  H6  UNL     1      55.133  58.024  22.935  1.00  0.00     0.210 HD
ENDBRANCH  13  15
ENDBRANCH  12  13
ENDBRANCH  11  12
ENDBRANCH  10  11
ENDBRANCH   7  10
ENDBRANCH   6   7
ENDBRANCH   4   5
BRANCH   4  17
HETATM   17  C7  UNL     1      51.028  53.490  21.768  1.00  0.00     0.267 C 
HETATM   18  O1  UNL     1      52.165  53.249  22.091  1.00  0.00    -0.304 OA
ENDBRANCH   4  17
ENDBRANCH   3   4
ENDBRANCH   1   3
BRANCH   1  19
HETATM   19  C9  UNL     1      50.415  51.455  17.526  1.00  0.00     0.149 C 
HETATM   20  C10 UNL     1      49.664  52.626  16.899  1.00  0.00     0.049 C 
HETATM   21  C11 UNL     1      48.476  51.872  16.285  1.00  0.00     0.009 C 
HETATM   22  C12 UNL     1      48.098  50.967  17.423  1.00  0.00    -0.002 C 
HETATM   23  C13 UNL     1      49.364  50.515  18.040  1.00  0.00     0.035 C 
HETATM   24  C21 UNL     1      47.144  49.884  17.041  1.00  0.00     0.001 C 
HETATM   25  C14 UNL     1      49.764  49.105  17.705  1.00  0.00     0.009 C 
HETATM   26  C15 UNL     1      49.220  48.639  16.380  1.00  0.00     0.012 C 
HETATM   27  C16 UNL     1      47.717  48.737  16.310  1.00  0.00    -0.014 C 
HETATM   28  C17 UNL     1      47.327  48.674  14.848  1.00  0.00     0.018 C 
HETATM   29  C18 UNL     1      47.164  47.465  16.960  1.00  0.00     0.126 C 
HETATM   30  C19 UNL     1      46.142  47.919  17.967  1.00  0.00     0.033 C 
HETATM   31  C20 UNL     1      46.520  49.341  18.321  1.00  0.00     0.008 C 
BRANCH  19  32
HETATM   32  O4  UNL     1      51.184  50.910  16.500  1.00  0.00    -0.379 OA
ATOM     33  H4  UNL     1      50.718  50.232  16.027  1.00  0.00     0.211 HD
ENDBRANCH  19  32
BRANCH  29  34
HETATM   34  O5  UNL     1      46.538  46.644  16.048  1.00  0.00    -0.395 OA
ATOM     35  H5  UNL     1      46.301  45.805  16.424  1.00  0.00     0.210 HD
ENDBRANCH  29  34
ENDBRANCH   1  19
TORSDOF 14
ENDMDL
