MODEL 1
REMARK VINA RESULT: -9.339688286      0.000      0.000
REMARK  12 active torsions:
REMARK  status: ('A' for Active; 'I' for Inactive)
REMARK    1  A    between atoms: C2_2  and  C4_4 
REMARK    2  A    between atoms: C11_12  and  C12_13 
REMARK    3  A    between atoms: C12_13  and  O2_15 
REMARK    4  A    between atoms: C12_13  and  C14_17 
REMARK    5  A    between atoms: C15_18  and  C16_19 
REMARK    6  A    between atoms: C16_19  and  O3_20 
REMARK    7  A    between atoms: C16_19  and  C18_24 
REMARK    8  A    between atoms: O3_20  and  C17_21 
REMARK    9  A    between atoms: C18_24  and  O5_25 
REMARK   10  A    between atoms: C18_24  and  C19_27 
REMARK   11  A    between atoms: C19_27  and  C20_28 
REMARK   12  A    between atoms: C20_28  and  C22_30 
ROOT
HETATM    1  C12 UNL     1      50.121  50.665  18.296  1.00  0.00     0.079 C 
HETATM    2  C13 UNL     1      49.928  49.711  19.478  1.00  0.00     0.051 C 
ENDROOT
BRANCH   1   3
HETATM    3  C11 UNL     1      49.562  49.924  17.062  1.00  0.00     0.066 A 
HETATM    4  C7  UNL     1      48.086  50.106  16.865  1.00  0.00     0.011 A 
HETATM    5  C6  UNL     1      48.353  50.654  15.501  1.00  0.00     0.029 A 
HETATM    6  C8  UNL     1      47.369  48.826  16.951  1.00  0.00     0.044 C 
HETATM    7  C5  UNL     1      47.737  49.965  14.353  1.00  0.00     0.019 C 
HETATM    8  C24 UNL     1      49.826  50.465  15.738  1.00  0.00     0.093 A 
HETATM    9  C4  UNL     1      46.451  49.272  14.662  1.00  0.00     0.043 C 
HETATM   10  C10 UNL     1      46.708  48.285  15.751  1.00  0.00     0.136 C 
HETATM   11  O1  UNL     1      45.525  47.988  16.427  1.00  0.00    -0.384 OA
HETATM   12  C9  UNL     1      45.900  48.910  17.385  1.00  0.00     0.175 C 
HETATM   13  C25 UNL     1      50.755  50.029  14.817  1.00  0.00     0.207 A 
HETATM   14  O6  UNL     1      50.754  51.392  15.409  1.00  0.00    -0.374 OA
BRANCH   9  15
HETATM   15  C2  UNL     1      45.960  48.562  13.458  1.00  0.00    -0.086 C 
HETATM   16  C1  UNL     1      45.356  47.388  13.562  1.00  0.00     0.014 C 
HETATM   17  C3  UNL     1      46.159  49.195  12.131  1.00  0.00     0.043 C 
ENDBRANCH   9  15
ENDBRANCH   1   3
BRANCH   1  18
HETATM   18  O2  UNL     1      51.485  50.814  18.114  1.00  0.00    -0.386 OA
ATOM     19  H2  UNL     1      51.683  51.741  18.168  1.00  0.00     0.211 HD
ENDBRANCH   1  18
BRANCH   1  20
HETATM   20  C14 UNL     1      49.370  51.916  18.374  1.00  0.00     0.009 C 
HETATM   21  C15 UNL     1      49.864  53.264  18.459  1.00  0.00     0.007 C 
BRANCH  21  22
HETATM   22  C16 UNL     1      50.641  53.864  19.521  1.00  0.00     0.184 C 
BRANCH  22  23
HETATM   23  O3  UNL     1      51.855  53.386  19.836  1.00  0.00    -0.294 OA
BRANCH  23  24
HETATM   24  C17 UNL     1      52.128  52.550  20.911  1.00  0.00     0.373 C 
HETATM   25  N1  UNL     1      52.878  51.364  20.863  1.00  0.00    -0.032 NA
HETATM   26  O4  UNL     1      51.639  52.947  21.965  1.00  0.00    -0.242 OA
ENDBRANCH  23  24
ENDBRANCH  22  23
BRANCH  22  27
HETATM   27  C18 UNL     1      50.673  55.423  19.318  1.00  0.00     0.151 C 
BRANCH  27  28
HETATM   28  O5  UNL     1      51.933  55.679  18.790  1.00  0.00    -0.393 OA
ATOM     29  H5  UNL     1      52.131  54.911  18.266  1.00  0.00     0.210 HD
ENDBRANCH  27  28
BRANCH  27  30
HETATM   30  C19 UNL     1      50.570  56.150  20.607  1.00  0.00     0.039 C 
BRANCH  30  31
HETATM   31  C20 UNL     1      49.321  56.968  20.715  1.00  0.00    -0.016 C 
HETATM   32  C21 UNL     1      49.415  58.060  21.743  1.00  0.00     0.010 C 
BRANCH  31  33
HETATM   33  C22 UNL     1      48.892  57.583  19.409  1.00  0.00    -0.000 C 
HETATM   34  C23 UNL     1      48.041  58.803  19.663  1.00  0.00     0.005 C 
ENDBRANCH  31  33
ENDBRANCH  30  31
ENDBRANCH  27  30
ENDBRANCH  22  27
ENDBRANCH  21  22
ENDBRANCH   1  20
TORSDOF 12
ENDMDL
MODEL 2
REMARK VINA RESULT: -9.265596839      1.204      1.765
REMARK  12 active torsions:
REMARK  status: ('A' for Active; 'I' for Inactive)
REMARK    1  A    between atoms: C2_2  and  C4_4 
REMARK    2  A    between atoms: C11_12  and  C12_13 
REMARK    3  A    between atoms: C12_13  and  O2_15 
REMARK    4  A    between atoms: C12_13  and  C14_17 
REMARK    5  A    between atoms: C15_18  and  C16_19 
REMARK    6  A    between atoms: C16_19  and  O3_20 
REMARK    7  A    between atoms: C16_19  and  C18_24 
REMARK    8  A    between atoms: O3_20  and  C17_21 
REMARK    9  A    between atoms: C18_24  and  O5_25 
REMARK   10  A    between atoms: C18_24  and  C19_27 
REMARK   11  A    between atoms: C19_27  and  C20_28 
REMARK   12  A    between atoms: C20_28  and  C22_30 
ROOT
HETATM    1  C12 UNL     1      50.005  50.590  18.185  1.00  0.00     0.079 C 
HETATM    2  C13 UNL     1      49.780  49.649  19.371  1.00  0.00     0.051 C 
ENDROOT
BRANCH   1   3
HETATM    3  C11 UNL     1      49.461  49.844  16.947  1.00  0.00     0.066 A 
HETATM    4  C7  UNL     1      47.985  50.012  16.738  1.00  0.00     0.011 A 
HETATM    5  C6  UNL     1      48.258  50.562  15.376  1.00  0.00     0.029 A 
HETATM    6  C8  UNL     1      47.279  48.726  16.820  1.00  0.00     0.044 C 
HETATM    7  C5  UNL     1      47.656  49.867  14.224  1.00  0.00     0.019 C 
HETATM    8  C24 UNL     1      49.731  50.387  15.624  1.00  0.00     0.093 A 
HETATM    9  C4  UNL     1      46.375  49.162  14.524  1.00  0.00     0.043 C 
HETATM   10  C10 UNL     1      46.632  48.179  15.615  1.00  0.00     0.136 C 
HETATM   11  O1  UNL     1      45.447  47.871  16.283  1.00  0.00    -0.384 OA
HETATM   12  C9  UNL     1      45.806  48.797  17.243  1.00  0.00     0.175 C 
HETATM   13  C25 UNL     1      50.671  49.958  14.711  1.00  0.00     0.207 A 
HETATM   14  O6  UNL     1      50.652  51.321  15.303  1.00  0.00    -0.374 OA
BRANCH   9  15
HETATM   15  C2  UNL     1      45.899  48.447  13.317  1.00  0.00    -0.086 C 
HETATM   16  C1  UNL     1      45.284  47.279  13.418  1.00  0.00     0.014 C 
HETATM   17  C3  UNL     1      46.127  49.069  11.989  1.00  0.00     0.043 C 
ENDBRANCH   9  15
ENDBRANCH   1   3
BRANCH   1  18
HETATM   18  O2  UNL     1      51.372  50.725  18.027  1.00  0.00    -0.386 OA
ATOM     19  H2  UNL     1      51.538  51.593  17.681  1.00  0.00     0.211 HD
ENDBRANCH   1  18
BRANCH   1  20
HETATM   20  C14 UNL     1      49.264  51.849  18.237  1.00  0.00     0.009 C 
HETATM   21  C15 UNL     1      49.741  53.189  18.022  1.00  0.00     0.007 C 
BRANCH  21  22
HETATM   22  C16 UNL     1      50.712  53.926  18.802  1.00  0.00     0.184 C 
BRANCH  22  23
HETATM   23  O3  UNL     1      51.988  54.015  18.398  1.00  0.00    -0.294 OA
BRANCH  23  24
HETATM   24  C17 UNL     1      52.914  52.980  18.445  1.00  0.00     0.373 C 
HETATM   25  N1  UNL     1      53.304  52.275  19.593  1.00  0.00    -0.032 NA
HETATM   26  O4  UNL     1      53.392  52.714  17.345  1.00  0.00    -0.242 OA
ENDBRANCH  23  24
ENDBRANCH  22  23
BRANCH  22  27
HETATM   27  C18 UNL     1      50.121  55.339  19.157  1.00  0.00     0.151 C 
BRANCH  27  28
HETATM   28  O5  UNL     1      51.123  56.234  18.802  1.00  0.00    -0.393 OA
ATOM     29  H5  UNL     1      51.501  55.865  18.012  1.00  0.00     0.210 HD
ENDBRANCH  27  28
BRANCH  27  30
HETATM   30  C19 UNL     1      49.882  55.487  20.613  1.00  0.00     0.039 C 
BRANCH  30  31
HETATM   31  C20 UNL     1      50.732  56.550  21.237  1.00  0.00    -0.016 C 
HETATM   32  C21 UNL     1      49.944  57.737  21.712  1.00  0.00     0.010 C 
BRANCH  31  33
HETATM   33  C22 UNL     1      51.572  56.050  22.384  1.00  0.00    -0.000 C 
HETATM   34  C23 UNL     1      51.645  54.543  22.356  1.00  0.00     0.005 C 
ENDBRANCH  31  33
ENDBRANCH  30  31
ENDBRANCH  27  30
ENDBRANCH  22  27
ENDBRANCH  21  22
ENDBRANCH   1  20
TORSDOF 12
ENDMDL
MODEL 3
REMARK VINA RESULT: -9.169067824      0.740      1.323
REMARK  12 active torsions:
REMARK  status: ('A' for Active; 'I' for Inactive)
REMARK    1  A    between atoms: C2_2  and  C4_4 
REMARK    2  A    between atoms: C11_12  and  C12_13 
REMARK    3  A    between atoms: C12_13  and  O2_15 
REMARK    4  A    between atoms: C12_13  and  C14_17 
REMARK    5  A    between atoms: C15_18  and  C16_19 
REMARK    6  A    between atoms: C16_19  and  O3_20 
REMARK    7  A    between atoms: C16_19  and  C18_24 
REMARK    8  A    between atoms: O3_20  and  C17_21 
REMARK    9  A    between atoms: C18_24  and  O5_25 
REMARK   10  A    between atoms: C18_24  and  C19_27 
REMARK   11  A    between atoms: C19_27  and  C20_28 
REMARK   12  A    between atoms: C20_28  and  C22_30 
ROOT
HETATM    1  C12 UNL     1      49.990  50.617  17.963  1.00  0.00     0.079 C 
HETATM    2  C13 UNL     1      49.982  49.668  19.164  1.00  0.00     0.051 C 
ENDROOT
BRANCH   1   3
HETATM    3  C11 UNL     1      49.442  49.797  16.775  1.00  0.00     0.066 A 
HETATM    4  C7  UNL     1      47.961  49.935  16.576  1.00  0.00     0.011 A 
HETATM    5  C6  UNL     1      48.211  50.411  15.182  1.00  0.00     0.029 A 
HETATM    6  C8  UNL     1      47.272  48.647  16.738  1.00  0.00     0.044 C 
HETATM    7  C5  UNL     1      47.605  49.646  14.078  1.00  0.00     0.019 C 
HETATM    8  C24 UNL     1      49.689  50.268  15.421  1.00  0.00     0.093 A 
HETATM    9  C4  UNL     1      46.336  48.945  14.432  1.00  0.00     0.043 C 
HETATM   10  C10 UNL     1      46.618  48.026  15.573  1.00  0.00     0.136 C 
HETATM   11  O1  UNL     1      45.444  47.743  16.272  1.00  0.00    -0.384 OA
HETATM   12  C9  UNL     1      45.804  48.725  17.174  1.00  0.00     0.175 C 
HETATM   13  C25 UNL     1      50.623  49.800  14.522  1.00  0.00     0.207 A 
HETATM   14  O6  UNL     1      50.595  51.194  15.037  1.00  0.00    -0.374 OA
BRANCH   9  15
HETATM   15  C2  UNL     1      45.855  48.158  13.273  1.00  0.00    -0.086 C 
HETATM   16  C1  UNL     1      46.141  48.529  12.034  1.00  0.00     0.014 C 
HETATM   17  C3  UNL     1      45.045  46.941  13.528  1.00  0.00     0.043 C 
ENDBRANCH   9  15
ENDBRANCH   1   3
BRANCH   1  18
HETATM   18  O2  UNL     1      51.313  50.917  17.691  1.00  0.00    -0.386 OA
ATOM     19  H2  UNL     1      51.697  51.271  18.484  1.00  0.00     0.211 HD
ENDBRANCH   1  18
BRANCH   1  20
HETATM   20  C14 UNL     1      49.107  51.776  18.077  1.00  0.00     0.009 C 
HETATM   21  C15 UNL     1      49.446  53.174  18.087  1.00  0.00     0.007 C 
BRANCH  21  22
HETATM   22  C16 UNL     1      50.234  53.894  19.064  1.00  0.00     0.184 C 
BRANCH  22  23
HETATM   23  O3  UNL     1      51.569  53.764  19.097  1.00  0.00    -0.294 OA
BRANCH  23  24
HETATM   24  C17 UNL     1      52.273  52.979  20.002  1.00  0.00     0.373 C 
HETATM   25  N1  UNL     1      53.243  52.019  19.680  1.00  0.00    -0.032 NA
HETATM   26  O4  UNL     1      51.965  53.202  21.170  1.00  0.00    -0.242 OA
ENDBRANCH  23  24
ENDBRANCH  22  23
BRANCH  22  27
HETATM   27  C18 UNL     1      49.803  55.406  19.060  1.00  0.00     0.151 C 
BRANCH  27  28
HETATM   28  O5  UNL     1      50.976  56.100  18.786  1.00  0.00    -0.393 OA
ATOM     29  H5  UNL     1      51.541  55.912  19.527  1.00  0.00     0.210 HD
ENDBRANCH  27  28
BRANCH  27  30
HETATM   30  C19 UNL     1      49.321  55.846  20.391  1.00  0.00     0.039 C 
BRANCH  30  31
HETATM   31  C20 UNL     1      49.466  57.321  20.603  1.00  0.00    -0.016 C 
HETATM   32  C21 UNL     1      48.150  58.039  20.700  1.00  0.00     0.010 C 
BRANCH  31  33
HETATM   33  C22 UNL     1      50.288  57.674  21.816  1.00  0.00    -0.000 C 
HETATM   34  C23 UNL     1      51.228  56.543  22.154  1.00  0.00     0.005 C 
ENDBRANCH  31  33
ENDBRANCH  30  31
ENDBRANCH  27  30
ENDBRANCH  22  27
ENDBRANCH  21  22
ENDBRANCH   1  20
TORSDOF 12
ENDMDL
MODEL 4
REMARK VINA RESULT: -9.146080830      1.136      1.466
REMARK  12 active torsions:
REMARK  status: ('A' for Active; 'I' for Inactive)
REMARK    1  A    between atoms: C2_2  and  C4_4 
REMARK    2  A    between atoms: C11_12  and  C12_13 
REMARK    3  A    between atoms: C12_13  and  O2_15 
REMARK    4  A    between atoms: C12_13  and  C14_17 
REMARK    5  A    between atoms: C15_18  and  C16_19 
REMARK    6  A    between atoms: C16_19  and  O3_20 
REMARK    7  A    between atoms: C16_19  and  C18_24 
REMARK    8  A    between atoms: O3_20  and  C17_21 
REMARK    9  A    between atoms: C18_24  and  O5_25 
REMARK   10  A    between atoms: C18_24  and  C19_27 
REMARK   11  A    between atoms: C19_27  and  C20_28 
REMARK   12  A    between atoms: C20_28  and  C22_30 
ROOT
HETATM    1  C12 UNL     1      49.898  50.463  18.134  1.00  0.00     0.079 C 
HETATM    2  C13 UNL     1      49.666  49.495  19.297  1.00  0.00     0.051 C 
ENDROOT
BRANCH   1   3
HETATM    3  C11 UNL     1      49.370  49.742  16.875  1.00  0.00     0.066 A 
HETATM    4  C7  UNL     1      47.897  49.913  16.652  1.00  0.00     0.011 A 
HETATM    5  C6  UNL     1      48.185  50.491  15.305  1.00  0.00     0.029 A 
HETATM    6  C8  UNL     1      47.191  48.624  16.699  1.00  0.00     0.044 C 
HETATM    7  C5  UNL     1      47.598  49.819  14.132  1.00  0.00     0.019 C 
HETATM    8  C24 UNL     1      49.655  50.311  15.567  1.00  0.00     0.093 A 
HETATM    9  C4  UNL     1      46.314  49.107  14.401  1.00  0.00     0.043 C 
HETATM   10  C10 UNL     1      46.559  48.102  15.475  1.00  0.00     0.136 C 
HETATM   11  O1  UNL     1      45.366  47.779  16.122  1.00  0.00    -0.384 OA
HETATM   12  C9  UNL     1      45.713  48.686  17.105  1.00  0.00     0.175 C 
HETATM   13  C25 UNL     1      50.606  49.903  14.657  1.00  0.00     0.207 A 
HETATM   14  O6  UNL     1      50.580  51.253  15.276  1.00  0.00    -0.374 OA
BRANCH   9  15
HETATM   15  C2  UNL     1      45.854  48.417  13.174  1.00  0.00    -0.086 C 
HETATM   16  C1  UNL     1      45.376  47.183  13.228  1.00  0.00     0.014 C 
HETATM   17  C3  UNL     1      45.939  49.138  11.881  1.00  0.00     0.043 C 
ENDBRANCH   9  15
ENDBRANCH   1   3
BRANCH   1  18
HETATM   18  O2  UNL     1      51.267  50.607  17.993  1.00  0.00    -0.386 OA
ATOM     19  H2  UNL     1      51.616  49.772  17.705  1.00  0.00     0.211 HD
ENDBRANCH   1  18
BRANCH   1  20
HETATM   20  C14 UNL     1      49.151  51.717  18.207  1.00  0.00     0.009 C 
HETATM   21  C15 UNL     1      49.635  53.067  18.087  1.00  0.00     0.007 C 
BRANCH  21  22
HETATM   22  C16 UNL     1      50.557  53.764  18.957  1.00  0.00     0.184 C 
BRANCH  22  23
HETATM   23  O3  UNL     1      51.824  53.986  18.575  1.00  0.00    -0.294 OA
BRANCH  23  24
HETATM   24  C17 UNL     1      52.818  53.018  18.505  1.00  0.00     0.373 C 
HETATM   25  N1  UNL     1      53.321  52.276  19.585  1.00  0.00    -0.032 NA
HETATM   26  O4  UNL     1      53.247  52.852  17.367  1.00  0.00    -0.242 OA
ENDBRANCH  23  24
ENDBRANCH  22  23
BRANCH  22  27
HETATM   27  C18 UNL     1      49.874  55.080  19.480  1.00  0.00     0.151 C 
BRANCH  27  28
HETATM   28  O5  UNL     1      49.319  55.658  18.345  1.00  0.00    -0.393 OA
ATOM     29  H5  UNL     1      50.067  55.908  17.815  1.00  0.00     0.210 HD
ENDBRANCH  27  28
BRANCH  27  30
HETATM   30  C19 UNL     1      50.866  56.036  20.030  1.00  0.00     0.039 C 
BRANCH  30  31
HETATM   31  C20 UNL     1      50.587  56.410  21.453  1.00  0.00    -0.016 C 
HETATM   32  C21 UNL     1      51.717  56.079  22.386  1.00  0.00     0.010 C 
BRANCH  31  33
HETATM   33  C22 UNL     1      50.235  57.864  21.632  1.00  0.00    -0.000 C 
HETATM   34  C23 UNL     1      48.761  58.076  21.386  1.00  0.00     0.005 C 
ENDBRANCH  31  33
ENDBRANCH  30  31
ENDBRANCH  27  30
ENDBRANCH  22  27
ENDBRANCH  21  22
ENDBRANCH   1  20
TORSDOF 12
ENDMDL
MODEL 5
REMARK VINA RESULT: -9.068489106      1.175      1.659
REMARK  12 active torsions:
REMARK  status: ('A' for Active; 'I' for Inactive)
REMARK    1  A    between atoms: C2_2  and  C4_4 
REMARK    2  A    between atoms: C11_12  and  C12_13 
REMARK    3  A    between atoms: C12_13  and  O2_15 
REMARK    4  A    between atoms: C12_13  and  C14_17 
REMARK    5  A    between atoms: C15_18  and  C16_19 
REMARK    6  A    between atoms: C16_19  and  O3_20 
REMARK    7  A    between atoms: C16_19  and  C18_24 
REMARK    8  A    between atoms: O3_20  and  C17_21 
REMARK    9  A    between atoms: C18_24  and  O5_25 
REMARK   10  A    between atoms: C18_24  and  C19_27 
REMARK   11  A    between atoms: C19_27  and  C20_28 
REMARK   12  A    between atoms: C20_28  and  C22_30 
ROOT
HETATM    1  C12 UNL     1      50.055  50.643  18.283  1.00  0.00     0.079 C 
HETATM    2  C13 UNL     1      49.849  49.689  19.462  1.00  0.00     0.051 C 
ENDROOT
BRANCH   1   3
HETATM    3  C11 UNL     1      49.511  49.901  17.042  1.00  0.00     0.066 A 
HETATM    4  C7  UNL     1      48.035  50.070  16.835  1.00  0.00     0.011 A 
HETATM    5  C6  UNL     1      48.308  50.625  15.474  1.00  0.00     0.029 A 
HETATM    6  C8  UNL     1      47.329  48.783  16.912  1.00  0.00     0.044 C 
HETATM    7  C5  UNL     1      47.706  49.934  14.320  1.00  0.00     0.019 C 
HETATM    8  C24 UNL     1      49.780  50.449  15.722  1.00  0.00     0.093 A 
HETATM    9  C4  UNL     1      46.424  49.229  14.617  1.00  0.00     0.043 C 
HETATM   10  C10 UNL     1      46.682  48.241  15.705  1.00  0.00     0.136 C 
HETATM   11  O1  UNL     1      45.496  47.931  16.372  1.00  0.00    -0.384 OA
HETATM   12  C9  UNL     1      45.856  48.853  17.335  1.00  0.00     0.175 C 
HETATM   13  C25 UNL     1      50.720  50.023  14.807  1.00  0.00     0.207 A 
HETATM   14  O6  UNL     1      50.702  51.384  15.403  1.00  0.00    -0.374 OA
BRANCH   9  15
HETATM   15  C2  UNL     1      45.949  48.518  13.408  1.00  0.00    -0.086 C 
HETATM   16  C1  UNL     1      45.335  47.348  13.504  1.00  0.00     0.014 C 
HETATM   17  C3  UNL     1      46.173  49.146  12.082  1.00  0.00     0.043 C 
ENDBRANCH   9  15
ENDBRANCH   1   3
BRANCH   1  18
HETATM   18  O2  UNL     1      51.420  50.793  18.117  1.00  0.00    -0.386 OA
ATOM     19  H2  UNL     1      51.850  50.323  18.821  1.00  0.00     0.211 HD
ENDBRANCH   1  18
BRANCH   1  20
HETATM   20  C14 UNL     1      49.301  51.893  18.351  1.00  0.00     0.009 C 
HETATM   21  C15 UNL     1      49.791  53.238  18.490  1.00  0.00     0.007 C 
BRANCH  21  22
HETATM   22  C16 UNL     1      50.515  53.813  19.603  1.00  0.00     0.184 C 
BRANCH  22  23
HETATM   23  O3  UNL     1      51.749  53.387  19.911  1.00  0.00    -0.294 OA
BRANCH  23  24
HETATM   24  C17 UNL     1      52.079  52.639  21.034  1.00  0.00     0.373 C 
HETATM   25  N1  UNL     1      52.657  51.361  21.032  1.00  0.00    -0.032 NA
HETATM   26  O4  UNL     1      51.812  53.212  22.087  1.00  0.00    -0.242 OA
ENDBRANCH  23  24
ENDBRANCH  22  23
BRANCH  22  27
HETATM   27  C18 UNL     1      50.457  55.381  19.500  1.00  0.00     0.151 C 
BRANCH  27  28
HETATM   28  O5  UNL     1      49.658  55.626  18.389  1.00  0.00    -0.393 OA
ATOM     29  H5  UNL     1      50.268  55.663  17.662  1.00  0.00     0.210 HD
ENDBRANCH  27  28
BRANCH  27  30
HETATM   30  C19 UNL     1      51.792  55.967  19.230  1.00  0.00     0.039 C 
BRANCH  30  31
HETATM   31  C20 UNL     1      52.198  56.985  20.251  1.00  0.00    -0.016 C 
HETATM   32  C21 UNL     1      51.579  56.751  21.600  1.00  0.00     0.010 C 
BRANCH  31  33
HETATM   33  C22 UNL     1      53.690  57.095  20.427  1.00  0.00    -0.000 C 
HETATM   34  C23 UNL     1      54.013  58.082  21.522  1.00  0.00     0.005 C 
ENDBRANCH  31  33
ENDBRANCH  30  31
ENDBRANCH  27  30
ENDBRANCH  22  27
ENDBRANCH  21  22
ENDBRANCH   1  20
TORSDOF 12
ENDMDL
