MODEL 1
REMARK VINA RESULT: -7.888552644      0.000      0.000
REMARK  13 active torsions:
REMARK  status: ('A' for Active; 'I' for Inactive)
REMARK    1  A    between atoms: C2_2  and  C3_3 
REMARK    2  A    between atoms: C3_3  and  C4_4 
REMARK    3  A    between atoms: C4_4  and  C5_5 
REMARK    4  A    between atoms: C5_5  and  C6_6 
REMARK    5  A    between atoms: C6_6  and  C7_7 
REMARK    6  A    between atoms: C7_7  and  C8_8 
REMARK    7  A    between atoms: C8_8  and  C9_9 
REMARK    8  A    between atoms: C9_9  and  C10_10 
REMARK    9  A    between atoms: C10_10  and  C11_11 
REMARK   10  A    between atoms: C11_11  and  O1_12 
REMARK   11  A    between atoms: C12_14  and  N1_15 
REMARK   12  A    between atoms: C25_30  and  O4_31 
REMARK   13  A    between atoms: C26_33  and  O5_34 
ROOT
HETATM    1  C11 UNL     1      49.222  51.745  16.663  1.00  0.00     0.118 C 
HETATM    2  C12 UNL     1      48.667  50.418  16.954  1.00  0.00     0.264 C 
HETATM    3  C16 UNL     1      49.529  49.434  17.692  1.00  0.00     0.025 C 
HETATM    4  C17 UNL     1      49.025  48.032  17.399  1.00  0.00     0.012 C 
HETATM    5  C18 UNL     1      49.507  49.575  19.185  1.00  0.00     0.085 C 
HETATM    6  C19 UNL     1      50.647  50.420  19.617  1.00  0.00     0.141 C 
HETATM    7  O2  UNL     1      50.654  50.698  20.791  1.00  0.00    -0.297 OA
HETATM    8  C20 UNL     1      51.801  51.007  18.904  1.00  0.00     0.162 C 
HETATM    9  C21 UNL     1      52.845  51.507  19.798  1.00  0.00     0.141 C 
HETATM   10  O3  UNL     1      53.135  51.112  20.881  1.00  0.00    -0.297 OA
HETATM   11  C22 UNL     1      53.496  52.631  19.080  1.00  0.00     0.086 C 
HETATM   12  C23 UNL     1      52.291  53.241  18.401  1.00  0.00     0.027 C 
HETATM   13  C24 UNL     1      51.548  54.047  19.408  1.00  0.00     0.014 C 
HETATM   14  C25 UNL     1      51.474  52.028  17.884  1.00  0.00     0.107 C 
HETATM   15  C26 UNL     1      50.066  52.414  17.696  1.00  0.00     0.190 C 
ENDROOT
BRANCH   1  16
HETATM   16  C10 UNL     1      48.135  52.738  16.381  1.00  0.00     0.043 C 
BRANCH  16  17
HETATM   17  C9  UNL     1      48.356  54.172  16.626  1.00  0.00     0.003 C 
BRANCH  17  18
HETATM   18  C8  UNL     1      47.513  55.085  15.800  1.00  0.00     0.000 C 
BRANCH  18  19
HETATM   19  C7  UNL     1      47.780  56.550  16.117  1.00  0.00     0.000 C 
BRANCH  19  20
HETATM   20  C6  UNL     1      48.751  56.632  17.261  1.00  0.00     0.000 C 
BRANCH  20  21
HETATM   21  C5  UNL     1      48.436  57.751  18.221  1.00  0.00     0.000 C 
BRANCH  21  22
HETATM   22  C4  UNL     1      48.836  57.320  19.607  1.00  0.00     0.000 C 
BRANCH  22  23
HETATM   23  C3  UNL     1      48.099  58.082  20.678  1.00  0.00    -0.000 C 
BRANCH  23  24
HETATM   24  C2  UNL     1      49.046  58.412  21.835  1.00  0.00    -0.005 C 
HETATM   25  C1  UNL     1      50.275  57.534  21.775  1.00  0.00     0.005 C 
ENDBRANCH  23  24
ENDBRANCH  22  23
ENDBRANCH  21  22
ENDBRANCH  20  21
ENDBRANCH  19  20
ENDBRANCH  18  19
ENDBRANCH  17  18
ENDBRANCH  16  17
ENDBRANCH   1  16
BRANCH   1  26
HETATM   26  O1  UNL     1      50.015  51.666  15.529  1.00  0.00    -0.385 OA
ATOM     27  H1  UNL     1      50.762  51.117  15.741  1.00  0.00     0.210 HD
ENDBRANCH   1  26
BRANCH   2  28
HETATM   28  N1  UNL     1      47.990  49.703  15.980  1.00  0.00     0.104 N 
HETATM   29  C13 UNL     1      46.733  49.106  15.857  1.00  0.00     0.308 A 
HETATM   30  C14 UNL     1      47.141  50.143  14.943  1.00  0.00     0.248 A 
HETATM   31  C15 UNL     1      47.558  49.666  13.538  1.00  0.00     0.045 C 
ENDBRANCH   2  28
BRANCH  15  32
HETATM   32  O5  UNL     1      49.377  52.634  18.903  1.00  0.00    -0.389 OA
ATOM     33  H5  UNL     1      48.573  53.126  18.783  1.00  0.00     0.210 HD
ENDBRANCH  15  32
BRANCH  14  34
HETATM   34  O4  UNL     1      52.071  51.793  16.641  1.00  0.00    -0.385 OA
ATOM     35  H4  UNL     1      51.963  52.508  16.025  1.00  0.00     0.210 HD
ENDBRANCH  14  34
TORSDOF 13
ENDMDL
MODEL 2
REMARK VINA RESULT: -7.829711840      2.586      6.203
REMARK  13 active torsions:
REMARK  status: ('A' for Active; 'I' for Inactive)
REMARK    1  A    between atoms: C2_2  and  C3_3 
REMARK    2  A    between atoms: C3_3  and  C4_4 
REMARK    3  A    between atoms: C4_4  and  C5_5 
REMARK    4  A    between atoms: C5_5  and  C6_6 
REMARK    5  A    between atoms: C6_6  and  C7_7 
REMARK    6  A    between atoms: C7_7  and  C8_8 
REMARK    7  A    between atoms: C8_8  and  C9_9 
REMARK    8  A    between atoms: C9_9  and  C10_10 
REMARK    9  A    between atoms: C10_10  and  C11_11 
REMARK   10  A    between atoms: C11_11  and  O1_12 
REMARK   11  A    between atoms: C12_14  and  N1_15 
REMARK   12  A    between atoms: C25_30  and  O4_31 
REMARK   13  A    between atoms: C26_33  and  O5_34 
ROOT
HETATM    1  C11 UNL     1      49.712  51.183  18.187  1.00  0.00     0.118 C 
HETATM    2  C12 UNL     1      50.625  50.868  17.083  1.00  0.00     0.264 C 
HETATM    3  C16 UNL     1      51.607  51.920  16.651  1.00  0.00     0.025 C 
HETATM    4  C17 UNL     1      52.028  51.634  15.221  1.00  0.00     0.012 C 
HETATM    5  C18 UNL     1      52.874  51.965  17.452  1.00  0.00     0.085 C 
HETATM    6  C19 UNL     1      52.741  52.976  18.529  1.00  0.00     0.141 C 
HETATM    7  O2  UNL     1      53.661  53.008  19.309  1.00  0.00    -0.297 OA
HETATM    8  C20 UNL     1      51.703  53.976  18.859  1.00  0.00     0.162 C 
HETATM    9  C21 UNL     1      52.146  54.976  19.830  1.00  0.00     0.141 C 
HETATM   10  O3  UNL     1      53.246  55.390  20.008  1.00  0.00    -0.297 OA
HETATM   11  C22 UNL     1      50.930  55.393  20.572  1.00  0.00     0.086 C 
HETATM   12  C23 UNL     1      50.210  54.066  20.660  1.00  0.00     0.027 C 
HETATM   13  C24 UNL     1      50.843  53.264  21.742  1.00  0.00     0.014 C 
HETATM   14  C25 UNL     1      50.389  53.428  19.258  1.00  0.00     0.107 C 
HETATM   15  C26 UNL     1      50.229  51.967  19.347  1.00  0.00     0.190 C 
ENDROOT
BRANCH   1  16
HETATM   16  C10 UNL     1      49.160  49.935  18.808  1.00  0.00     0.043 C 
BRANCH  16  17
HETATM   17  C9  UNL     1      47.815  49.458  18.453  1.00  0.00     0.003 C 
BRANCH  17  18
HETATM   18  C8  UNL     1      47.157  48.611  19.489  1.00  0.00     0.000 C 
BRANCH  18  19
HETATM   19  C7  UNL     1      45.808  48.081  19.021  1.00  0.00     0.000 C 
BRANCH  19  20
HETATM   20  C6  UNL     1      45.485  48.685  17.684  1.00  0.00     0.000 C 
BRANCH  20  21
HETATM   21  C5  UNL     1      44.981  47.673  16.687  1.00  0.00     0.000 C 
BRANCH  21  22
HETATM   22  C4  UNL     1      45.948  47.613  15.534  1.00  0.00     0.000 C 
BRANCH  22  23
HETATM   23  C3  UNL     1      45.619  48.617  14.458  1.00  0.00    -0.000 C 
BRANCH  23  24
HETATM   24  C2  UNL     1      45.747  47.967  13.077  1.00  0.00    -0.005 C 
HETATM   25  C1  UNL     1      45.973  49.024  12.019  1.00  0.00     0.005 C 
ENDBRANCH  23  24
ENDBRANCH  22  23
ENDBRANCH  21  22
ENDBRANCH  20  21
ENDBRANCH  19  20
ENDBRANCH  18  19
ENDBRANCH  17  18
ENDBRANCH  16  17
ENDBRANCH   1  16
BRANCH   1  26
HETATM   26  O1  UNL     1      48.639  51.910  17.695  1.00  0.00    -0.385 OA
ATOM     27  H1  UNL     1      47.850  51.558  18.092  1.00  0.00     0.210 HD
ENDBRANCH   1  26
BRANCH   2  28
HETATM   28  N1  UNL     1      50.161  50.260  15.929  1.00  0.00     0.104 N 
HETATM   29  C13 UNL     1      49.782  48.969  15.552  1.00  0.00     0.308 A 
HETATM   30  C14 UNL     1      48.844  50.061  15.463  1.00  0.00     0.248 A 
HETATM   31  C15 UNL     1      48.585  50.603  14.045  1.00  0.00     0.045 C 
ENDBRANCH   2  28
BRANCH  15  32
HETATM   32  O5  UNL     1      51.291  51.324  20.009  1.00  0.00    -0.389 OA
ATOM     33  H5  UNL     1      51.665  50.615  19.501  1.00  0.00     0.210 HD
ENDBRANCH  15  32
BRANCH  14  34
HETATM   34  O4  UNL     1      49.312  53.980  18.555  1.00  0.00    -0.385 OA
ATOM     35  H4  UNL     1      48.666  54.396  19.113  1.00  0.00     0.210 HD
ENDBRANCH  14  34
TORSDOF 13
ENDMDL
MODEL 3
REMARK VINA RESULT: -7.796391834      2.420      3.647
REMARK  13 active torsions:
REMARK  status: ('A' for Active; 'I' for Inactive)
REMARK    1  A    between atoms: C2_2  and  C3_3 
REMARK    2  A    between atoms: C3_3  and  C4_4 
REMARK    3  A    between atoms: C4_4  and  C5_5 
REMARK    4  A    between atoms: C5_5  and  C6_6 
REMARK    5  A    between atoms: C6_6  and  C7_7 
REMARK    6  A    between atoms: C7_7  and  C8_8 
REMARK    7  A    between atoms: C8_8  and  C9_9 
REMARK    8  A    between atoms: C9_9  and  C10_10 
REMARK    9  A    between atoms: C10_10  and  C11_11 
REMARK   10  A    between atoms: C11_11  and  O1_12 
REMARK   11  A    between atoms: C12_14  and  N1_15 
REMARK   12  A    between atoms: C25_30  and  O4_31 
REMARK   13  A    between atoms: C26_33  and  O5_34 
ROOT
HETATM    1  C11 UNL     1      49.936  53.556  18.390  1.00  0.00     0.118 C 
HETATM    2  C12 UNL     1      50.250  52.252  18.986  1.00  0.00     0.264 C 
HETATM    3  C16 UNL     1      51.406  52.168  19.942  1.00  0.00     0.025 C 
HETATM    4  C17 UNL     1      51.894  50.731  19.989  1.00  0.00     0.012 C 
HETATM    5  C18 UNL     1      51.079  52.537  21.359  1.00  0.00     0.085 C 
HETATM    6  C19 UNL     1      51.403  53.966  21.583  1.00  0.00     0.141 C 
HETATM    7  O2  UNL     1      51.064  54.400  22.657  1.00  0.00    -0.297 OA
HETATM    8  C20 UNL     1      52.066  54.997  20.757  1.00  0.00     0.162 C 
HETATM    9  C21 UNL     1      52.452  56.189  21.512  1.00  0.00     0.141 C 
HETATM   10  O3  UNL     1      52.753  56.266  22.659  1.00  0.00    -0.297 OA
HETATM   11  C22 UNL     1      52.399  57.319  20.551  1.00  0.00     0.086 C 
HETATM   12  C23 UNL     1      51.189  56.915  19.740  1.00  0.00     0.027 C 
HETATM   13  C24 UNL     1      49.970  57.258  20.521  1.00  0.00     0.014 C 
HETATM   14  C25 UNL     1      51.352  55.388  19.522  1.00  0.00     0.107 C 
HETATM   15  C26 UNL     1      50.042  54.779  19.240  1.00  0.00     0.190 C 
ENDROOT
BRANCH   1  16
HETATM   16  C10 UNL     1      48.529  53.592  17.875  1.00  0.00     0.043 C 
BRANCH  16  17
HETATM   17  C9  UNL     1      48.262  53.901  16.461  1.00  0.00     0.003 C 
BRANCH  17  18
HETATM   18  C8  UNL     1      47.468  55.143  16.232  1.00  0.00     0.000 C 
BRANCH  18  19
HETATM   19  C7  UNL     1      48.249  56.396  16.604  1.00  0.00     0.000 C 
BRANCH  19  20
HETATM   20  C6  UNL     1      47.685  57.565  15.846  1.00  0.00     0.000 C 
BRANCH  20  21
HETATM   21  C5  UNL     1      47.009  58.574  16.738  1.00  0.00     0.000 C 
BRANCH  21  22
HETATM   22  C4  UNL     1      47.859  58.776  17.964  1.00  0.00     0.000 C 
BRANCH  22  23
HETATM   23  C3  UNL     1      47.165  59.609  19.011  1.00  0.00    -0.000 C 
BRANCH  23  24
HETATM   24  C2  UNL     1      47.558  61.082  18.858  1.00  0.00    -0.005 C 
HETATM   25  C1  UNL     1      46.324  61.954  18.818  1.00  0.00     0.005 C 
ENDBRANCH  23  24
ENDBRANCH  22  23
ENDBRANCH  21  22
ENDBRANCH  20  21
ENDBRANCH  19  20
ENDBRANCH  18  19
ENDBRANCH  17  18
ENDBRANCH  16  17
ENDBRANCH   1  16
BRANCH   1  26
HETATM   26  O1  UNL     1      50.779  53.776  17.312  1.00  0.00    -0.385 OA
ATOM     27  H1  UNL     1      51.486  53.144  17.369  1.00  0.00     0.210 HD
ENDBRANCH   1  26
BRANCH   2  28
HETATM   28  N1  UNL     1      50.294  51.108  18.207  1.00  0.00     0.104 N 
HETATM   29  C13 UNL     1      49.778  49.813  18.287  1.00  0.00     0.308 A 
HETATM   30  C14 UNL     1      49.437  50.666  17.177  1.00  0.00     0.248 A 
HETATM   31  C15 UNL     1      50.153  50.351  15.850  1.00  0.00     0.045 C 
ENDBRANCH   2  28
BRANCH  15  32
HETATM   32  O5  UNL     1      49.186  54.743  20.355  1.00  0.00    -0.389 OA
ATOM     33  H5  UNL     1      49.647  54.869  21.177  1.00  0.00     0.210 HD
ENDBRANCH  15  32
BRANCH  14  34
HETATM   34  O4  UNL     1      52.150  55.349  18.374  1.00  0.00    -0.385 OA
ATOM     35  H4  UNL     1      52.821  54.677  18.398  1.00  0.00     0.210 HD
ENDBRANCH  14  34
TORSDOF 13
ENDMDL
MODEL 4
REMARK VINA RESULT: -7.615179291      2.340      5.758
REMARK  13 active torsions:
REMARK  status: ('A' for Active; 'I' for Inactive)
REMARK    1  A    between atoms: C2_2  and  C3_3 
REMARK    2  A    between atoms: C3_3  and  C4_4 
REMARK    3  A    between atoms: C4_4  and  C5_5 
REMARK    4  A    between atoms: C5_5  and  C6_6 
REMARK    5  A    between atoms: C6_6  and  C7_7 
REMARK    6  A    between atoms: C7_7  and  C8_8 
REMARK    7  A    between atoms: C8_8  and  C9_9 
REMARK    8  A    between atoms: C9_9  and  C10_10 
REMARK    9  A    between atoms: C10_10  and  C11_11 
REMARK   10  A    between atoms: C11_11  and  O1_12 
REMARK   11  A    between atoms: C12_14  and  N1_15 
REMARK   12  A    between atoms: C25_30  and  O4_31 
REMARK   13  A    between atoms: C26_33  and  O5_34 
ROOT
HETATM    1  C11 UNL     1      50.346  52.726  18.667  1.00  0.00     0.118 C 
HETATM    2  C12 UNL     1      50.489  51.698  19.704  1.00  0.00     0.264 C 
HETATM    3  C16 UNL     1      51.513  51.914  20.781  1.00  0.00     0.025 C 
HETATM    4  C17 UNL     1      51.883  50.566  21.377  1.00  0.00     0.012 C 
HETATM    5  C18 UNL     1      51.049  52.758  21.932  1.00  0.00     0.085 C 
HETATM    6  C19 UNL     1      51.451  54.166  21.702  1.00  0.00     0.141 C 
HETATM    7  O2  UNL     1      51.021  54.953  22.510  1.00  0.00    -0.297 OA
HETATM    8  C20 UNL     1      52.284  54.829  20.676  1.00  0.00     0.162 C 
HETATM    9  C21 UNL     1      52.666  56.196  21.031  1.00  0.00     0.141 C 
HETATM   10  O3  UNL     1      52.834  56.653  22.115  1.00  0.00    -0.297 OA
HETATM   11  C22 UNL     1      52.813  56.926  19.747  1.00  0.00     0.086 C 
HETATM   12  C23 UNL     1      51.681  56.305  18.962  1.00  0.00     0.027 C 
HETATM   13  C24 UNL     1      50.406  56.933  19.407  1.00  0.00     0.014 C 
HETATM   14  C25 UNL     1      51.753  54.792  19.297  1.00  0.00     0.107 C 
HETATM   15  C26 UNL     1      50.443  54.163  19.059  1.00  0.00     0.190 C 
ENDROOT
BRANCH   1  16
HETATM   16  C10 UNL     1      49.017  52.625  17.981  1.00  0.00     0.043 C 
BRANCH  16  17
HETATM   17  C9  UNL     1      48.944  52.390  16.530  1.00  0.00     0.003 C 
BRANCH  17  18
HETATM   18  C8  UNL     1      48.207  51.155  16.134  1.00  0.00     0.000 C 
BRANCH  18  19
HETATM   19  C7  UNL     1      48.279  50.905  14.633  1.00  0.00     0.000 C 
BRANCH  19  20
HETATM   20  C6  UNL     1      47.211  49.920  14.251  1.00  0.00     0.000 C 
BRANCH  20  21
HETATM   21  C5  UNL     1      47.087  48.778  15.226  1.00  0.00     0.000 C 
BRANCH  21  22
HETATM   22  C4  UNL     1      45.647  48.340  15.271  1.00  0.00     0.000 C 
BRANCH  22  23
HETATM   23  C3  UNL     1      45.250  47.817  16.628  1.00  0.00    -0.000 C 
BRANCH  23  24
HETATM   24  C2  UNL     1      45.770  48.751  17.725  1.00  0.00    -0.005 C 
HETATM   25  C1  UNL     1      45.738  48.054  19.067  1.00  0.00     0.005 C 
ENDBRANCH  23  24
ENDBRANCH  22  23
ENDBRANCH  21  22
ENDBRANCH  20  21
ENDBRANCH  19  20
ENDBRANCH  18  19
ENDBRANCH  17  18
ENDBRANCH  16  17
ENDBRANCH   1  16
BRANCH   1  26
HETATM   26  O1  UNL     1      51.325  52.536  17.704  1.00  0.00    -0.385 OA
ATOM     27  H1  UNL     1      52.140  52.354  18.158  1.00  0.00     0.210 HD
ENDBRANCH   1  26
BRANCH   2  28
HETATM   28  N1  UNL     1      50.538  50.355  19.370  1.00  0.00     0.104 N 
HETATM   29  C13 UNL     1      50.646  49.147  20.063  1.00  0.00     0.308 A 
HETATM   30  C14 UNL     1      49.503  49.408  19.224  1.00  0.00     0.248 A 
HETATM   31  C15 UNL     1      49.494  48.683  17.865  1.00  0.00     0.045 C 
ENDBRANCH   2  28
BRANCH  15  32
HETATM   32  O5  UNL     1      49.461  54.539  19.993  1.00  0.00    -0.389 OA
ATOM     33  H5  UNL     1      49.818  54.702  20.858  1.00  0.00     0.210 HD
ENDBRANCH  15  32
BRANCH  14  34
HETATM   34  O4  UNL     1      52.676  54.336  18.350  1.00  0.00    -0.385 OA
ATOM     35  H4  UNL     1      53.471  54.854  18.311  1.00  0.00     0.210 HD
ENDBRANCH  14  34
TORSDOF 13
ENDMDL
MODEL 5
REMARK VINA RESULT: -7.501024871      0.658      1.101
REMARK  13 active torsions:
REMARK  status: ('A' for Active; 'I' for Inactive)
REMARK    1  A    between atoms: C2_2  and  C3_3 
REMARK    2  A    between atoms: C3_3  and  C4_4 
REMARK    3  A    between atoms: C4_4  and  C5_5 
REMARK    4  A    between atoms: C5_5  and  C6_6 
REMARK    5  A    between atoms: C6_6  and  C7_7 
REMARK    6  A    between atoms: C7_7  and  C8_8 
REMARK    7  A    between atoms: C8_8  and  C9_9 
REMARK    8  A    between atoms: C9_9  and  C10_10 
REMARK    9  A    between atoms: C10_10  and  C11_11 
REMARK   10  A    between atoms: C11_11  and  O1_12 
REMARK   11  A    between atoms: C12_14  and  N1_15 
REMARK   12  A    between atoms: C25_30  and  O4_31 
REMARK   13  A    between atoms: C26_33  and  O5_34 
ROOT
HETATM    1  C11 UNL     1      49.294  51.695  16.651  1.00  0.00     0.118 C 
HETATM    2  C12 UNL     1      48.709  50.381  16.941  1.00  0.00     0.264 C 
HETATM    3  C16 UNL     1      49.538  49.386  17.700  1.00  0.00     0.025 C 
HETATM    4  C17 UNL     1      49.013  47.991  17.407  1.00  0.00     0.012 C 
HETATM    5  C18 UNL     1      49.494  49.537  19.192  1.00  0.00     0.085 C 
HETATM    6  C19 UNL     1      50.641  50.363  19.638  1.00  0.00     0.141 C 
HETATM    7  O2  UNL     1      50.633  50.648  20.810  1.00  0.00    -0.297 OA
HETATM    8  C20 UNL     1      51.819  50.923  18.942  1.00  0.00     0.162 C 
HETATM    9  C21 UNL     1      52.856  51.408  19.851  1.00  0.00     0.141 C 
HETATM   10  O3  UNL     1      53.120  51.015  20.941  1.00  0.00    -0.297 OA
HETATM   11  C22 UNL     1      53.542  52.515  19.138  1.00  0.00     0.086 C 
HETATM   12  C23 UNL     1      52.361  53.144  18.434  1.00  0.00     0.027 C 
HETATM   13  C24 UNL     1      51.616  53.971  19.422  1.00  0.00     0.014 C 
HETATM   14  C25 UNL     1      51.530  51.943  17.911  1.00  0.00     0.107 C 
HETATM   15  C26 UNL     1      50.133  52.355  17.695  1.00  0.00     0.190 C 
ENDROOT
BRANCH   1  16
HETATM   16  C10 UNL     1      48.232  52.707  16.344  1.00  0.00     0.043 C 
BRANCH  16  17
HETATM   17  C9  UNL     1      48.188  53.984  17.074  1.00  0.00     0.003 C 
BRANCH  17  18
HETATM   18  C8  UNL     1      47.918  55.181  16.225  1.00  0.00     0.000 C 
BRANCH  18  19
HETATM   19  C7  UNL     1      48.338  56.474  16.912  1.00  0.00     0.000 C 
BRANCH  19  20
HETATM   20  C6  UNL     1      49.081  56.136  18.173  1.00  0.00     0.000 C 
BRANCH  20  21
HETATM   21  C5  UNL     1      49.414  57.349  19.003  1.00  0.00     0.000 C 
BRANCH  21  22
HETATM   22  C4  UNL     1      48.816  57.172  20.373  1.00  0.00     0.000 C 
BRANCH  22  23
HETATM   23  C3  UNL     1      47.848  58.273  20.723  1.00  0.00    -0.000 C 
BRANCH  23  24
HETATM   24  C2  UNL     1      47.810  59.316  19.602  1.00  0.00    -0.005 C 
HETATM   25  C1  UNL     1      46.398  59.480  19.086  1.00  0.00     0.005 C 
ENDBRANCH  23  24
ENDBRANCH  22  23
ENDBRANCH  21  22
ENDBRANCH  20  21
ENDBRANCH  19  20
ENDBRANCH  18  19
ENDBRANCH  17  18
ENDBRANCH  16  17
ENDBRANCH   1  16
BRANCH   1  26
HETATM   26  O1  UNL     1      50.106  51.593  15.532  1.00  0.00    -0.385 OA
ATOM     27  H1  UNL     1      50.158  52.456  15.139  1.00  0.00     0.210 HD
ENDBRANCH   1  26
BRANCH   2  28
HETATM   28  N1  UNL     1      48.035  49.673  15.960  1.00  0.00     0.104 N 
HETATM   29  C13 UNL     1      46.789  49.053  15.839  1.00  0.00     0.308 A 
HETATM   30  C14 UNL     1      47.166  50.117  14.941  1.00  0.00     0.248 A 
HETATM   31  C15 UNL     1      47.576  49.678  13.523  1.00  0.00     0.045 C 
ENDBRANCH   2  28
BRANCH  15  32
HETATM   32  O5  UNL     1      49.427  52.596  18.888  1.00  0.00    -0.389 OA
ATOM     33  H5  UNL     1      49.982  52.929  19.583  1.00  0.00     0.210 HD
ENDBRANCH  15  32
BRANCH  14  34
HETATM   34  O4  UNL     1      52.144  51.688  16.679  1.00  0.00    -0.385 OA
ATOM     35  H4  UNL     1      52.088  52.413  16.068  1.00  0.00     0.210 HD
ENDBRANCH  14  34
TORSDOF 13
ENDMDL
