MODEL 1
REMARK VINA RESULT: -6.493522219      0.000      0.000
REMARK  3 active torsions:
REMARK  status: ('A' for Active; 'I' for Inactive)
REMARK    1  A    between atoms: C4_4  and  O1_5 
REMARK    2  A    between atoms: C5_7  and  O2_8 
REMARK    3  A    between atoms: C6_10  and  O3_11 
ROOT
HETATM    1  C1  UNL     1      38.068  16.465  32.875  1.00  0.00     0.014 C 
HETATM    2  C2  UNL     1      38.619  15.863  31.833  1.00  0.00    -0.086 C 
HETATM    3  C3  UNL     1      37.819  14.699  31.361  1.00  0.00     0.067 C 
HETATM    4  C4  UNL     1      38.626  14.019  30.278  1.00  0.00     0.153 C 
HETATM    5  C5  UNL     1      38.572  14.879  29.064  1.00  0.00     0.182 C 
HETATM    6  C6  UNL     1      39.798  15.746  28.930  1.00  0.00     0.098 C 
HETATM    7  C7  UNL     1      39.759  16.331  27.536  1.00  0.00     0.023 C 
HETATM    8  C8  UNL     1      38.496  17.091  27.353  1.00  0.00     0.008 C 
HETATM    9  C9  UNL     1      38.169  18.078  28.403  1.00  0.00     0.001 C 
HETATM   10  C10 UNL     1      38.673  17.809  29.762  1.00  0.00     0.013 C 
HETATM   11  C11 UNL     1      39.829  16.900  29.892  1.00  0.00     0.001 C 
HETATM   12  C12 UNL     1      39.885  16.439  31.350  1.00  0.00     0.046 C 
HETATM   13  C13 UNL     1      41.181  17.564  29.657  1.00  0.00    -0.007 C 
HETATM   14  C14 UNL     1      41.534  18.560  30.702  1.00  0.00     0.011 C 
HETATM   15  C15 UNL     1      41.343  18.125  28.290  1.00  0.00     0.005 C 
HETATM   16  C16 UNL     1      40.921  17.187  27.196  1.00  0.00     0.008 C 
ENDROOT
BRANCH   4  17
HETATM   17  O1  UNL     1      38.210  12.714  30.064  1.00  0.00    -0.393 OA
ATOM     18  H1  UNL     1      38.338  12.444  29.162  1.00  0.00     0.210 HD
ENDBRANCH   4  17
BRANCH   5  19
HETATM   19  O2  UNL     1      38.533  14.046  27.940  1.00  0.00    -0.390 OA
ATOM     20  H2  UNL     1      37.718  14.207  27.481  1.00  0.00     0.210 HD
ENDBRANCH   5  19
BRANCH   6  21
HETATM   21  O3  UNL     1      40.938  14.983  29.049  1.00  0.00    -0.386 OA
ATOM     22  H3  UNL     1      41.484  15.312  29.753  1.00  0.00     0.210 HD
ENDBRANCH   6  21
TORSDOF 3
ENDMDL
MODEL 2
REMARK VINA RESULT: -6.156835711      1.882      2.919
REMARK  3 active torsions:
REMARK  status: ('A' for Active; 'I' for Inactive)
REMARK    1  A    between atoms: C4_4  and  O1_5 
REMARK    2  A    between atoms: C5_7  and  O2_8 
REMARK    3  A    between atoms: C6_10  and  O3_11 
ROOT
HETATM    1  C1  UNL     1      38.905  17.487  30.248  1.00  0.00     0.014 C 
HETATM    2  C2  UNL     1      39.551  16.753  29.356  1.00  0.00    -0.086 C 
HETATM    3  C3  UNL     1      39.291  15.296  29.524  1.00  0.00     0.067 C 
HETATM    4  C4  UNL     1      40.196  14.572  28.552  1.00  0.00     0.153 C 
HETATM    5  C5  UNL     1      39.647  14.777  27.182  1.00  0.00     0.182 C 
HETATM    6  C6  UNL     1      40.355  15.889  26.451  1.00  0.00     0.098 C 
HETATM    7  C7  UNL     1      39.920  15.794  25.005  1.00  0.00     0.023 C 
HETATM    8  C8  UNL     1      38.441  15.903  24.925  1.00  0.00     0.008 C 
HETATM    9  C9  UNL     1      37.829  17.044  25.638  1.00  0.00     0.001 C 
HETATM   10  C10 UNL     1      38.539  17.556  26.825  1.00  0.00     0.013 C 
HETATM   11  C11 UNL     1      39.981  17.262  26.936  1.00  0.00     0.001 C 
HETATM   12  C12 UNL     1      40.383  17.492  28.393  1.00  0.00     0.046 C 
HETATM   13  C13 UNL     1      40.879  18.208  26.145  1.00  0.00    -0.007 C 
HETATM   14  C14 UNL     1      40.871  19.599  26.671  1.00  0.00     0.011 C 
HETATM   15  C15 UNL     1      40.638  18.177  24.678  1.00  0.00     0.005 C 
HETATM   16  C16 UNL     1      40.553  16.791  24.108  1.00  0.00     0.008 C 
ENDROOT
BRANCH   4  17
HETATM   17  O1  UNL     1      40.368  13.240  28.898  1.00  0.00    -0.393 OA
ATOM     18  H1  UNL     1      40.432  12.681  28.132  1.00  0.00     0.210 HD
ENDBRANCH   4  17
BRANCH   5  19
HETATM   19  O2  UNL     1      39.858  13.604  26.449  1.00  0.00    -0.390 OA
ATOM     20  H2  UNL     1      39.547  13.749  25.563  1.00  0.00     0.210 HD
ENDBRANCH   5  19
BRANCH   6  21
HETATM   21  O3  UNL     1      41.719  15.707  26.507  1.00  0.00    -0.386 OA
ATOM     22  H3  UNL     1      42.120  15.965  25.686  1.00  0.00     0.210 HD
ENDBRANCH   6  21
TORSDOF 3
ENDMDL
MODEL 3
REMARK VINA RESULT: -6.070995080      6.559      9.123
REMARK  3 active torsions:
REMARK  status: ('A' for Active; 'I' for Inactive)
REMARK    1  A    between atoms: C4_4  and  O1_5 
REMARK    2  A    between atoms: C5_7  and  O2_8 
REMARK    3  A    between atoms: C6_10  and  O3_11 
ROOT
HETATM    1  C1  UNL     1      45.920  24.570  25.611  1.00  0.00     0.014 C 
HETATM    2  C2  UNL     1      45.690  23.336  25.192  1.00  0.00    -0.086 C 
HETATM    3  C3  UNL     1      46.823  22.416  25.488  1.00  0.00     0.067 C 
HETATM    4  C4  UNL     1      46.499  21.092  24.831  1.00  0.00     0.153 C 
HETATM    5  C5  UNL     1      45.421  20.442  25.627  1.00  0.00     0.182 C 
HETATM    6  C6  UNL     1      44.058  20.664  25.022  1.00  0.00     0.098 C 
HETATM    7  C7  UNL     1      43.115  19.723  25.737  1.00  0.00     0.023 C 
HETATM    8  C8  UNL     1      43.148  20.003  27.195  1.00  0.00     0.008 C 
HETATM    9  C9  UNL     1      42.970  21.415  27.595  1.00  0.00     0.001 C 
HETATM   10  C10 UNL     1      43.413  22.447  26.640  1.00  0.00     0.013 C 
HETATM   11  C11 UNL     1      43.531  22.057  25.221  1.00  0.00     0.001 C 
HETATM   12  C12 UNL     1      44.396  23.111  24.528  1.00  0.00     0.046 C 
HETATM   13  C13 UNL     1      42.215  22.085  24.450  1.00  0.00    -0.007 C 
HETATM   14  C14 UNL     1      41.664  23.456  24.282  1.00  0.00     0.011 C 
HETATM   15  C15 UNL     1      41.191  21.145  24.976  1.00  0.00     0.005 C 
HETATM   16  C16 UNL     1      41.717  19.764  25.243  1.00  0.00     0.008 C 
ENDROOT
BRANCH   4  17
HETATM   17  O1  UNL     1      47.629  20.307  24.663  1.00  0.00    -0.393 OA
ATOM     18  H1  UNL     1      47.412  19.434  24.358  1.00  0.00     0.210 HD
ENDBRANCH   4  17
BRANCH   5  19
HETATM   19  O2  UNL     1      45.652  19.061  25.626  1.00  0.00    -0.390 OA
ATOM     20  H2  UNL     1      44.810  18.621  25.634  1.00  0.00     0.210 HD
ENDBRANCH   5  19
BRANCH   6  21
HETATM   21  O3  UNL     1      44.070  20.334  23.685  1.00  0.00    -0.386 OA
ATOM     22  H3  UNL     1      43.193  20.118  23.391  1.00  0.00     0.210 HD
ENDBRANCH   6  21
TORSDOF 3
ENDMDL
MODEL 4
REMARK VINA RESULT: -6.041850921      6.030      8.249
REMARK  3 active torsions:
REMARK  status: ('A' for Active; 'I' for Inactive)
REMARK    1  A    between atoms: C4_4  and  O1_5 
REMARK    2  A    between atoms: C5_7  and  O2_8 
REMARK    3  A    between atoms: C6_10  and  O3_11 
ROOT
HETATM    1  C1  UNL     1      42.806  23.370  26.820  1.00  0.00     0.014 C 
HETATM    2  C2  UNL     1      43.229  22.135  26.602  1.00  0.00    -0.086 C 
HETATM    3  C3  UNL     1      42.133  21.133  26.714  1.00  0.00     0.067 C 
HETATM    4  C4  UNL     1      42.772  19.767  26.594  1.00  0.00     0.153 C 
HETATM    5  C5  UNL     1      43.159  19.570  25.170  1.00  0.00     0.182 C 
HETATM    6  C6  UNL     1      44.618  19.873  24.934  1.00  0.00     0.098 C 
HETATM    7  C7  UNL     1      44.943  19.355  23.551  1.00  0.00     0.023 C 
HETATM    8  C8  UNL     1      44.053  20.005  22.556  1.00  0.00     0.008 C 
HETATM    9  C9  UNL     1      43.971  21.480  22.616  1.00  0.00     0.001 C 
HETATM   10  C10 UNL     1      44.192  22.114  23.929  1.00  0.00     0.013 C 
HETATM   11  C11 UNL     1      44.937  21.341  24.942  1.00  0.00     0.001 C 
HETATM   12  C12 UNL     1      44.662  21.987  26.302  1.00  0.00     0.046 C 
HETATM   13  C13 UNL     1      46.453  21.408  24.795  1.00  0.00    -0.007 C 
HETATM   14  C14 UNL     1      47.009  22.761  25.062  1.00  0.00     0.011 C 
HETATM   15  C15 UNL     1      46.955  20.854  23.510  1.00  0.00     0.005 C 
HETATM   16  C16 UNL     1      46.361  19.523  23.151  1.00  0.00     0.008 C 
ENDROOT
BRANCH   4  17
HETATM   17  O1  UNL     1      41.956  18.767  27.101  1.00  0.00    -0.393 OA
ATOM     18  H1  UNL     1      41.311  19.110  27.708  1.00  0.00     0.210 HD
ENDBRANCH   4  17
BRANCH   5  19
HETATM   19  O2  UNL     1      42.962  18.222  24.847  1.00  0.00    -0.390 OA
ATOM     20  H2  UNL     1      43.796  17.858  24.575  1.00  0.00     0.210 HD
ENDBRANCH   5  19
BRANCH   6  21
HETATM   21  O3  UNL     1      45.400  19.199  25.845  1.00  0.00    -0.386 OA
ATOM     22  H3  UNL     1      45.918  19.813  26.351  1.00  0.00     0.210 HD
ENDBRANCH   6  21
TORSDOF 3
ENDMDL
MODEL 5
REMARK VINA RESULT: -5.695411728      2.346      3.964
REMARK  3 active torsions:
REMARK  status: ('A' for Active; 'I' for Inactive)
REMARK    1  A    between atoms: C4_4  and  O1_5 
REMARK    2  A    between atoms: C5_7  and  O2_8 
REMARK    3  A    between atoms: C6_10  and  O3_11 
ROOT
HETATM    1  C1  UNL     1      41.009  17.822  28.703  1.00  0.00     0.014 C 
HETATM    2  C2  UNL     1      40.550  16.662  28.261  1.00  0.00    -0.086 C 
HETATM    3  C3  UNL     1      39.565  16.048  29.195  1.00  0.00     0.067 C 
HETATM    4  C4  UNL     1      39.240  14.675  28.651  1.00  0.00     0.153 C 
HETATM    5  C5  UNL     1      38.379  14.855  27.449  1.00  0.00     0.182 C 
HETATM    6  C6  UNL     1      39.173  14.776  26.169  1.00  0.00     0.098 C 
HETATM    7  C7  UNL     1      38.165  14.673  25.046  1.00  0.00     0.023 C 
HETATM    8  C8  UNL     1      37.256  15.847  25.087  1.00  0.00     0.008 C 
HETATM    9  C9  UNL     1      37.904  17.174  25.162  1.00  0.00     0.001 C 
HETATM   10  C10 UNL     1      39.223  17.244  25.817  1.00  0.00     0.013 C 
HETATM   11  C11 UNL     1      40.008  15.996  25.902  1.00  0.00     0.001 C 
HETATM   12  C12 UNL     1      41.085  16.207  26.968  1.00  0.00     0.046 C 
HETATM   13  C13 UNL     1      40.792  15.659  24.638  1.00  0.00    -0.007 C 
HETATM   14  C14 UNL     1      41.890  16.621  24.356  1.00  0.00     0.011 C 
HETATM   15  C15 UNL     1      39.936  15.439  23.443  1.00  0.00     0.005 C 
HETATM   16  C16 UNL     1      38.762  14.539  23.696  1.00  0.00     0.008 C 
ENDROOT
BRANCH   4  17
HETATM   17  O1  UNL     1      38.689  13.851  29.620  1.00  0.00    -0.393 OA
ATOM     18  H1  UNL     1      39.280  13.150  29.868  1.00  0.00     0.210 HD
ENDBRANCH   4  17
BRANCH   5  19
HETATM   19  O2  UNL     1      37.447  13.811  27.419  1.00  0.00    -0.390 OA
ATOM     20  H2  UNL     1      37.509  13.384  26.573  1.00  0.00     0.210 HD
ENDBRANCH   5  19
BRANCH   6  21
HETATM   21  O3  UNL     1      39.952  13.641  26.159  1.00  0.00    -0.386 OA
ATOM     22  H3  UNL     1      40.212  13.412  27.043  1.00  0.00     0.210 HD
ENDBRANCH   6  21
TORSDOF 3
ENDMDL
