MODEL 1
REMARK VINA RESULT: -7.178767386      0.000      0.000
REMARK  2 active torsions:
REMARK  status: ('A' for Active; 'I' for Inactive)
REMARK    1  A    between atoms: C6_6  and  O1_7 
REMARK    2  A    between atoms: C14_16  and  O2_17 
ROOT
HETATM    1  C1  UNL     1      37.530  13.074  32.143  1.00  0.00     0.039 C 
HETATM    2  C2  UNL     1      38.093  14.450  31.998  1.00  0.00     0.117 C 
HETATM    3  C3  UNL     1      37.366  15.430  32.920  1.00  0.00     0.032 C 
HETATM    4  C4  UNL     1      38.346  16.107  33.866  1.00  0.00     0.005 C 
HETATM    5  C5  UNL     1      38.678  17.503  33.457  1.00  0.00     0.032 C 
HETATM    6  C6  UNL     1      39.910  17.564  32.546  1.00  0.00     0.118 C 
HETATM    7  C7  UNL     1      40.490  18.935  32.696  1.00  0.00     0.032 C 
HETATM    8  C8  UNL     1      41.383  19.375  31.611  1.00  0.00     0.002 C 
HETATM    9  C9  UNL     1      41.630  18.420  30.510  1.00  0.00     0.000 C 
HETATM   10  C10 UNL     1      40.873  18.821  29.236  1.00  0.00     0.000 C 
HETATM   11  C11 UNL     1      41.170  17.760  28.189  1.00  0.00     0.000 C 
HETATM   12  C12 UNL     1      39.949  16.883  28.080  1.00  0.00     0.002 C 
HETATM   13  C13 UNL     1      40.379  15.455  27.865  1.00  0.00     0.032 C 
HETATM   14  C14 UNL     1      39.746  14.510  28.879  1.00  0.00     0.120 C 
HETATM   15  C15 UNL     1      38.304  14.290  28.530  1.00  0.00     0.058 C 
HETATM   16  C16 UNL     1      37.415  14.301  29.783  1.00  0.00     0.170 C 
HETATM   17  O3  UNL     1      38.092  14.966  30.749  1.00  0.00    -0.386 OA
ENDROOT
BRANCH   6  18
HETATM   18  O1  UNL     1      40.863  16.653  33.023  1.00  0.00    -0.396 OA
ATOM     19  H1  UNL     1      41.634  16.705  32.471  1.00  0.00     0.210 HD
ENDBRANCH   6  18
BRANCH  14  20
HETATM   20  O2  UNL     1      40.411  13.299  28.792  1.00  0.00    -0.396 OA
ATOM     21  H2  UNL     1      40.828  13.141  29.630  1.00  0.00     0.210 HD
ENDBRANCH  14  20
TORSDOF 2
ENDMDL
MODEL 2
REMARK VINA RESULT: -6.747169514      1.794      2.308
REMARK  2 active torsions:
REMARK  status: ('A' for Active; 'I' for Inactive)
REMARK    1  A    between atoms: C6_6  and  O1_7 
REMARK    2  A    between atoms: C14_16  and  O2_17 
ROOT
HETATM    1  C1  UNL     1      38.530  13.946  29.660  1.00  0.00     0.039 C 
HETATM    2  C2  UNL     1      39.083  15.313  29.900  1.00  0.00     0.117 C 
HETATM    3  C3  UNL     1      38.362  15.989  31.067  1.00  0.00     0.032 C 
HETATM    4  C4  UNL     1      39.349  16.382  32.155  1.00  0.00     0.005 C 
HETATM    5  C5  UNL     1      39.668  17.841  32.149  1.00  0.00     0.032 C 
HETATM    6  C6  UNL     1      40.888  18.165  31.280  1.00  0.00     0.118 C 
HETATM    7  C7  UNL     1      41.462  19.445  31.802  1.00  0.00     0.032 C 
HETATM    8  C8  UNL     1      42.338  20.179  30.875  1.00  0.00     0.002 C 
HETATM    9  C9  UNL     1      42.578  19.573  29.548  1.00  0.00     0.000 C 
HETATM   10  C10 UNL     1      41.803  20.308  28.445  1.00  0.00     0.000 C 
HETATM   11  C11 UNL     1      42.094  19.585  27.140  1.00  0.00     0.000 C 
HETATM   12  C12 UNL     1      40.876  18.763  26.802  1.00  0.00     0.002 C 
HETATM   13  C13 UNL     1      41.312  17.456  26.191  1.00  0.00     0.032 C 
HETATM   14  C14 UNL     1      40.697  16.259  26.906  1.00  0.00     0.120 C 
HETATM   15  C15 UNL     1      39.253  16.133  26.525  1.00  0.00     0.058 C 
HETATM   16  C16 UNL     1      38.379  15.784  27.738  1.00  0.00     0.170 C 
HETATM   17  O3  UNL     1      39.063  16.159  28.846  1.00  0.00    -0.386 OA
ENDROOT
BRANCH   6  18
HETATM   18  O1  UNL     1      41.852  17.166  31.473  1.00  0.00    -0.396 OA
ATOM     19  H1  UNL     1      42.445  17.170  30.731  1.00  0.00     0.210 HD
ENDBRANCH   6  18
BRANCH  14  20
HETATM   20  O2  UNL     1      41.368  15.127  26.477  1.00  0.00    -0.396 OA
ATOM     21  H2  UNL     1      40.919  14.804  25.705  1.00  0.00     0.210 HD
ENDBRANCH  14  20
TORSDOF 2
ENDMDL
MODEL 3
REMARK VINA RESULT: -6.643181218      1.647      6.165
REMARK  2 active torsions:
REMARK  status: ('A' for Active; 'I' for Inactive)
REMARK    1  A    between atoms: C6_6  and  O1_7 
REMARK    2  A    between atoms: C14_16  and  O2_17 
ROOT
HETATM    1  C1  UNL     1      43.122  19.771  29.645  1.00  0.00     0.039 C 
HETATM    2  C2  UNL     1      42.003  18.854  29.273  1.00  0.00     0.117 C 
HETATM    3  C3  UNL     1      41.383  19.274  27.938  1.00  0.00     0.032 C 
HETATM    4  C4  UNL     1      41.450  18.135  26.932  1.00  0.00     0.005 C 
HETATM    5  C5  UNL     1      40.142  17.438  26.759  1.00  0.00     0.032 C 
HETATM    6  C6  UNL     1      39.987  16.247  27.713  1.00  0.00     0.118 C 
HETATM    7  C7  UNL     1      39.006  15.311  27.079  1.00  0.00     0.032 C 
HETATM    8  C8  UNL     1      38.365  14.345  27.985  1.00  0.00     0.002 C 
HETATM    9  C9  UNL     1      38.768  14.382  29.407  1.00  0.00     0.000 C 
HETATM   10  C10 UNL     1      37.680  15.015  30.286  1.00  0.00     0.000 C 
HETATM   11  C11 UNL     1      38.211  15.031  31.709  1.00  0.00     0.000 C 
HETATM   12  C12 UNL     1      38.627  16.448  32.016  1.00  0.00     0.002 C 
HETATM   13  C13 UNL     1      39.873  16.428  32.863  1.00  0.00     0.032 C 
HETATM   14  C14 UNL     1      40.983  17.285  32.266  1.00  0.00     0.120 C 
HETATM   15  C15 UNL     1      40.672  18.735  32.483  1.00  0.00     0.058 C 
HETATM   16  C16 UNL     1      40.997  19.572  31.237  1.00  0.00     0.170 C 
HETATM   17  O3  UNL     1      41.008  18.728  30.178  1.00  0.00    -0.386 OA
ENDROOT
BRANCH   6  18
HETATM   18  O1  UNL     1      41.215  15.575  27.789  1.00  0.00    -0.396 OA
ATOM     19  H1  UNL     1      41.259  15.120  28.622  1.00  0.00     0.210 HD
ENDBRANCH   6  18
BRANCH  14  20
HETATM   20  O2  UNL     1      42.154  16.978  32.938  1.00  0.00    -0.396 OA
ATOM     21  H2  UNL     1      42.863  17.015  32.307  1.00  0.00     0.210 HD
ENDBRANCH  14  20
TORSDOF 2
ENDMDL
MODEL 4
REMARK VINA RESULT: -6.556791446      1.360      5.970
REMARK  2 active torsions:
REMARK  status: ('A' for Active; 'I' for Inactive)
REMARK    1  A    between atoms: C6_6  and  O1_7 
REMARK    2  A    between atoms: C14_16  and  O2_17 
ROOT
HETATM    1  C1  UNL     1      41.130  17.042  28.387  1.00  0.00     0.039 C 
HETATM    2  C2  UNL     1      39.998  16.319  29.042  1.00  0.00     0.117 C 
HETATM    3  C3  UNL     1      38.840  16.128  28.061  1.00  0.00     0.032 C 
HETATM    4  C4  UNL     1      38.504  14.654  27.905  1.00  0.00     0.005 C 
HETATM    5  C5  UNL     1      37.281  14.254  28.662  1.00  0.00     0.032 C 
HETATM    6  C6  UNL     1      37.608  13.768  30.080  1.00  0.00     0.118 C 
HETATM    7  C7  UNL     1      36.486  12.869  30.496  1.00  0.00     0.032 C 
HETATM    8  C8  UNL     1      36.346  12.650  31.945  1.00  0.00     0.002 C 
HETATM    9  C9  UNL     1      37.331  13.313  32.828  1.00  0.00     0.000 C 
HETATM   10  C10 UNL     1      36.713  14.512  33.559  1.00  0.00     0.000 C 
HETATM   11  C11 UNL     1      37.813  15.133  34.404  1.00  0.00     0.000 C 
HETATM   12  C12 UNL     1      38.265  16.388  33.701  1.00  0.00     0.002 C 
HETATM   13  C13 UNL     1      39.756  16.538  33.860  1.00  0.00     0.032 C 
HETATM   14  C14 UNL     1      40.457  16.723  32.519  1.00  0.00     0.120 C 
HETATM   15  C15 UNL     1      40.215  18.114  32.013  1.00  0.00     0.058 C 
HETATM   16  C16 UNL     1      39.928  18.120  30.505  1.00  0.00     0.170 C 
HETATM   17  O3  UNL     1      39.507  16.877  30.170  1.00  0.00    -0.386 OA
ENDROOT
BRANCH   6  18
HETATM   18  O1  UNL     1      38.771  12.987  30.026  1.00  0.00    -0.396 OA
ATOM     19  H1  UNL     1      38.702  12.297  30.675  1.00  0.00     0.210 HD
ENDBRANCH   6  18
BRANCH  14  20
HETATM   20  O2  UNL     1      41.815  16.560  32.732  1.00  0.00    -0.396 OA
ATOM     21  H2  UNL     1      42.220  16.407  31.887  1.00  0.00     0.210 HD
ENDBRANCH  14  20
TORSDOF 2
ENDMDL
MODEL 5
REMARK VINA RESULT: -6.495551471      2.500      4.159
REMARK  2 active torsions:
REMARK  status: ('A' for Active; 'I' for Inactive)
REMARK    1  A    between atoms: C6_6  and  O1_7 
REMARK    2  A    between atoms: C14_16  and  O2_17 
ROOT
HETATM    1  C1  UNL     1      40.570  16.937  32.450  1.00  0.00     0.039 C 
HETATM    2  C2  UNL     1      40.834  17.871  31.314  1.00  0.00     0.117 C 
HETATM    3  C3  UNL     1      40.669  19.325  31.762  1.00  0.00     0.032 C 
HETATM    4  C4  UNL     1      41.948  20.111  31.523  1.00  0.00     0.005 C 
HETATM    5  C5  UNL     1      41.873  20.989  30.318  1.00  0.00     0.032 C 
HETATM    6  C6  UNL     1      42.372  20.282  29.052  1.00  0.00     0.118 C 
HETATM    7  C7  UNL     1      42.816  21.355  28.107  1.00  0.00     0.032 C 
HETATM    8  C8  UNL     1      42.905  20.963  26.691  1.00  0.00     0.002 C 
HETATM    9  C9  UNL     1      42.573  19.562  26.355  1.00  0.00     0.000 C 
HETATM   10  C10 UNL     1      41.201  19.456  25.674  1.00  0.00     0.000 C 
HETATM   11  C11 UNL     1      40.950  17.982  25.406  1.00  0.00     0.000 C 
HETATM   12  C12 UNL     1      39.958  17.502  26.435  1.00  0.00     0.002 C 
HETATM   13  C13 UNL     1      40.313  16.099  26.853  1.00  0.00     0.032 C 
HETATM   14  C14 UNL     1      40.442  15.969  28.366  1.00  0.00     0.120 C 
HETATM   15  C15 UNL     1      39.078  15.974  28.989  1.00  0.00     0.058 C 
HETATM   16  C16 UNL     1      39.047  16.823  30.268  1.00  0.00     0.170 C 
HETATM   17  O3  UNL     1      40.089  17.686  30.203  1.00  0.00    -0.386 OA
ENDROOT
BRANCH   6  18
HETATM   18  O1  UNL     1      43.502  19.521  29.382  1.00  0.00    -0.396 OA
ATOM     19  H1  UNL     1      44.094  19.522  28.638  1.00  0.00     0.210 HD
ENDBRANCH   6  18
BRANCH  14  20
HETATM   20  O2  UNL     1      41.044  14.752  28.631  1.00  0.00    -0.396 OA
ATOM     21  H2  UNL     1      41.734  14.628  27.990  1.00  0.00     0.210 HD
ENDBRANCH  14  20
TORSDOF 2
ENDMDL
