MODEL 1
REMARK VINA RESULT: -6.185528807      0.000      0.000
REMARK  5 active torsions:
REMARK  status: ('A' for Active; 'I' for Inactive)
REMARK    1  A    between atoms: C2_2  and  C4_4 
REMARK    2  A    between atoms: C4_4  and  N1_5 
REMARK    3  A    between atoms: C4_4  and  C5_9 
REMARK    4  A    between atoms: C7_13  and  O2_14 
REMARK    5  A    between atoms: C8_16  and  O3_17 
ROOT
HETATM    1  C5  UNL     1      -4.329   0.670  25.998  1.00  0.00     0.185 C 
HETATM    2  O1  UNL     1      -3.025   1.060  26.121  1.00  0.00    -0.362 OA
HETATM    3  C6  UNL     1      -2.218  -0.032  26.252  1.00  0.00     0.224 C 
HETATM    4 BR1  UNL     1      -0.956  -0.202  24.783  1.00  0.00    -0.059 Br
HETATM    5  C7  UNL     1      -3.049  -1.268  26.291  1.00  0.00     0.189 C 
HETATM    6  C8  UNL     1      -4.314  -0.805  25.598  1.00  0.00     0.181 C 
ENDROOT
BRANCH   1   7
HETATM    7  C4  UNL     1      -5.018   0.702  27.371  1.00  0.00     0.218 C 
BRANCH   7   8
HETATM    8  C2  UNL     1      -4.695   2.036  28.026  1.00  0.00     0.010 C 
HETATM    9  C1  UNL     1      -3.911   1.790  29.294  1.00  0.00     0.011 C 
HETATM   10  C3  UNL     1      -6.002   2.740  28.310  1.00  0.00     0.011 C 
ENDBRANCH   7   8
BRANCH   7  11
HETATM   11  N1  UNL     1      -6.385   0.423  27.329  1.00  0.00    -0.072 N 
ATOM     12  H13 UNL     1      -6.930   1.285  27.317  1.00  0.00     0.274 HD
ATOM     13  H12 UNL     1      -6.648   0.043  26.419  1.00  0.00     0.274 HD
ATOM     14  H11 UNL     1      -6.695  -0.192  28.082  1.00  0.00     0.274 HD
ENDBRANCH   7  11
ENDBRANCH   1   7
BRANCH   6  15
HETATM   15  O3  UNL     1      -4.135  -0.909  24.220  1.00  0.00    -0.390 OA
ATOM     16  H3  UNL     1      -4.048  -1.824  23.981  1.00  0.00     0.210 HD
ENDBRANCH   6  15
BRANCH   5  17
HETATM   17  O2  UNL     1      -2.489  -2.341  25.598  1.00  0.00    -0.389 OA
ATOM     18  H2  UNL     1      -2.646  -2.313  24.662  1.00  0.00     0.210 HD
ENDBRANCH   5  17
TORSDOF 5
ENDMDL
MODEL 2
REMARK VINA RESULT: -6.142826255      1.903      2.130
REMARK  5 active torsions:
REMARK  status: ('A' for Active; 'I' for Inactive)
REMARK    1  A    between atoms: C2_2  and  C4_4 
REMARK    2  A    between atoms: C4_4  and  N1_5 
REMARK    3  A    between atoms: C4_4  and  C5_9 
REMARK    4  A    between atoms: C7_13  and  O2_14 
REMARK    5  A    between atoms: C8_16  and  O3_17 
ROOT
HETATM    1  C5  UNL     1      -3.489   0.222  26.135  1.00  0.00     0.185 C 
HETATM    2  O1  UNL     1      -3.541   1.080  25.073  1.00  0.00    -0.362 OA
HETATM    3  C6  UNL     1      -2.366   1.041  24.379  1.00  0.00     0.224 C 
HETATM    4 BR1  UNL     1      -2.602   0.401  22.558  1.00  0.00    -0.059 Br
HETATM    5  C7  UNL     1      -1.408   0.130  25.066  1.00  0.00     0.189 C 
HETATM    6  C8  UNL     1      -2.347  -0.756  25.860  1.00  0.00     0.181 C 
ENDROOT
BRANCH   1   7
HETATM    7  C4  UNL     1      -3.066   0.980  27.402  1.00  0.00     0.218 C 
BRANCH   7   8
HETATM    8  C2  UNL     1      -4.071   2.097  27.638  1.00  0.00     0.010 C 
HETATM    9  C1  UNL     1      -3.525   3.047  28.677  1.00  0.00     0.011 C 
HETATM   10  C3  UNL     1      -5.367   1.465  28.091  1.00  0.00     0.011 C 
ENDBRANCH   7   8
BRANCH   7  11
HETATM   11  N1  UNL     1      -2.874   0.164  28.517  1.00  0.00    -0.072 N 
ATOM     12  H13 UNL     1      -2.327   0.648  29.230  1.00  0.00     0.274 HD
ATOM     13  H12 UNL     1      -3.748   0.040  29.030  1.00  0.00     0.274 HD
ATOM     14  H11 UNL     1      -2.456  -0.739  28.291  1.00  0.00     0.274 HD
ENDBRANCH   7  11
ENDBRANCH   1   7
BRANCH   6  15
HETATM   15  O3  UNL     1      -2.804  -1.780  25.032  1.00  0.00    -0.390 OA
ATOM     16  H3  UNL     1      -2.602  -2.619  25.428  1.00  0.00     0.210 HD
ENDBRANCH   6  15
BRANCH   5  17
HETATM   17  O2  UNL     1      -0.645  -0.643  24.192  1.00  0.00    -0.389 OA
ATOM     18  H2  UNL     1      -0.128  -1.311  24.626  1.00  0.00     0.210 HD
ENDBRANCH   5  17
TORSDOF 5
ENDMDL
MODEL 3
REMARK VINA RESULT: -6.072640164      2.184      2.451
REMARK  5 active torsions:
REMARK  status: ('A' for Active; 'I' for Inactive)
REMARK    1  A    between atoms: C2_2  and  C4_4 
REMARK    2  A    between atoms: C4_4  and  N1_5 
REMARK    3  A    between atoms: C4_4  and  C5_9 
REMARK    4  A    between atoms: C7_13  and  O2_14 
REMARK    5  A    between atoms: C8_16  and  O3_17 
ROOT
HETATM    1  C5  UNL     1      -3.988   0.331  25.677  1.00  0.00     0.185 C 
HETATM    2  O1  UNL     1      -4.201   1.490  24.986  1.00  0.00    -0.362 OA
HETATM    3  C6  UNL     1      -3.254   1.641  24.015  1.00  0.00     0.224 C 
HETATM    4 BR1  UNL     1      -4.018   1.640  22.227  1.00  0.00    -0.059 Br
HETATM    5  C7  UNL     1      -2.272   0.523  24.096  1.00  0.00     0.189 C 
HETATM    6  C8  UNL     1      -3.081  -0.541  24.810  1.00  0.00     0.181 C 
ENDROOT
BRANCH   1   7
HETATM    7  C4  UNL     1      -3.169   0.618  26.944  1.00  0.00     0.218 C 
BRANCH   7   8
HETATM    8  C2  UNL     1      -3.850   1.752  27.695  1.00  0.00     0.010 C 
HETATM    9  C1  UNL     1      -2.933   2.245  28.789  1.00  0.00     0.011 C 
HETATM   10  C3  UNL     1      -5.148   1.221  28.257  1.00  0.00     0.011 C 
ENDBRANCH   7   8
BRANCH   7  11
HETATM   11  N1  UNL     1      -2.932  -0.506  27.736  1.00  0.00    -0.072 N 
ATOM     12  H13 UNL     1      -3.282  -1.349  27.281  1.00  0.00     0.274 HD
ATOM     13  H12 UNL     1      -1.936  -0.727  27.760  1.00  0.00     0.274 HD
ATOM     14  H11 UNL     1      -3.307  -0.422  28.681  1.00  0.00     0.274 HD
ENDBRANCH   7  11
ENDBRANCH   1   7
BRANCH   6  15
HETATM   15  O3  UNL     1      -3.853  -1.222  23.871  1.00  0.00    -0.390 OA
ATOM     16  H3  UNL     1      -3.714  -2.157  23.965  1.00  0.00     0.210 HD
ENDBRANCH   6  15
BRANCH   5  17
HETATM   17  O2  UNL     1      -1.855   0.052  22.851  1.00  0.00    -0.389 OA
ATOM     18  H2  UNL     1      -0.928  -0.151  22.811  1.00  0.00     0.210 HD
ENDBRANCH   5  17
TORSDOF 5
ENDMDL
MODEL 4
REMARK VINA RESULT: -6.062832007      2.960      4.281
REMARK  5 active torsions:
REMARK  status: ('A' for Active; 'I' for Inactive)
REMARK    1  A    between atoms: C2_2  and  C4_4 
REMARK    2  A    between atoms: C4_4  and  N1_5 
REMARK    3  A    between atoms: C4_4  and  C5_9 
REMARK    4  A    between atoms: C7_13  and  O2_14 
REMARK    5  A    between atoms: C8_16  and  O3_17 
ROOT
HETATM    1  C5  UNL     1      -3.235  -0.224  25.160  1.00  0.00     0.185 C 
HETATM    2  O1  UNL     1      -3.026   0.941  25.842  1.00  0.00    -0.362 OA
HETATM    3  C6  UNL     1      -4.066   1.181  26.693  1.00  0.00     0.224 C 
HETATM    4 BR1  UNL     1      -3.512   1.191  28.556  1.00  0.00    -0.059 Br
HETATM    5  C7  UNL     1      -5.104   0.125  26.527  1.00  0.00     0.189 C 
HETATM    6  C8  UNL     1      -4.290  -1.010  25.938  1.00  0.00     0.181 C 
ENDROOT
BRANCH   1   7
HETATM    7  C4  UNL     1      -3.883   0.072  23.799  1.00  0.00     0.218 C 
BRANCH   7   8
HETATM    8  C2  UNL     1      -3.114   1.212  23.152  1.00  0.00     0.010 C 
HETATM    9  C1  UNL     1      -4.044   1.995  22.257  1.00  0.00     0.011 C 
HETATM   10  C3  UNL     1      -1.968   0.611  22.370  1.00  0.00     0.011 C 
ENDBRANCH   7   8
BRANCH   7  11
HETATM   11  N1  UNL     1      -4.015  -1.046  22.975  1.00  0.00    -0.072 N 
ATOM     12  H13 UNL     1      -3.326  -1.024  22.223  1.00  0.00     0.274 HD
ATOM     13  H12 UNL     1      -3.710  -1.891  23.460  1.00  0.00     0.274 HD
ATOM     14  H11 UNL     1      -4.956  -1.164  22.600  1.00  0.00     0.274 HD
ENDBRANCH   7  11
ENDBRANCH   1   7
BRANCH   6  15
HETATM   15  O3  UNL     1      -3.676  -1.708  26.976  1.00  0.00    -0.390 OA
ATOM     16  H3  UNL     1      -3.999  -2.601  26.991  1.00  0.00     0.210 HD
ENDBRANCH   6  15
BRANCH   5  17
HETATM   17  O2  UNL     1      -5.689  -0.279  27.726  1.00  0.00    -0.389 OA
ATOM     18  H2  UNL     1      -6.578   0.035  27.841  1.00  0.00     0.210 HD
ENDBRANCH   5  17
TORSDOF 5
ENDMDL
MODEL 5
REMARK VINA RESULT: -5.816957924      1.867      2.219
REMARK  5 active torsions:
REMARK  status: ('A' for Active; 'I' for Inactive)
REMARK    1  A    between atoms: C2_2  and  C4_4 
REMARK    2  A    between atoms: C4_4  and  N1_5 
REMARK    3  A    between atoms: C4_4  and  C5_9 
REMARK    4  A    between atoms: C7_13  and  O2_14 
REMARK    5  A    between atoms: C8_16  and  O3_17 
ROOT
HETATM    1  C5  UNL     1      -3.523  -0.013  26.334  1.00  0.00     0.185 C 
HETATM    2  O1  UNL     1      -3.528   0.954  25.369  1.00  0.00    -0.362 OA
HETATM    3  C6  UNL     1      -2.342   0.952  24.694  1.00  0.00     0.224 C 
HETATM    4 BR1  UNL     1      -2.561   0.517  22.811  1.00  0.00    -0.059 Br
HETATM    5  C7  UNL     1      -1.425  -0.058  25.295  1.00  0.00     0.189 C 
HETATM    6  C8  UNL     1      -2.406  -0.992  25.974  1.00  0.00     0.181 C 
ENDROOT
BRANCH   1   7
HETATM    7  C4  UNL     1      -3.102   0.592  27.681  1.00  0.00     0.218 C 
BRANCH   7   8
HETATM    8  C2  UNL     1      -4.331   1.224  28.316  1.00  0.00     0.010 C 
HETATM    9  C1  UNL     1      -5.571   0.684  27.644  1.00  0.00     0.011 C 
HETATM   10  C3  UNL     1      -4.219   2.722  28.151  1.00  0.00     0.011 C 
ENDBRANCH   7   8
BRANCH   7  11
HETATM   11  N1  UNL     1      -2.440  -0.300  28.525  1.00  0.00    -0.072 N 
ATOM     12  H13 UNL     1      -1.563   0.099  28.858  1.00  0.00     0.274 HD
ATOM     13  H12 UNL     1      -2.933  -0.391  29.414  1.00  0.00     0.274 HD
ATOM     14  H11 UNL     1      -2.284  -1.216  28.103  1.00  0.00     0.274 HD
ENDBRANCH   7  11
ENDBRANCH   1   7
BRANCH   6  15
HETATM   15  O3  UNL     1      -2.877  -1.907  25.035  1.00  0.00    -0.390 OA
ATOM     16  H3  UNL     1      -2.197  -2.082  24.395  1.00  0.00     0.210 HD
ENDBRANCH   6  15
BRANCH   5  17
HETATM   17  O2  UNL     1      -0.670  -0.758  24.356  1.00  0.00    -0.389 OA
ATOM     18  H2  UNL     1       0.090  -1.192  24.725  1.00  0.00     0.210 HD
ENDBRANCH   5  17
TORSDOF 5
ENDMDL
