MODEL 1
REMARK VINA RESULT: -7.182786427      0.000      0.000
REMARK  3 active torsions:
REMARK  status: ('A' for Active; 'I' for Inactive)
REMARK    1  A    between atoms: C3_3  and  O1_4 
REMARK    2  A    between atoms: C5_8  and  N1_9 
REMARK    3  A    between atoms: C7_13  and  N3_14 
REMARK       I    between atoms: N3_14  and  C8_16 
REMARK       I    between atoms: C8_16  and  N4_18 
ROOT
HETATM    1  N1  UNL     1      -3.250   2.729  27.884  1.00  0.00    -0.319 N 
ATOM      2  H1  UNL     1      -3.129   3.726  27.702  1.00  0.00     0.172 HD
HETATM    3  C6  UNL     1      -2.608   2.149  28.983  1.00  0.00     0.177 C 
HETATM    4  N2  UNL     1      -2.086   1.656  29.893  1.00  0.00    -0.172 NA
ENDROOT
BRANCH   1   5
HETATM    5  C5  UNL     1      -4.080   1.941  27.005  1.00  0.00     0.156 C 
HETATM    6  C4  UNL     1      -5.299   1.379  27.701  1.00  0.00     0.228 C 
HETATM    7  C3  UNL     1      -5.731   0.343  26.681  1.00  0.00     0.184 C 
HETATM    8  F1  UNL     1      -6.259   2.315  27.954  1.00  0.00    -0.244 F 
HETATM    9  C2  UNL     1      -4.452  -0.361  26.452  1.00  0.00    -0.033 C 
HETATM   10  C1  UNL     1      -4.313  -1.633  26.173  1.00  0.00     0.019 C 
HETATM   11  C7  UNL     1      -3.369   0.642  26.600  1.00  0.00     0.143 C 
BRANCH   7  12
HETATM   12  O1  UNL     1      -6.732  -0.488  27.167  1.00  0.00    -0.388 OA
ATOM     13  H1  UNL     1      -7.566  -0.045  27.274  1.00  0.00     0.210 HD
ENDBRANCH   7  12
BRANCH  11  14
HETATM   14  N3  UNL     1      -2.594   0.812  25.415  1.00  0.00    -0.332 N 
HETATM   15  C8  UNL     1      -1.347   0.096  25.303  1.00  0.00     0.318 C 
HETATM   16  O2  UNL     1      -0.962  -0.659  26.232  1.00  0.00    -0.247 OA
HETATM   17  N4  UNL     1      -0.529   0.218  24.157  1.00  0.00    -0.343 N 
HETATM   18  C9  UNL     1      -0.938   1.073  23.072  1.00  0.00     0.154 C 
HETATM   19  C10 UNL     1       0.706  -0.511  24.079  1.00  0.00     0.154 C 
ATOM     20  H3  UNL     1      -2.914   1.426  24.665  1.00  0.00     0.165 HD
ENDBRANCH  11  14
ENDBRANCH   1   5
TORSDOF 3
ENDMDL
MODEL 2
REMARK VINA RESULT: -7.087142606      2.752      3.950
REMARK  3 active torsions:
REMARK  status: ('A' for Active; 'I' for Inactive)
REMARK    1  A    between atoms: C3_3  and  O1_4 
REMARK    2  A    between atoms: C5_8  and  N1_9 
REMARK    3  A    between atoms: C7_13  and  N3_14 
REMARK       I    between atoms: N3_14  and  C8_16 
REMARK       I    between atoms: C8_16  and  N4_18 
ROOT
HETATM    1  N1  UNL     1      -2.662   1.491  29.744  1.00  0.00    -0.319 N 
ATOM      2  H1  UNL     1      -2.864   0.581  29.330  1.00  0.00     0.172 HD
HETATM    3  C6  UNL     1      -1.682   1.593  30.737  1.00  0.00     0.177 C 
HETATM    4  N2  UNL     1      -0.869   1.693  31.557  1.00  0.00    -0.172 NA
ENDROOT
BRANCH   1   5
HETATM    5  C5  UNL     1      -3.392   2.654  29.296  1.00  0.00     0.156 C 
HETATM    6  C4  UNL     1      -3.968   3.458  30.439  1.00  0.00     0.228 C 
HETATM    7  C3  UNL     1      -4.946   4.334  29.680  1.00  0.00     0.184 C 
HETATM    8  F1  UNL     1      -3.030   4.172  31.127  1.00  0.00    -0.244 F 
HETATM    9  C2  UNL     1      -5.658   3.315  28.880  1.00  0.00    -0.033 C 
HETATM   10  C1  UNL     1      -6.916   3.360  28.521  1.00  0.00     0.019 C 
HETATM   11  C7  UNL     1      -4.680   2.243  28.569  1.00  0.00     0.143 C 
BRANCH   7  12
HETATM   12  O1  UNL     1      -5.783   5.046  30.528  1.00  0.00    -0.388 OA
ATOM     13  H1  UNL     1      -6.683   5.075  30.228  1.00  0.00     0.210 HD
ENDBRANCH   7  12
BRANCH  11  14
HETATM   14  N3  UNL     1      -4.464   2.068  27.170  1.00  0.00    -0.332 N 
HETATM   15  C8  UNL     1      -4.140   0.748  26.687  1.00  0.00     0.318 C 
HETATM   16  O2  UNL     1      -4.053  -0.218  27.488  1.00  0.00    -0.247 OA
HETATM   17  N4  UNL     1      -3.912   0.503  25.314  1.00  0.00    -0.343 N 
HETATM   18  C9  UNL     1      -4.003   1.585  24.368  1.00  0.00     0.154 C 
HETATM   19  C10 UNL     1      -3.591  -0.825  24.868  1.00  0.00     0.154 C 
ATOM     20  H3  UNL     1      -4.537   2.857  26.527  1.00  0.00     0.165 HD
ENDBRANCH  11  14
ENDBRANCH   1   5
TORSDOF 3
ENDMDL
MODEL 3
REMARK VINA RESULT: -7.084510300      2.808      5.689
REMARK  3 active torsions:
REMARK  status: ('A' for Active; 'I' for Inactive)
REMARK    1  A    between atoms: C3_3  and  O1_4 
REMARK    2  A    between atoms: C5_8  and  N1_9 
REMARK    3  A    between atoms: C7_13  and  N3_14 
REMARK       I    between atoms: N3_14  and  C8_16 
REMARK       I    between atoms: C8_16  and  N4_18 
ROOT
HETATM    1  N1  UNL     1      -4.084   1.880  23.479  1.00  0.00    -0.319 N 
ATOM      2  H1  UNL     1      -4.560   2.760  23.679  1.00  0.00     0.172 HD
HETATM    3  C6  UNL     1      -4.623   1.008  22.527  1.00  0.00     0.177 C 
HETATM    4  N2  UNL     1      -5.055   0.278  21.738  1.00  0.00    -0.172 NA
ENDROOT
BRANCH   1   5
HETATM    5  C5  UNL     1      -2.866   1.555  24.182  1.00  0.00     0.156 C 
HETATM    6  C4  UNL     1      -2.013   0.552  23.440  1.00  0.00     0.228 C 
HETATM    7  C3  UNL     1      -1.059   0.145  24.547  1.00  0.00     0.184 C 
HETATM    8  F1  UNL     1      -1.378   1.079  22.352  1.00  0.00    -0.244 F 
HETATM    9  C2  UNL     1      -2.017  -0.154  25.632  1.00  0.00    -0.033 C 
HETATM   10  C1  UNL     1      -1.867  -1.063  26.562  1.00  0.00     0.019 C 
HETATM   11  C7  UNL     1      -3.169   0.767  25.464  1.00  0.00     0.143 C 
BRANCH   7  12
HETATM   12  O1  UNL     1      -0.277  -0.946  24.193  1.00  0.00    -0.388 OA
ATOM     13  H1  UNL     1       0.519  -1.017  24.706  1.00  0.00     0.210 HD
ENDBRANCH   7  12
BRANCH  11  14
HETATM   14  N3  UNL     1      -3.366   1.632  26.581  1.00  0.00    -0.332 N 
HETATM   15  C8  UNL     1      -4.717   1.934  26.983  1.00  0.00     0.318 C 
HETATM   16  O2  UNL     1      -5.691   1.442  26.359  1.00  0.00    -0.247 OA
HETATM   17  N4  UNL     1      -4.985   2.783  28.081  1.00  0.00    -0.343 N 
HETATM   18  C9  UNL     1      -3.895   3.365  28.821  1.00  0.00     0.154 C 
HETATM   19  C10 UNL     1      -6.345   3.062  28.454  1.00  0.00     0.154 C 
ATOM     20  H3  UNL     1      -2.570   2.026  27.083  1.00  0.00     0.165 HD
ENDBRANCH  11  14
ENDBRANCH   1   5
TORSDOF 3
ENDMDL
MODEL 4
REMARK VINA RESULT: -6.936693896      2.642      4.850
REMARK  3 active torsions:
REMARK  status: ('A' for Active; 'I' for Inactive)
REMARK    1  A    between atoms: C3_3  and  O1_4 
REMARK    2  A    between atoms: C5_8  and  N1_9 
REMARK    3  A    between atoms: C7_13  and  N3_14 
REMARK       I    between atoms: N3_14  and  C8_16 
REMARK       I    between atoms: C8_16  and  N4_18 
ROOT
HETATM    1  N1  UNL     1      -4.832  -0.796  25.694  1.00  0.00    -0.319 N 
ATOM      2  H1  UNL     1      -4.674  -1.799  25.591  1.00  0.00     0.172 HD
HETATM    3  C6  UNL     1      -5.855  -0.343  26.534  1.00  0.00     0.177 C 
HETATM    4  N2  UNL     1      -6.695   0.046  27.230  1.00  0.00    -0.172 NA
ENDROOT
BRANCH   1   5
HETATM    5  C5  UNL     1      -3.996   0.133  24.970  1.00  0.00     0.156 C 
HETATM    6  C4  UNL     1      -3.580  -0.391  23.615  1.00  0.00     0.228 C 
HETATM    7  C3  UNL     1      -2.462   0.579  23.288  1.00  0.00     0.184 C 
HETATM    8  F1  UNL     1      -4.588  -0.378  22.694  1.00  0.00    -0.244 F 
HETATM    9  C2  UNL     1      -1.670   0.509  24.534  1.00  0.00    -0.033 C 
HETATM   10  C1  UNL     1      -0.370   0.632  24.627  1.00  0.00     0.019 C 
HETATM   11  C7  UNL     1      -2.625   0.275  25.646  1.00  0.00     0.143 C 
BRANCH   7  12
HETATM   12  O1  UNL     1      -1.744   0.197  22.162  1.00  0.00    -0.388 OA
ATOM     13  H1  UNL     1      -1.913  -0.700  21.899  1.00  0.00     0.210 HD
ENDBRANCH   7  12
BRANCH  11  14
HETATM   14  N3  UNL     1      -2.622   1.317  26.619  1.00  0.00    -0.332 N 
HETATM   15  C8  UNL     1      -2.785   0.958  28.007  1.00  0.00     0.318 C 
HETATM   16  O2  UNL     1      -2.925  -0.246  28.339  1.00  0.00    -0.247 OA
HETATM   17  N4  UNL     1      -2.792   1.940  29.024  1.00  0.00    -0.343 N 
HETATM   18  C9  UNL     1      -2.634   3.330  28.680  1.00  0.00     0.154 C 
HETATM   19  C10 UNL     1      -2.957   1.546  30.396  1.00  0.00     0.154 C 
ATOM     20  H3  UNL     1      -2.507   2.292  26.341  1.00  0.00     0.165 HD
ENDBRANCH  11  14
ENDBRANCH   1   5
TORSDOF 3
ENDMDL
MODEL 5
REMARK VINA RESULT: -6.675885220      2.171      4.914
REMARK  3 active torsions:
REMARK  status: ('A' for Active; 'I' for Inactive)
REMARK    1  A    between atoms: C3_3  and  O1_4 
REMARK    2  A    between atoms: C5_8  and  N1_9 
REMARK    3  A    between atoms: C7_13  and  N3_14 
REMARK       I    between atoms: N3_14  and  C8_16 
REMARK       I    between atoms: C8_16  and  N4_18 
ROOT
HETATM    1  N1  UNL     1      -2.051   0.994  25.645  1.00  0.00    -0.319 N 
ATOM      2  H1  UNL     1      -1.941   2.008  25.600  1.00  0.00     0.172 HD
HETATM    3  C6  UNL     1      -1.171   0.175  24.931  1.00  0.00     0.177 C 
HETATM    4  N2  UNL     1      -0.445  -0.516  24.348  1.00  0.00    -0.172 NA
ENDROOT
BRANCH   1   5
HETATM    5  C5  UNL     1      -3.112   0.429  26.446  1.00  0.00     0.156 C 
HETATM    6  C4  UNL     1      -4.344   0.102  25.633  1.00  0.00     0.228 C 
HETATM    7  C3  UNL     1      -5.352  -0.093  26.750  1.00  0.00     0.184 C 
HETATM    8  F1  UNL     1      -4.197  -1.003  24.845  1.00  0.00    -0.244 F 
HETATM    9  C2  UNL     1      -5.124   1.137  27.538  1.00  0.00    -0.033 C 
HETATM   10  C1  UNL     1      -6.030   1.794  28.216  1.00  0.00     0.019 C 
HETATM   11  C7  UNL     1      -3.685   1.476  27.410  1.00  0.00     0.143 C 
BRANCH   7  12
HETATM   12  O1  UNL     1      -6.651  -0.204  26.273  1.00  0.00    -0.388 OA
ATOM     13  H1  UNL     1      -6.726  -0.782  25.523  1.00  0.00     0.210 HD
ENDBRANCH   7  12
BRANCH  11  14
HETATM   14  N3  UNL     1      -2.995   1.479  28.658  1.00  0.00    -0.332 N 
HETATM   15  C8  UNL     1      -3.110   2.642  29.503  1.00  0.00     0.318 C 
HETATM   16  O2  UNL     1      -3.806   3.624  29.139  1.00  0.00    -0.247 OA
HETATM   17  N4  UNL     1      -2.453   2.712  30.752  1.00  0.00    -0.343 N 
HETATM   18  C9  UNL     1      -1.648   1.605  31.201  1.00  0.00     0.154 C 
HETATM   19  C10 UNL     1      -2.590   3.887  31.568  1.00  0.00     0.154 C 
ATOM     20  H3  UNL     1      -2.433   0.677  28.946  1.00  0.00     0.165 HD
ENDBRANCH  11  14
ENDBRANCH   1   5
TORSDOF 3
ENDMDL
