MODEL 1
REMARK VINA RESULT: -7.702208996      0.000      0.000
REMARK  4 active torsions:
REMARK  status: ('A' for Active; 'I' for Inactive)
REMARK    1  A    between atoms: C2_2  and  C4_5 
REMARK    2  A    between atoms: C5_7  and  C7_9 
REMARK    3  A    between atoms: C8_12  and  C9_13 
REMARK    4  A    between atoms: C10_16  and  O6_17 
ROOT
HETATM    1  C4  UNL     1      -4.392   1.410  26.496  1.00  0.00     0.192 C 
HETATM    2  O1  UNL     1      -3.105   1.579  26.030  1.00  0.00    -0.357 OA
HETATM    3  C5  UNL     1      -3.053   0.818  24.872  1.00  0.00     0.161 C 
HETATM    4  C6  UNL     1      -3.904   1.446  23.765  1.00  0.00     0.059 C 
HETATM    5  C8  UNL     1      -3.711  -0.462  25.255  1.00  0.00     0.163 C 
HETATM    6  C10 UNL     1      -4.810   0.024  26.210  1.00  0.00     0.168 C 
ENDROOT
BRANCH   1   7
HETATM    7  C2  UNL     1      -4.570   1.857  27.919  1.00  0.00     0.124 C 
HETATM    8  C1  UNL     1      -5.832   2.698  28.023  1.00  0.00     0.054 C 
HETATM    9  C3  UNL     1      -3.429   2.738  28.382  1.00  0.00     0.054 C 
HETATM   10  F1  UNL     1      -4.689   0.831  28.809  1.00  0.00    -0.241 F 
ENDBRANCH   1   7
BRANCH   6  11
HETATM   11  O6  UNL     1      -4.812  -0.829  27.293  1.00  0.00    -0.392 OA
ATOM     12  H6  UNL     1      -4.572  -1.729  27.104  1.00  0.00     0.210 HD
ENDBRANCH   6  11
BRANCH   3  13
HETATM   13  C7  UNL     1      -1.692   0.701  24.346  1.00  0.00     0.209 C 
HETATM   14  O2  UNL     1      -0.654   1.131  24.935  1.00  0.00    -0.646 OA
HETATM   15  O3  UNL     1      -1.485   0.085  23.120  1.00  0.00    -0.646 OA
ENDBRANCH   3  13
BRANCH   5  16
HETATM   16  C9  UNL     1      -2.821  -1.418  25.941  1.00  0.00     0.183 C 
HETATM   17  O4  UNL     1      -2.648  -2.585  25.524  1.00  0.00    -0.648 OA
HETATM   18  O5  UNL     1      -2.143  -1.032  27.086  1.00  0.00    -0.648 OA
ENDBRANCH   5  16
TORSDOF 4
ENDMDL
MODEL 2
REMARK VINA RESULT: -7.105752076      2.078      4.395
REMARK  4 active torsions:
REMARK  status: ('A' for Active; 'I' for Inactive)
REMARK    1  A    between atoms: C2_2  and  C4_5 
REMARK    2  A    between atoms: C5_7  and  C7_9 
REMARK    3  A    between atoms: C8_12  and  C9_13 
REMARK    4  A    between atoms: C10_16  and  O6_17 
ROOT
HETATM    1  C4  UNL     1      -3.592   1.074  23.982  1.00  0.00     0.192 C 
HETATM    2  O1  UNL     1      -4.517   0.556  24.865  1.00  0.00    -0.357 OA
HETATM    3  C5  UNL     1      -3.988   0.825  26.118  1.00  0.00     0.161 C 
HETATM    4  C6  UNL     1      -4.027   2.325  26.420  1.00  0.00     0.059 C 
HETATM    5  C8  UNL     1      -2.554   0.443  25.991  1.00  0.00     0.163 C 
HETATM    6  C10 UNL     1      -2.245   0.863  24.547  1.00  0.00     0.168 C 
ENDROOT
BRANCH   1   7
HETATM    7  C2  UNL     1      -3.783   0.590  22.573  1.00  0.00     0.124 C 
HETATM    8  C1  UNL     1      -2.665   1.139  21.702  1.00  0.00     0.054 C 
HETATM    9  C3  UNL     1      -5.079   1.094  21.974  1.00  0.00     0.054 C 
HETATM   10  F1  UNL     1      -3.768  -0.767  22.449  1.00  0.00    -0.241 F 
ENDBRANCH   1   7
BRANCH   6  11
HETATM   11  O6  UNL     1      -1.516  -0.157  23.976  1.00  0.00    -0.392 OA
ATOM     12  H6  UNL     1      -0.575  -0.028  23.962  1.00  0.00     0.210 HD
ENDBRANCH   6  11
BRANCH   3  13
HETATM   13  C7  UNL     1      -4.731   0.157  27.188  1.00  0.00     0.209 C 
HETATM   14  O2  UNL     1      -5.635  -0.713  27.002  1.00  0.00    -0.646 OA
HETATM   15  O3  UNL     1      -4.455   0.474  28.511  1.00  0.00    -0.646 OA
ENDBRANCH   3  13
BRANCH   5  16
HETATM   16  C9  UNL     1      -2.293  -0.998  26.173  1.00  0.00     0.183 C 
HETATM   17  O4  UNL     1      -1.501  -1.427  27.041  1.00  0.00    -0.648 OA
HETATM   18  O5  UNL     1      -2.935  -1.923  25.367  1.00  0.00    -0.648 OA
ENDBRANCH   5  16
TORSDOF 4
ENDMDL
MODEL 3
REMARK VINA RESULT: -6.943126282      2.316      4.410
REMARK  4 active torsions:
REMARK  status: ('A' for Active; 'I' for Inactive)
REMARK    1  A    between atoms: C2_2  and  C4_5 
REMARK    2  A    between atoms: C5_7  and  C7_9 
REMARK    3  A    between atoms: C8_12  and  C9_13 
REMARK    4  A    between atoms: C10_16  and  O6_17 
ROOT
HETATM    1  C4  UNL     1      -2.337  -0.095  25.457  1.00  0.00     0.192 C 
HETATM    2  O1  UNL     1      -2.541   0.931  26.356  1.00  0.00    -0.357 OA
HETATM    3  C5  UNL     1      -3.134   0.321  27.450  1.00  0.00     0.161 C 
HETATM    4  C6  UNL     1      -2.138  -0.583  28.181  1.00  0.00     0.059 C 
HETATM    5  C8  UNL     1      -4.168  -0.567  26.849  1.00  0.00     0.163 C 
HETATM    6  C10 UNL     1      -3.469  -1.036  25.565  1.00  0.00     0.168 C 
ENDROOT
BRANCH   1   7
HETATM    7  C2  UNL     1      -2.029   0.387  24.068  1.00  0.00     0.124 C 
HETATM    8  C1  UNL     1      -0.549   0.715  23.971  1.00  0.00     0.054 C 
HETATM    9  C3  UNL     1      -2.773   1.663  23.735  1.00  0.00     0.054 C 
HETATM   10  F1  UNL     1      -2.311  -0.524  23.094  1.00  0.00    -0.241 F 
ENDBRANCH   1   7
BRANCH   6  11
HETATM   11  O6  UNL     1      -4.397  -0.965  24.549  1.00  0.00    -0.392 OA
ATOM     12  H6  UNL     1      -4.048  -1.055  23.670  1.00  0.00     0.210 HD
ENDBRANCH   6  11
BRANCH   3  13
HETATM   13  C7  UNL     1      -3.623   1.293  28.430  1.00  0.00     0.209 C 
HETATM   14  O2  UNL     1      -4.067   0.995  29.580  1.00  0.00    -0.646 OA
HETATM   15  O3  UNL     1      -3.616   2.644  28.111  1.00  0.00    -0.646 OA
ENDBRANCH   3  13
BRANCH   5  16
HETATM   16  C9  UNL     1      -5.435   0.114  26.523  1.00  0.00     0.183 C 
HETATM   17  O4  UNL     1      -6.538  -0.290  26.952  1.00  0.00    -0.648 OA
HETATM   18  O5  UNL     1      -5.426   1.242  25.718  1.00  0.00    -0.648 OA
ENDBRANCH   5  16
TORSDOF 4
ENDMDL
MODEL 4
REMARK VINA RESULT: -6.601253464      2.766      4.634
REMARK  4 active torsions:
REMARK  status: ('A' for Active; 'I' for Inactive)
REMARK    1  A    between atoms: C2_2  and  C4_5 
REMARK    2  A    between atoms: C5_7  and  C7_9 
REMARK    3  A    between atoms: C8_12  and  C9_13 
REMARK    4  A    between atoms: C10_16  and  O6_17 
ROOT
HETATM    1  C4  UNL     1      -2.960   0.894  23.512  1.00  0.00     0.192 C 
HETATM    2  O1  UNL     1      -3.055  -0.251  24.275  1.00  0.00    -0.357 OA
HETATM    3  C5  UNL     1      -2.242  -0.005  25.371  1.00  0.00     0.161 C 
HETATM    4  C6  UNL     1      -2.855   1.063  26.279  1.00  0.00     0.059 C 
HETATM    5  C8  UNL     1      -1.008   0.581  24.778  1.00  0.00     0.163 C 
HETATM    6  C10 UNL     1      -1.581   1.408  23.619  1.00  0.00     0.168 C 
ENDROOT
BRANCH   1   7
HETATM    7  C2  UNL     1      -3.475   0.718  22.112  1.00  0.00     0.124 C 
HETATM    8  C1  UNL     1      -4.849   1.358  22.003  1.00  0.00     0.054 C 
HETATM    9  C3  UNL     1      -3.654  -0.743  21.756  1.00  0.00     0.054 C 
HETATM   10  F1  UNL     1      -2.683   1.283  21.157  1.00  0.00    -0.241 F 
ENDBRANCH   1   7
BRANCH   6  11
HETATM   11  O6  UNL     1      -0.777   1.180  22.523  1.00  0.00    -0.392 OA
ATOM     12  H6  UNL     1      -0.709   1.902  21.909  1.00  0.00     0.210 HD
ENDBRANCH   6  11
BRANCH   3  13
HETATM   13  C7  UNL     1      -2.046  -1.200  26.194  1.00  0.00     0.209 C 
HETATM   14  O2  UNL     1      -1.420  -1.220  27.296  1.00  0.00    -0.646 OA
HETATM   15  O3  UNL     1      -2.568  -2.415  25.769  1.00  0.00    -0.646 OA
ENDBRANCH   3  13
BRANCH   5  16
HETATM   16  C9  UNL     1      -0.047  -0.417  24.271  1.00  0.00     0.183 C 
HETATM   17  O4  UNL     1      -0.255  -1.071  23.226  1.00  0.00    -0.648 OA
HETATM   18  O5  UNL     1       1.132  -0.651  24.959  1.00  0.00    -0.648 OA
ENDBRANCH   5  16
TORSDOF 4
ENDMDL
MODEL 5
REMARK VINA RESULT: -6.436664454      2.357      4.476
REMARK  4 active torsions:
REMARK  status: ('A' for Active; 'I' for Inactive)
REMARK    1  A    between atoms: C2_2  and  C4_5 
REMARK    2  A    between atoms: C5_7  and  C7_9 
REMARK    3  A    between atoms: C8_12  and  C9_13 
REMARK    4  A    between atoms: C10_16  and  O6_17 
ROOT
HETATM    1  C4  UNL     1      -2.897   0.269  25.796  1.00  0.00     0.192 C 
HETATM    2  O1  UNL     1      -2.417   1.155  26.737  1.00  0.00    -0.357 OA
HETATM    3  C5  UNL     1      -2.973   0.726  27.932  1.00  0.00     0.161 C 
HETATM    4  C6  UNL     1      -2.362  -0.607  28.373  1.00  0.00     0.059 C 
HETATM    5  C8  UNL     1      -4.398   0.461  27.590  1.00  0.00     0.163 C 
HETATM    6  C10 UNL     1      -4.279  -0.093  26.164  1.00  0.00     0.168 C 
ENDROOT
BRANCH   1   7
HETATM    7  C2  UNL     1      -2.710   0.746  24.383  1.00  0.00     0.124 C 
HETATM    8  C1  UNL     1      -3.383  -0.232  23.435  1.00  0.00     0.054 C 
HETATM    9  C3  UNL     1      -1.248   0.786  23.990  1.00  0.00     0.054 C 
HETATM   10  F1  UNL     1      -3.238   1.979  24.142  1.00  0.00    -0.241 F 
ENDBRANCH   1   7
BRANCH   6  11
HETATM   11  O6  UNL     1      -5.268   0.504  25.413  1.00  0.00    -0.392 OA
ATOM     12  H6  UNL     1      -6.158   0.256  25.637  1.00  0.00     0.210 HD
ENDBRANCH   6  11
BRANCH   3  13
HETATM   13  C7  UNL     1      -2.747   1.678  29.022  1.00  0.00     0.209 C 
HETATM   14  O2  UNL     1      -2.084   2.753  28.912  1.00  0.00    -0.646 OA
HETATM   15  O3  UNL     1      -3.279   1.416  30.277  1.00  0.00    -0.646 OA
ENDBRANCH   3  13
BRANCH   5  16
HETATM   16  C9  UNL     1      -5.257   1.660  27.604  1.00  0.00     0.183 C 
HETATM   17  O4  UNL     1      -6.387   1.664  28.140  1.00  0.00    -0.648 OA
HETATM   18  O5  UNL     1      -4.817   2.832  27.011  1.00  0.00    -0.648 OA
ENDBRANCH   5  16
TORSDOF 4
ENDMDL
