MODEL 1
REMARK VINA RESULT: -6.137906888      0.000      0.000
REMARK  5 active torsions:
REMARK  status: ('A' for Active; 'I' for Inactive)
REMARK    1  A    between atoms: O1_2  and  C2_3 
REMARK    2  A    between atoms: C2_3  and  C3_4 
REMARK    3  A    between atoms: C5_6  and  O2_7 
REMARK    4  A    between atoms: C6_9  and  O3_10 
REMARK    5  A    between atoms: C7_12  and  O4_13 
ROOT
HETATM    1  C3  UNL     1      -3.628   1.324  26.493  1.00  0.00     0.029 C 
HETATM    2  C4  UNL     1      -4.267   0.641  25.295  1.00  0.00     0.042 C 
HETATM    3  C5  UNL     1      -3.459  -0.533  24.808  1.00  0.00     0.150 C 
HETATM    4  C6  UNL     1      -3.272  -1.498  25.944  1.00  0.00     0.176 C 
HETATM    5  C7  UNL     1      -2.521  -0.765  27.065  1.00  0.00     0.164 C 
HETATM    6  C8  UNL     1      -3.491   0.295  27.574  1.00  0.00     0.095 C 
HETATM    7 BR1  UNL     1      -2.975   1.013  29.260  1.00  0.00    -0.088 Br
ENDROOT
BRANCH   1   8
HETATM    8  C2  UNL     1      -4.551   2.456  26.894  1.00  0.00     0.172 C 
BRANCH   8   9
HETATM    9  O1  UNL     1      -5.757   2.015  27.368  1.00  0.00    -0.396 OA
HETATM   10  C1  UNL     1      -6.302   2.775  28.372  1.00  0.00     0.201 C 
ENDBRANCH   8   9
ENDBRANCH   1   8
BRANCH   3  11
HETATM   11  O2  UNL     1      -4.214  -1.177  23.830  1.00  0.00    -0.393 OA
ATOM     12  H2  UNL     1      -4.497  -2.008  24.194  1.00  0.00     0.210 HD
ENDBRANCH   3  11
BRANCH   5  13
HETATM   13  O4  UNL     1      -1.458  -0.093  26.490  1.00  0.00    -0.392 OA
ATOM     14  H4  UNL     1      -0.658  -0.498  26.802  1.00  0.00     0.210 HD
ENDBRANCH   5  13
BRANCH   4  15
HETATM   15  O3  UNL     1      -2.625  -2.656  25.568  1.00  0.00    -0.390 OA
ATOM     16  H3  UNL     1      -3.207  -3.403  25.504  1.00  0.00     0.210 HD
ENDBRANCH   4  15
TORSDOF 5
ENDMDL
MODEL 2
REMARK VINA RESULT: -6.121994336      2.879      4.667
REMARK  5 active torsions:
REMARK  status: ('A' for Active; 'I' for Inactive)
REMARK    1  A    between atoms: O1_2  and  C2_3 
REMARK    2  A    between atoms: C2_3  and  C3_4 
REMARK    3  A    between atoms: C5_6  and  O2_7 
REMARK    4  A    between atoms: C6_9  and  O3_10 
REMARK    5  A    between atoms: C7_12  and  O4_13 
ROOT
HETATM    1  C3  UNL     1      -2.168   0.784  24.783  1.00  0.00     0.029 C 
HETATM    2  C4  UNL     1      -1.963  -0.280  25.848  1.00  0.00     0.042 C 
HETATM    3  C5  UNL     1      -2.966  -0.169  26.967  1.00  0.00     0.150 C 
HETATM    4  C6  UNL     1      -4.350  -0.242  26.387  1.00  0.00     0.176 C 
HETATM    5  C7  UNL     1      -4.513   0.930  25.409  1.00  0.00     0.164 C 
HETATM    6  C8  UNL     1      -3.562   0.630  24.256  1.00  0.00     0.095 C 
HETATM    7 BR1  UNL     1      -3.924   1.683  22.712  1.00  0.00    -0.088 Br
ENDROOT
BRANCH   1   8
HETATM    8  C2  UNL     1      -1.122   0.539  23.715  1.00  0.00     0.172 C 
BRANCH   8   9
HETATM    9  O1  UNL     1       0.123   0.974  24.080  1.00  0.00    -0.396 OA
HETATM   10  C1  UNL     1       1.102   0.013  24.078  1.00  0.00     0.201 C 
ENDBRANCH   8   9
ENDBRANCH   1   8
BRANCH   3  11
HETATM   11  O2  UNL     1      -2.795  -1.282  27.787  1.00  0.00    -0.393 OA
ATOM     12  H2  UNL     1      -3.388  -1.183  28.523  1.00  0.00     0.210 HD
ENDBRANCH   3  11
BRANCH   5  13
HETATM   13  O4  UNL     1      -4.038   2.068  26.034  1.00  0.00    -0.392 OA
ATOM     14  H4  UNL     1      -3.110   2.136  25.846  1.00  0.00     0.210 HD
ENDBRANCH   5  13
BRANCH   4  15
HETATM   15  O3  UNL     1      -5.338  -0.246  27.348  1.00  0.00    -0.390 OA
ATOM     16  H3  UNL     1      -6.208  -0.376  26.987  1.00  0.00     0.210 HD
ENDBRANCH   4  15
TORSDOF 5
ENDMDL
MODEL 3
REMARK VINA RESULT: -5.884831331      2.490      3.833
REMARK  5 active torsions:
REMARK  status: ('A' for Active; 'I' for Inactive)
REMARK    1  A    between atoms: O1_2  and  C2_3 
REMARK    2  A    between atoms: C2_3  and  C3_4 
REMARK    3  A    between atoms: C5_6  and  O2_7 
REMARK    4  A    between atoms: C6_9  and  O3_10 
REMARK    5  A    between atoms: C7_12  and  O4_13 
ROOT
HETATM    1  C3  UNL     1      -3.414   0.494  24.420  1.00  0.00     0.029 C 
HETATM    2  C4  UNL     1      -4.357   0.749  25.584  1.00  0.00     0.042 C 
HETATM    3  C5  UNL     1      -4.197  -0.271  26.682  1.00  0.00     0.150 C 
HETATM    4  C6  UNL     1      -2.765  -0.274  27.136  1.00  0.00     0.176 C 
HETATM    5  C7  UNL     1      -1.891  -0.650  25.931  1.00  0.00     0.164 C 
HETATM    6  C8  UNL     1      -2.017   0.519  24.961  1.00  0.00     0.095 C 
HETATM    7 BR1  UNL     1      -0.669   0.507  23.617  1.00  0.00    -0.088 Br
ENDROOT
BRANCH   1   8
HETATM    8  C2  UNL     1      -3.657   1.599  23.413  1.00  0.00     0.172 C 
BRANCH   8   9
HETATM    9  O1  UNL     1      -3.999   1.125  22.175  1.00  0.00    -0.396 OA
HETATM   10  C1  UNL     1      -4.090  -0.241  22.079  1.00  0.00     0.201 C 
ENDBRANCH   8   9
ENDBRANCH   1   8
BRANCH   3  11
HETATM   11  O2  UNL     1      -4.977   0.152  27.755  1.00  0.00    -0.393 OA
ATOM     12  H2  UNL     1      -4.397   0.262  28.499  1.00  0.00     0.210 HD
ENDBRANCH   3  11
BRANCH   5  13
HETATM   13  O4  UNL     1      -2.468  -1.745  25.317  1.00  0.00    -0.392 OA
ATOM     14  H4  UNL     1      -2.155  -2.524  25.761  1.00  0.00     0.210 HD
ENDBRANCH   5  13
BRANCH   4  15
HETATM   15  O3  UNL     1      -2.541  -1.110  28.209  1.00  0.00    -0.390 OA
ATOM     16  H3  UNL     1      -3.343  -1.440  28.597  1.00  0.00     0.210 HD
ENDBRANCH   4  15
TORSDOF 5
ENDMDL
MODEL 4
REMARK VINA RESULT: -5.881152324      3.437      5.340
REMARK  5 active torsions:
REMARK  status: ('A' for Active; 'I' for Inactive)
REMARK    1  A    between atoms: O1_2  and  C2_3 
REMARK    2  A    between atoms: C2_3  and  C3_4 
REMARK    3  A    between atoms: C5_6  and  O2_7 
REMARK    4  A    between atoms: C6_9  and  O3_10 
REMARK    5  A    between atoms: C7_12  and  O4_13 
ROOT
HETATM    1  C3  UNL     1      -2.598   0.636  22.239  1.00  0.00     0.029 C 
HETATM    2  C4  UNL     1      -3.860   1.439  21.971  1.00  0.00     0.042 C 
HETATM    3  C5  UNL     1      -5.011   0.999  22.838  1.00  0.00     0.150 C 
HETATM    4  C6  UNL     1      -4.600   1.101  24.279  1.00  0.00     0.176 C 
HETATM    5  C7  UNL     1      -3.393   0.177  24.491  1.00  0.00     0.164 C 
HETATM    6  C8  UNL     1      -2.258   0.805  23.689  1.00  0.00     0.095 C 
HETATM    7 BR1  UNL     1      -0.550   0.113  24.167  1.00  0.00    -0.088 Br
ENDROOT
BRANCH   1   8
HETATM    8  C2  UNL     1      -1.523   1.198  21.331  1.00  0.00     0.172 C 
BRANCH   8   9
HETATM    9  O1  UNL     1      -1.327   0.441  20.208  1.00  0.00    -0.396 OA
HETATM   10  C1  UNL     1      -1.883  -0.813  20.245  1.00  0.00     0.201 C 
ENDBRANCH   8   9
ENDBRANCH   1   8
BRANCH   3  11
HETATM   11  O2  UNL     1      -6.051   1.902  22.633  1.00  0.00    -0.393 OA
ATOM     12  H2  UNL     1      -6.769   1.420  22.238  1.00  0.00     0.210 HD
ENDBRANCH   3  11
BRANCH   5  13
HETATM   13  O4  UNL     1      -3.682  -1.036  23.895  1.00  0.00    -0.392 OA
ATOM     14  H4  UNL     1      -2.858  -1.450  23.667  1.00  0.00     0.210 HD
ENDBRANCH   5  13
BRANCH   4  15
HETATM   15  O3  UNL     1      -5.625   0.811  25.155  1.00  0.00    -0.390 OA
ATOM     16  H3  UNL     1      -5.984   1.583  25.576  1.00  0.00     0.210 HD
ENDBRANCH   4  15
TORSDOF 5
ENDMDL
MODEL 5
REMARK VINA RESULT: -5.863569575      3.648      5.477
REMARK  5 active torsions:
REMARK  status: ('A' for Active; 'I' for Inactive)
REMARK    1  A    between atoms: O1_2  and  C2_3 
REMARK    2  A    between atoms: C2_3  and  C3_4 
REMARK    3  A    between atoms: C5_6  and  O2_7 
REMARK    4  A    between atoms: C6_9  and  O3_10 
REMARK    5  A    between atoms: C7_12  and  O4_13 
ROOT
HETATM    1  C3  UNL     1      -2.514   0.991  23.728  1.00  0.00     0.029 C 
HETATM    2  C4  UNL     1      -3.592   0.703  24.760  1.00  0.00     0.042 C 
HETATM    3  C5  UNL     1      -4.885   1.411  24.448  1.00  0.00     0.150 C 
HETATM    4  C6  UNL     1      -5.334   1.016  23.070  1.00  0.00     0.176 C 
HETATM    5  C7  UNL     1      -4.243   1.443  22.079  1.00  0.00     0.164 C 
HETATM    6  C8  UNL     1      -3.042   0.558  22.394  1.00  0.00     0.095 C 
HETATM    7 BR1  UNL     1      -1.738   0.568  21.008  1.00  0.00    -0.088 Br
ENDROOT
BRANCH   1   8
HETATM    8  C2  UNL     1      -1.291   0.199  24.143  1.00  0.00     0.172 C 
BRANCH   8   9
HETATM    9  O1  UNL     1      -0.152   0.957  24.171  1.00  0.00    -0.396 OA
HETATM   10  C1  UNL     1       1.021   0.252  24.079  1.00  0.00     0.201 C 
ENDBRANCH   8   9
ENDBRANCH   1   8
BRANCH   3  11
HETATM   11  O2  UNL     1      -5.838   0.947  25.350  1.00  0.00    -0.393 OA
ATOM     12  H2  UNL     1      -5.380   0.433  26.005  1.00  0.00     0.210 HD
ENDBRANCH   3  11
BRANCH   5  13
HETATM   13  O4  UNL     1      -3.877   2.740  22.388  1.00  0.00    -0.392 OA
ATOM     14  H4  UNL     1      -2.972   2.856  22.124  1.00  0.00     0.210 HD
ENDBRANCH   5  13
BRANCH   4  15
HETATM   15  O3  UNL     1      -6.564   1.541  22.733  1.00  0.00    -0.390 OA
ATOM     16  H3  UNL     1      -7.166   0.889  22.393  1.00  0.00     0.210 HD
ENDBRANCH   4  15
TORSDOF 5
ENDMDL
