MODEL 1
REMARK VINA RESULT: -5.900849618      0.000      0.000
REMARK  5 active torsions:
REMARK  status: ('A' for Active; 'I' for Inactive)
REMARK    1  A    between atoms: C2_2  and  O1_3 
REMARK    2  A    between atoms: C2_2  and  C3_5 
REMARK    3  A    between atoms: C4_7  and  C5_8 
REMARK    4  A    between atoms: C6_10  and  O3_11 
REMARK    5  A    between atoms: C7_13  and  O4_14 
ROOT
HETATM    1  C3  UNL     1      -3.799   0.275  27.169  1.00  0.00     0.181 C 
HETATM    2  O2  UNL     1      -3.721   0.721  25.835  1.00  0.00    -0.372 OA
HETATM    3  C4  UNL     1      -3.811  -0.517  25.158  1.00  0.00     0.163 C 
HETATM    4  C6  UNL     1      -2.644  -1.232  25.807  1.00  0.00     0.179 C 
HETATM    5  C7  UNL     1      -2.989  -0.954  27.276  1.00  0.00     0.180 C 
ENDROOT
BRANCH   1   6
HETATM    6  C2  UNL     1      -3.464   1.374  28.119  1.00  0.00     0.145 C 
HETATM    7  C1  UNL     1      -4.317   2.593  27.855  1.00  0.00     0.042 C 
BRANCH   6   8
HETATM    8  O1  UNL     1      -3.599   1.040  29.456  1.00  0.00    -0.393 OA
ATOM      9  H1  UNL     1      -4.220   0.324  29.518  1.00  0.00     0.210 HD
ENDBRANCH   6   8
ENDBRANCH   1   6
BRANCH   5  10
HETATM   10  O4  UNL     1      -1.852  -0.859  28.048  1.00  0.00    -0.390 OA
ATOM     11  H4  UNL     1      -1.992  -0.736  28.980  1.00  0.00     0.210 HD
ENDBRANCH   5  10
BRANCH   3  12
HETATM   12  C5  UNL     1      -3.624  -0.344  23.674  1.00  0.00     0.120 C 
HETATM   13 BR1  UNL     1      -3.875   1.512  23.214  1.00  0.00    -0.094 Br
ENDBRANCH   3  12
BRANCH   4  14
HETATM   14  O3  UNL     1      -2.636  -2.585  25.529  1.00  0.00    -0.390 OA
ATOM     15  H3  UNL     1      -1.828  -3.005  25.801  1.00  0.00     0.210 HD
ENDBRANCH   4  14
TORSDOF 5
ENDMDL
MODEL 2
REMARK VINA RESULT: -5.830670352      1.789      2.116
REMARK  5 active torsions:
REMARK  status: ('A' for Active; 'I' for Inactive)
REMARK    1  A    between atoms: C2_2  and  O1_3 
REMARK    2  A    between atoms: C2_2  and  C3_5 
REMARK    3  A    between atoms: C4_7  and  C5_8 
REMARK    4  A    between atoms: C6_10  and  O3_11 
REMARK    5  A    between atoms: C7_13  and  O4_14 
ROOT
HETATM    1  C3  UNL     1      -4.643  -0.522  25.892  1.00  0.00     0.181 C 
HETATM    2  O2  UNL     1      -4.350   0.679  25.214  1.00  0.00    -0.372 OA
HETATM    3  C4  UNL     1      -3.334   0.226  24.343  1.00  0.00     0.163 C 
HETATM    4  C6  UNL     1      -2.373  -0.342  25.367  1.00  0.00     0.179 C 
HETATM    5  C7  UNL     1      -3.362  -1.204  26.162  1.00  0.00     0.180 C 
ENDROOT
BRANCH   1   6
HETATM    6  C2  UNL     1      -5.519  -0.269  27.071  1.00  0.00     0.145 C 
HETATM    7  C1  UNL     1      -5.378   1.157  27.551  1.00  0.00     0.042 C 
BRANCH   6   8
HETATM    8  O1  UNL     1      -6.865  -0.513  26.851  1.00  0.00    -0.393 OA
ATOM      9  H1  UNL     1      -6.984  -0.673  25.922  1.00  0.00     0.210 HD
ENDBRANCH   6   8
ENDBRANCH   1   6
BRANCH   5  10
HETATM   10  O4  UNL     1      -2.996  -1.295  27.487  1.00  0.00    -0.390 OA
ATOM     11  H4  UNL     1      -2.892  -2.175  27.830  1.00  0.00     0.210 HD
ENDBRANCH   5  10
BRANCH   3  12
HETATM   12  C5  UNL     1      -2.733   1.366  23.563  1.00  0.00     0.120 C 
HETATM   13 BR1  UNL     1      -2.332   0.770  21.774  1.00  0.00    -0.094 Br
ENDBRANCH   3  12
BRANCH   4  14
HETATM   14  O3  UNL     1      -1.376  -1.104  24.790  1.00  0.00    -0.390 OA
ATOM     15  H3  UNL     1      -1.445  -1.131  23.843  1.00  0.00     0.210 HD
ENDBRANCH   4  14
TORSDOF 5
ENDMDL
MODEL 3
REMARK VINA RESULT: -5.797889698      2.314      3.991
REMARK  5 active torsions:
REMARK  status: ('A' for Active; 'I' for Inactive)
REMARK    1  A    between atoms: C2_2  and  O1_3 
REMARK    2  A    between atoms: C2_2  and  C3_5 
REMARK    3  A    between atoms: C4_7  and  C5_8 
REMARK    4  A    between atoms: C6_10  and  O3_11 
REMARK    5  A    between atoms: C7_13  and  O4_14 
ROOT
HETATM    1  C3  UNL     1      -3.102   0.795  24.294  1.00  0.00     0.181 C 
HETATM    2  O2  UNL     1      -3.380   1.043  25.654  1.00  0.00    -0.372 OA
HETATM    3  C4  UNL     1      -2.638  -0.003  26.249  1.00  0.00     0.163 C 
HETATM    4  C6  UNL     1      -3.264  -1.181  25.531  1.00  0.00     0.179 C 
HETATM    5  C7  UNL     1      -3.145  -0.666  24.091  1.00  0.00     0.180 C 
ENDROOT
BRANCH   1   6
HETATM    6  C2  UNL     1      -3.985   1.612  23.413  1.00  0.00     0.145 C 
HETATM    7  C1  UNL     1      -3.547   1.511  21.970  1.00  0.00     0.042 C 
BRANCH   6   8
HETATM    8  O1  UNL     1      -5.327   1.280  23.475  1.00  0.00    -0.393 OA
ATOM      9  H1  UNL     1      -5.558   1.164  24.389  1.00  0.00     0.210 HD
ENDBRANCH   6   8
ENDBRANCH   1   6
BRANCH   5  10
HETATM   10  O4  UNL     1      -4.175  -1.134  23.304  1.00  0.00    -0.390 OA
ATOM     11  H4  UNL     1      -4.198  -2.074  23.167  1.00  0.00     0.210 HD
ENDBRANCH   5  10
BRANCH   3  12
HETATM   12  C5  UNL     1      -2.861  -0.054  27.737  1.00  0.00     0.120 C 
HETATM   13 BR1  UNL     1      -4.079   1.352  28.245  1.00  0.00    -0.094 Br
ENDBRANCH   3  12
BRANCH   4  14
HETATM   14  O3  UNL     1      -2.553  -2.350  25.718  1.00  0.00    -0.390 OA
ATOM     15  H3  UNL     1      -2.185  -2.684  24.908  1.00  0.00     0.210 HD
ENDBRANCH   4  14
TORSDOF 5
ENDMDL
MODEL 4
REMARK VINA RESULT: -5.768558398      1.866      3.809
REMARK  5 active torsions:
REMARK  status: ('A' for Active; 'I' for Inactive)
REMARK    1  A    between atoms: C2_2  and  O1_3 
REMARK    2  A    between atoms: C2_2  and  C3_5 
REMARK    3  A    between atoms: C4_7  and  C5_8 
REMARK    4  A    between atoms: C6_10  and  O3_11 
REMARK    5  A    between atoms: C7_13  and  O4_14 
ROOT
HETATM    1  C3  UNL     1      -2.978   0.269  25.228  1.00  0.00     0.181 C 
HETATM    2  O2  UNL     1      -3.841   0.921  26.132  1.00  0.00    -0.372 OA
HETATM    3  C4  UNL     1      -3.048   0.874  27.301  1.00  0.00     0.163 C 
HETATM    4  C6  UNL     1      -2.826  -0.622  27.382  1.00  0.00     0.179 C 
HETATM    5  C7  UNL     1      -2.362  -0.867  25.941  1.00  0.00     0.180 C 
ENDROOT
BRANCH   1   6
HETATM    6  C2  UNL     1      -3.685  -0.053  23.955  1.00  0.00     0.145 C 
HETATM    7  C1  UNL     1      -4.403   1.162  23.415  1.00  0.00     0.042 C 
BRANCH   6   8
HETATM    8  O1  UNL     1      -2.868  -0.546  22.952  1.00  0.00    -0.393 OA
ATOM      9  H1  UNL     1      -2.541  -1.393  23.231  1.00  0.00     0.210 HD
ENDBRANCH   6   8
ENDBRANCH   1   6
BRANCH   5  10
HETATM   10  O4  UNL     1      -2.727  -2.121  25.503  1.00  0.00    -0.390 OA
ATOM     11  H4  UNL     1      -3.069  -2.709  26.166  1.00  0.00     0.210 HD
ENDBRANCH   5  10
BRANCH   3  12
HETATM   12  C5  UNL     1      -3.800   1.407  28.493  1.00  0.00     0.120 C 
HETATM   13 BR1  UNL     1      -5.323   2.419  27.882  1.00  0.00    -0.094 Br
ENDBRANCH   3  12
BRANCH   4  14
HETATM   14  O3  UNL     1      -1.851  -0.961  28.300  1.00  0.00    -0.390 OA
ATOM     15  H3  UNL     1      -2.120  -0.789  29.194  1.00  0.00     0.210 HD
ENDBRANCH   4  14
TORSDOF 5
ENDMDL
MODEL 5
REMARK VINA RESULT: -5.758282913      1.525      2.267
REMARK  5 active torsions:
REMARK  status: ('A' for Active; 'I' for Inactive)
REMARK    1  A    between atoms: C2_2  and  O1_3 
REMARK    2  A    between atoms: C2_2  and  C3_5 
REMARK    3  A    between atoms: C4_7  and  C5_8 
REMARK    4  A    between atoms: C6_10  and  O3_11 
REMARK    5  A    between atoms: C7_13  and  O4_14 
ROOT
HETATM    1  C3  UNL     1      -3.636   0.047  25.933  1.00  0.00     0.181 C 
HETATM    2  O2  UNL     1      -3.322   1.125  25.081  1.00  0.00    -0.372 OA
HETATM    3  C4  UNL     1      -4.086   0.769  23.946  1.00  0.00     0.163 C 
HETATM    4  C6  UNL     1      -3.514  -0.612  23.695  1.00  0.00     0.179 C 
HETATM    5  C7  UNL     1      -3.646  -1.180  25.114  1.00  0.00     0.180 C 
ENDROOT
BRANCH   1   6
HETATM    6  C2  UNL     1      -2.746   0.037  27.129  1.00  0.00     0.145 C 
HETATM    7  C1  UNL     1      -3.044   1.212  28.032  1.00  0.00     0.042 C 
BRANCH   6   8
HETATM    8  O1  UNL     1      -2.819  -1.116  27.892  1.00  0.00    -0.393 OA
ATOM      9  H1  UNL     1      -3.363  -1.740  27.426  1.00  0.00     0.210 HD
ENDBRANCH   6   8
ENDBRANCH   1   6
BRANCH   5  10
HETATM   10  O4  UNL     1      -2.649  -2.092  25.384  1.00  0.00    -0.390 OA
ATOM     11  H4  UNL     1      -1.829  -1.729  25.697  1.00  0.00     0.210 HD
ENDBRANCH   5  10
BRANCH   3  12
HETATM   12  C5  UNL     1      -3.833   1.711  22.798  1.00  0.00     0.120 C 
HETATM   13 BR1  UNL     1      -2.334   1.069  21.769  1.00  0.00    -0.094 Br
ENDBRANCH   3  12
BRANCH   4  14
HETATM   14  O3  UNL     1      -4.260  -1.333  22.782  1.00  0.00    -0.390 OA
ATOM     15  H3  UNL     1      -5.051  -1.693  23.165  1.00  0.00     0.210 HD
ENDBRANCH   4  14
TORSDOF 5
ENDMDL
