MODEL 1
REMARK VINA RESULT: -3.588056207      0.000      0.000
REMARK  2 active torsions:
REMARK  status: ('A' for Active; 'I' for Inactive)
REMARK    1  A    between atoms: C1_2  and  C2_4 
REMARK    2  A    between atoms: C2_4  and  N2_5 
ROOT
HETATM    1  C2  UNL     1       4.548  96.774  44.776  1.00  0.00     0.336 C 
HETATM    2 CL1  UNL     1       6.097  96.308  45.557  1.00  0.00    -0.088 Cl
ENDROOT
BRANCH   1   3
HETATM    3  C1  UNL     1       4.733  96.990  43.327  1.00  0.00     0.135 C 
HETATM    4  N1  UNL     1       3.619  97.263  42.524  1.00  0.00    -0.091 NA
HETATM    5  S1  UNL     1       6.226  96.903  42.700  1.00  0.00    -0.065 SA
ENDBRANCH   1   3
BRANCH   1   6
HETATM    6  N2  UNL     1       3.615  95.714  45.066  1.00  0.00    -0.056 N 
ATOM      7  H23 UNL     1       2.828  96.060  45.615  1.00  0.00     0.276 HD
ATOM      8  H22 UNL     1       3.117  95.424  44.225  1.00  0.00     0.276 HD
ATOM      9  H21 UNL     1       4.056  94.916  45.524  1.00  0.00     0.276 HD
ENDBRANCH   1   6
TORSDOF 2
ENDMDL
MODEL 2
REMARK VINA RESULT: -3.538447532      2.330      2.336
REMARK  2 active torsions:
REMARK  status: ('A' for Active; 'I' for Inactive)
REMARK    1  A    between atoms: C1_2  and  C2_4 
REMARK    2  A    between atoms: C2_4  and  N2_5 
ROOT
HETATM    1  C2  UNL     1       4.637  95.888  44.815  1.00  0.00     0.336 C 
HETATM    2 CL1  UNL     1       5.463  95.166  43.391  1.00  0.00    -0.088 Cl
ENDROOT
BRANCH   1   3
HETATM    3  C1  UNL     1       3.898  97.107  44.431  1.00  0.00     0.135 C 
HETATM    4  N1  UNL     1       4.527  98.071  43.635  1.00  0.00    -0.091 NA
HETATM    5  S1  UNL     1       2.372  97.299  44.946  1.00  0.00    -0.065 SA
ENDBRANCH   1   3
BRANCH   1   6
HETATM    6  N2  UNL     1       3.779  94.860  45.347  1.00  0.00    -0.056 N 
ATOM      7  H23 UNL     1       3.306  94.354  44.598  1.00  0.00     0.276 HD
ATOM      8  H22 UNL     1       4.326  94.095  45.744  1.00  0.00     0.276 HD
ATOM      9  H21 UNL     1       3.107  95.220  46.025  1.00  0.00     0.276 HD
ENDBRANCH   1   6
TORSDOF 2
ENDMDL
MODEL 3
REMARK VINA RESULT: -3.425363831      6.718      7.075
REMARK  2 active torsions:
REMARK  status: ('A' for Active; 'I' for Inactive)
REMARK    1  A    between atoms: C1_2  and  C2_4 
REMARK    2  A    between atoms: C2_4  and  N2_5 
ROOT
HETATM    1  C2  UNL     1       3.518  90.235  45.362  1.00  0.00     0.336 C 
HETATM    2 CL1  UNL     1       3.521  92.008  45.065  1.00  0.00    -0.088 Cl
ENDROOT
BRANCH   1   3
HETATM    3  C1  UNL     1       4.889  89.737  45.588  1.00  0.00     0.135 C 
HETATM    4  N1  UNL     1       5.092  88.378  45.855  1.00  0.00    -0.091 NA
HETATM    5  S1  UNL     1       6.129  90.781  45.521  1.00  0.00    -0.065 SA
ENDBRANCH   1   3
BRANCH   1   6
HETATM    6  N2  UNL     1       2.653  90.018  46.494  1.00  0.00    -0.056 N 
ATOM      7  H23 UNL     1       2.672  90.817  47.128  1.00  0.00     0.276 HD
ATOM      8  H22 UNL     1       1.671  90.051  46.217  1.00  0.00     0.276 HD
ATOM      9  H21 UNL     1       2.864  89.153  46.991  1.00  0.00     0.276 HD
ENDBRANCH   1   6
TORSDOF 2
ENDMDL
MODEL 4
REMARK VINA RESULT: -3.273664976      6.256      6.516
REMARK  2 active torsions:
REMARK  status: ('A' for Active; 'I' for Inactive)
REMARK    1  A    between atoms: C1_2  and  C2_4 
REMARK    2  A    between atoms: C2_4  and  N2_5 
ROOT
HETATM    1  C2  UNL     1       3.750  90.465  45.710  1.00  0.00     0.336 C 
HETATM    2 CL1  UNL     1       4.912  89.101  45.571  1.00  0.00    -0.088 Cl
ENDROOT
BRANCH   1   3
HETATM    3  C1  UNL     1       3.317  90.925  44.375  1.00  0.00     0.135 C 
HETATM    4  N1  UNL     1       2.594  92.118  44.260  1.00  0.00    -0.091 NA
HETATM    5  S1  UNL     1       3.689  90.032  43.073  1.00  0.00    -0.065 SA
ENDBRANCH   1   3
BRANCH   1   6
HETATM    6  N2  UNL     1       2.657  89.983  46.515  1.00  0.00    -0.056 N 
ATOM      7  H23 UNL     1       1.769  90.077  46.021  1.00  0.00     0.276 HD
ATOM      8  H22 UNL     1       2.689  88.967  46.606  1.00  0.00     0.276 HD
ATOM      9  H21 UNL     1       2.614  90.431  47.430  1.00  0.00     0.276 HD
ENDBRANCH   1   6
TORSDOF 2
ENDMDL
MODEL 5
REMARK VINA RESULT: -3.264272311      1.640      1.640
REMARK  2 active torsions:
REMARK  status: ('A' for Active; 'I' for Inactive)
REMARK    1  A    between atoms: C1_2  and  C2_4 
REMARK    2  A    between atoms: C2_4  and  N2_5 
ROOT
HETATM    1  C2  UNL     1       4.357  96.390  44.380  1.00  0.00     0.336 C 
HETATM    2 CL1  UNL     1       2.953  97.395  44.877  1.00  0.00    -0.088 Cl
ENDROOT
BRANCH   1   3
HETATM    3  C1  UNL     1       4.869  96.816  43.062  1.00  0.00     0.135 C 
HETATM    4  N1  UNL     1       3.969  97.262  42.086  1.00  0.00    -0.091 NA
HETATM    5  S1  UNL     1       6.465  96.756  42.778  1.00  0.00    -0.065 SA
ENDBRANCH   1   3
BRANCH   1   6
HETATM    6  N2  UNL     1       5.338  96.522  45.428  1.00  0.00    -0.056 N 
ATOM      7  H23 UNL     1       4.925  96.933  46.265  1.00  0.00     0.276 HD
ATOM      8  H22 UNL     1       5.599  95.610  45.803  1.00  0.00     0.276 HD
ATOM      9  H21 UNL     1       6.162  97.046  45.132  1.00  0.00     0.276 HD
ENDBRANCH   1   6
TORSDOF 2
ENDMDL
