MODEL 1
REMARK VINA RESULT: -2.771068042      0.000      0.000
REMARK  2 active torsions:
REMARK  status: ('A' for Active; 'I' for Inactive)
REMARK    1  A    between atoms: N1_1  and  C1_5 
REMARK    2  A    between atoms: C1_5  and  N2_6 
ROOT
HETATM    1  C1  UNL     1       4.714  94.730  45.410  1.00  0.00     0.448 C 
HETATM    2 BR1  UNL     1       6.184  95.958  45.392  1.00  0.00    -0.030 Br
ENDROOT
BRANCH   1   3
HETATM    3  N1  UNL     1       4.574  94.054  46.703  1.00  0.00    -0.041 N 
ATOM      4  H13 UNL     1       3.623  93.748  46.906  1.00  0.00     0.277 HD
ATOM      5  H12 UNL     1       5.005  93.129  46.732  1.00  0.00     0.277 HD
ATOM      6  H11 UNL     1       4.952  94.706  47.390  1.00  0.00     0.277 HD
ENDBRANCH   1   3
BRANCH   1   7
HETATM    7  N2  UNL     1       3.454  95.446  45.211  1.00  0.00    -0.041 N 
ATOM      8  H23 UNL     1       3.346  95.835  44.274  1.00  0.00     0.277 HD
ATOM      9  H22 UNL     1       2.636  94.838  45.181  1.00  0.00     0.277 HD
ATOM     10  H21 UNL     1       3.421  96.144  45.953  1.00  0.00     0.277 HD
ENDBRANCH   1   7
TORSDOF 2
ENDMDL
MODEL 2
REMARK VINA RESULT: -2.704458913      2.173      2.721
REMARK  2 active torsions:
REMARK  status: ('A' for Active; 'I' for Inactive)
REMARK    1  A    between atoms: N1_1  and  C1_5 
REMARK    2  A    between atoms: C1_5  and  N2_6 
ROOT
HETATM    1  C1  UNL     1       4.587  94.030  45.522  1.00  0.00     0.448 C 
HETATM    2 BR1  UNL     1       3.928  92.404  44.751  1.00  0.00    -0.030 Br
ENDROOT
BRANCH   1   3
HETATM    3  N1  UNL     1       3.701  95.166  45.256  1.00  0.00    -0.041 N 
ATOM      4  H13 UNL     1       3.310  95.589  46.097  1.00  0.00     0.277 HD
ATOM      5  H12 UNL     1       4.188  95.998  44.921  1.00  0.00     0.277 HD
ATOM      6  H11 UNL     1       2.997  94.813  44.608  1.00  0.00     0.277 HD
ENDBRANCH   1   3
BRANCH   1   7
HETATM    7  N2  UNL     1       4.638  93.913  46.979  1.00  0.00    -0.041 N 
ATOM      8  H23 UNL     1       5.172  94.655  47.433  1.00  0.00     0.277 HD
ATOM      9  H22 UNL     1       3.749  94.109  47.439  1.00  0.00     0.277 HD
ATOM     10  H21 UNL     1       4.998  92.977  47.162  1.00  0.00     0.277 HD
ENDBRANCH   1   7
TORSDOF 2
ENDMDL
MODEL 3
REMARK VINA RESULT: -2.650200761      6.249      6.605
REMARK  2 active torsions:
REMARK  status: ('A' for Active; 'I' for Inactive)
REMARK    1  A    between atoms: N1_1  and  C1_5 
REMARK    2  A    between atoms: C1_5  and  N2_6 
ROOT
HETATM    1  C1  UNL     1      10.406  96.458  47.713  1.00  0.00     0.448 C 
HETATM    2 BR1  UNL     1      10.286  97.135  45.925  1.00  0.00    -0.030 Br
ENDROOT
BRANCH   1   3
HETATM    3  N1  UNL     1      10.415  94.993  47.750  1.00  0.00    -0.041 N 
ATOM      4  H13 UNL     1      10.255  94.557  46.842  1.00  0.00     0.277 HD
ATOM      5  H12 UNL     1      11.338  94.591  47.913  1.00  0.00     0.277 HD
ATOM      6  H11 UNL     1       9.724  94.737  48.456  1.00  0.00     0.277 HD
ENDBRANCH   1   3
BRANCH   1   7
HETATM    7  N2  UNL     1      11.669  96.868  48.326  1.00  0.00    -0.041 N 
ATOM      8  H23 UNL     1      11.556  97.370  49.206  1.00  0.00     0.277 HD
ATOM      9  H22 UNL     1      12.215  96.092  48.701  1.00  0.00     0.277 HD
ATOM     10  H21 UNL     1      12.156  97.403  47.607  1.00  0.00     0.277 HD
ENDBRANCH   1   7
TORSDOF 2
ENDMDL
MODEL 4
REMARK VINA RESULT: -2.618592082      2.036      2.040
REMARK  2 active torsions:
REMARK  status: ('A' for Active; 'I' for Inactive)
REMARK    1  A    between atoms: N1_1  and  C1_5 
REMARK    2  A    between atoms: C1_5  and  N2_6 
ROOT
HETATM    1  C1  UNL     1       4.412  93.895  45.112  1.00  0.00     0.448 C 
HETATM    2 BR1  UNL     1       5.321  93.390  46.720  1.00  0.00    -0.030 Br
ENDROOT
BRANCH   1   3
HETATM    3  N1  UNL     1       3.350  92.949  44.756  1.00  0.00    -0.041 N 
ATOM      4  H13 UNL     1       2.804  92.626  45.554  1.00  0.00     0.277 HD
ATOM      5  H12 UNL     1       2.575  93.373  44.246  1.00  0.00     0.277 HD
ATOM      6  H11 UNL     1       3.817  92.199  44.246  1.00  0.00     0.277 HD
ENDBRANCH   1   3
BRANCH   1   7
HETATM    7  N2  UNL     1       3.738  95.181  45.294  1.00  0.00    -0.041 N 
ATOM      8  H23 UNL     1       3.043  95.387  44.576  1.00  0.00     0.277 HD
ATOM      9  H22 UNL     1       3.098  95.201  46.088  1.00  0.00     0.277 HD
ATOM     10  H21 UNL     1       4.487  95.871  45.352  1.00  0.00     0.277 HD
ENDBRANCH   1   7
TORSDOF 2
ENDMDL
MODEL 5
REMARK VINA RESULT: -2.609717063      4.464      4.544
REMARK  2 active torsions:
REMARK  status: ('A' for Active; 'I' for Inactive)
REMARK    1  A    between atoms: N1_1  and  C1_5 
REMARK    2  A    between atoms: C1_5  and  N2_6 
ROOT
HETATM    1  C1  UNL     1       3.354  90.515  45.334  1.00  0.00     0.448 C 
HETATM    2 BR1  UNL     1       5.252  90.618  45.578  1.00  0.00    -0.030 Br
ENDROOT
BRANCH   1   3
HETATM    3  N1  UNL     1       2.673  89.982  46.517  1.00  0.00    -0.041 N 
ATOM      4  H13 UNL     1       1.668  89.859  46.392  1.00  0.00     0.277 HD
ATOM      5  H12 UNL     1       2.889  89.004  46.710  1.00  0.00     0.277 HD
ATOM      6  H11 UNL     1       2.918  90.615  47.278  1.00  0.00     0.277 HD
ENDBRANCH   1   3
BRANCH   1   7
HETATM    7  N2  UNL     1       2.797  91.853  45.137  1.00  0.00    -0.041 N 
ATOM      8  H23 UNL     1       2.487  92.033  44.182  1.00  0.00     0.277 HD
ATOM      9  H22 UNL     1       1.890  91.990  45.584  1.00  0.00     0.277 HD
ATOM     10  H21 UNL     1       3.518  92.496  45.464  1.00  0.00     0.277 HD
ENDBRANCH   1   7
TORSDOF 2
ENDMDL
