MODEL 1
REMARK VINA RESULT: -3.052929651      0.000      0.000
REMARK  1 active torsions:
REMARK  status: ('A' for Active; 'I' for Inactive)
REMARK    1  A    between atoms: N1_1  and  C1_5 
ROOT
HETATM    1  C1  UNL     1      10.323  97.284  45.850  1.00  0.00     0.199 A 
HETATM    2  C2  UNL     1       9.202  96.798  46.711  1.00  0.00     0.052 A 
HETATM    3  C3  UNL     1      10.627  96.405  47.002  1.00  0.00     0.090 A 
HETATM    4 BR1  UNL     1      11.398  97.172  48.605  1.00  0.00    -0.089 Br
ENDROOT
BRANCH   1   5
HETATM    5  N1  UNL     1      10.514  96.697  44.523  1.00  0.00    -0.074 N 
ATOM      6  H13 UNL     1       9.655  96.215  44.253  1.00  0.00     0.274 HD
ATOM      7  H12 UNL     1      10.547  97.449  43.835  1.00  0.00     0.274 HD
ATOM      8  H11 UNL     1      11.304  96.071  44.364  1.00  0.00     0.274 HD
ENDBRANCH   1   5
TORSDOF 1
ENDMDL
MODEL 2
REMARK VINA RESULT: -3.014906488      2.686      2.844
REMARK  1 active torsions:
REMARK  status: ('A' for Active; 'I' for Inactive)
REMARK    1  A    between atoms: N1_1  and  C1_5 
ROOT
HETATM    1  C1  UNL     1      10.679  96.240  47.293  1.00  0.00     0.199 A 
HETATM    2  C2  UNL     1       9.320  96.797  47.018  1.00  0.00     0.052 A 
HETATM    3  C3  UNL     1      10.462  97.037  46.065  1.00  0.00     0.090 A 
HETATM    4 BR1  UNL     1      10.333  96.134  44.357  1.00  0.00    -0.089 Br
ENDROOT
BRANCH   1   5
HETATM    5  N1  UNL     1      11.511  96.860  48.326  1.00  0.00    -0.074 N 
ATOM      6  H13 UNL     1      12.367  96.313  48.428  1.00  0.00     0.274 HD
ATOM      7  H12 UNL     1      11.877  97.740  47.965  1.00  0.00     0.274 HD
ATOM      8  H11 UNL     1      11.116  97.025  49.252  1.00  0.00     0.274 HD
ENDBRANCH   1   5
TORSDOF 1
ENDMDL
MODEL 3
REMARK VINA RESULT: -2.923776735      1.655      1.880
REMARK  1 active torsions:
REMARK  status: ('A' for Active; 'I' for Inactive)
REMARK    1  A    between atoms: N1_1  and  C1_5 
ROOT
HETATM    1  C1  UNL     1      10.414  95.650  46.990  1.00  0.00     0.199 A 
HETATM    2  C2  UNL     1      10.519  97.018  46.398  1.00  0.00     0.052 A 
HETATM    3  C3  UNL     1      10.357  96.829  47.884  1.00  0.00     0.090 A 
HETATM    4 BR1  UNL     1      11.901  97.281  48.961  1.00  0.00    -0.089 Br
ENDROOT
BRANCH   1   5
HETATM    5  N1  UNL     1       9.169  94.897  46.835  1.00  0.00    -0.074 N 
ATOM      6  H13 UNL     1       8.678  94.888  47.730  1.00  0.00     0.274 HD
ATOM      7  H12 UNL     1       8.527  95.442  46.260  1.00  0.00     0.274 HD
ATOM      8  H11 UNL     1       9.205  93.944  46.473  1.00  0.00     0.274 HD
ENDBRANCH   1   5
TORSDOF 1
ENDMDL
MODEL 4
REMARK VINA RESULT: -2.901928039      2.763      2.890
REMARK  1 active torsions:
REMARK  status: ('A' for Active; 'I' for Inactive)
REMARK    1  A    between atoms: N1_1  and  C1_5 
ROOT
HETATM    1  C1  UNL     1      10.376  96.770  47.732  1.00  0.00     0.199 A 
HETATM    2  C2  UNL     1      10.434  97.120  46.280  1.00  0.00     0.052 A 
HETATM    3  C3  UNL     1      10.408  95.682  46.729  1.00  0.00     0.090 A 
HETATM    4 BR1  UNL     1       8.782  94.709  46.332  1.00  0.00    -0.089 Br
ENDROOT
BRANCH   1   5
HETATM    5  N1  UNL     1      11.578  96.925  48.553  1.00  0.00    -0.074 N 
ATOM      6  H13 UNL     1      11.894  97.893  48.491  1.00  0.00     0.274 HD
ATOM      7  H12 UNL     1      11.312  96.864  49.536  1.00  0.00     0.274 HD
ATOM      8  H11 UNL     1      12.375  96.309  48.391  1.00  0.00     0.274 HD
ENDBRANCH   1   5
TORSDOF 1
ENDMDL
MODEL 5
REMARK VINA RESULT: -2.800203234      5.919      6.268
REMARK  1 active torsions:
REMARK  status: ('A' for Active; 'I' for Inactive)
REMARK    1  A    between atoms: N1_1  and  C1_5 
ROOT
HETATM    1  C1  UNL     1       5.466  92.747  47.310  1.00  0.00     0.199 A 
HETATM    2  C2  UNL     1       5.849  91.777  46.240  1.00  0.00     0.052 A 
HETATM    3  C3  UNL     1       6.864  92.727  46.823  1.00  0.00     0.090 A 
HETATM    4 BR1  UNL     1       8.240  91.916  47.917  1.00  0.00    -0.089 Br
ENDROOT
BRANCH   1   5
HETATM    5  N1  UNL     1       4.677  93.928  46.956  1.00  0.00    -0.074 N 
ATOM      6  H13 UNL     1       4.921  94.212  46.007  1.00  0.00     0.274 HD
ATOM      7  H12 UNL     1       3.703  93.646  46.838  1.00  0.00     0.274 HD
ATOM      8  H11 UNL     1       4.709  94.749  47.562  1.00  0.00     0.274 HD
ENDBRANCH   1   5
TORSDOF 1
ENDMDL
