MODEL 1
REMARK VINA RESULT: -4.474915263      0.000      0.000
REMARK  0 active torsions:
REMARK  status: ('A' for Active; 'I' for Inactive)
REMARK       I    between atoms: C3_5  and  N3_7 
ROOT
HETATM    1  C1  UNL     1      11.813  97.337  49.088  1.00  0.00     0.037 C 
HETATM    2  C2  UNL     1      11.001  97.115  48.222  1.00  0.00     0.001 C 
HETATM    3  N1  UNL     1      10.055  96.830  47.210  1.00  0.00    -0.289 N 
ATOM      4  H1  UNL     1       9.647  97.586  46.658  1.00  0.00     0.179 HD
HETATM    5  C3  UNL     1       9.709  95.594  46.989  1.00  0.00     0.208 C 
HETATM    6  N2  UNL     1       8.759  95.375  45.965  1.00  0.00    -0.062 NA
HETATM    7  N3  UNL     1      10.280  94.553  47.759  1.00  0.00    -0.267 N 
ATOM      8  H3  UNL     1      11.197  94.683  48.185  1.00  0.00     0.180 HD
HETATM    9  C4  UNL     1       9.595  93.346  47.939  1.00  0.00     0.184 C 
HETATM   10  N4  UNL     1       9.038  92.323  48.094  1.00  0.00    -0.172 NA
ENDROOT
TORSDOF 0
ENDMDL
MODEL 2
REMARK VINA RESULT: -4.206995129      2.394      3.530
REMARK  0 active torsions:
REMARK  status: ('A' for Active; 'I' for Inactive)
REMARK       I    between atoms: C3_5  and  N3_7 
ROOT
HETATM    1  C1  UNL     1      11.342  97.046  48.053  1.00  0.00     0.037 C 
HETATM    2  C2  UNL     1      10.327  96.815  47.441  1.00  0.00     0.001 C 
HETATM    3  N1  UNL     1       9.149  96.549  46.702  1.00  0.00    -0.289 N 
ATOM      4  H1  UNL     1       8.261  96.404  47.183  1.00  0.00     0.179 HD
HETATM    5  C3  UNL     1       9.211  96.492  45.403  1.00  0.00     0.208 C 
HETATM    6  N2  UNL     1       8.000  96.223  44.722  1.00  0.00    -0.062 NA
HETATM    7  N3  UNL     1      10.447  96.696  44.745  1.00  0.00    -0.267 N 
ATOM      8  H3  UNL     1      11.175  97.250  45.195  1.00  0.00     0.180 HD
HETATM    9  C4  UNL     1      10.678  96.142  43.480  1.00  0.00     0.184 C 
HETATM   10  N4  UNL     1      10.885  95.691  42.415  1.00  0.00    -0.172 NA
ENDROOT
TORSDOF 0
ENDMDL
MODEL 3
REMARK VINA RESULT: -4.206500101      1.700      3.792
REMARK  0 active torsions:
REMARK  status: ('A' for Active; 'I' for Inactive)
REMARK       I    between atoms: C3_5  and  N3_7 
ROOT
HETATM    1  C1  UNL     1       9.325  93.195  47.477  1.00  0.00     0.037 C 
HETATM    2  C2  UNL     1       9.580  94.229  46.906  1.00  0.00     0.001 C 
HETATM    3  N1  UNL     1       9.884  95.450  46.260  1.00  0.00    -0.289 N 
ATOM      4  H1  UNL     1       9.681  95.573  45.268  1.00  0.00     0.179 HD
HETATM    5  C3  UNL     1      10.426  96.416  46.945  1.00  0.00     0.208 C 
HETATM    6  N2  UNL     1      10.706  97.611  46.243  1.00  0.00    -0.062 NA
HETATM    7  N3  UNL     1      10.702  96.237  48.321  1.00  0.00    -0.267 N 
ATOM      8  H3  UNL     1      10.161  95.564  48.863  1.00  0.00     0.180 HD
HETATM    9  C4  UNL     1      11.714  96.977  48.944  1.00  0.00     0.184 C 
HETATM   10  N4  UNL     1      12.555  97.596  49.484  1.00  0.00    -0.172 NA
ENDROOT
TORSDOF 0
ENDMDL
MODEL 4
REMARK VINA RESULT: -4.167856790      5.581      7.148
REMARK  0 active torsions:
REMARK  status: ('A' for Active; 'I' for Inactive)
REMARK       I    between atoms: C3_5  and  N3_7 
ROOT
HETATM    1  C1  UNL     1       4.298  92.378  45.429  1.00  0.00     0.037 C 
HETATM    2  C2  UNL     1       4.695  93.489  45.691  1.00  0.00     0.001 C 
HETATM    3  N1  UNL     1       5.162  94.794  45.973  1.00  0.00    -0.289 N 
ATOM      4  H1  UNL     1       5.404  95.060  46.927  1.00  0.00     0.179 HD
HETATM    5  C3  UNL     1       5.278  95.654  45.000  1.00  0.00     0.208 C 
HETATM    6  N2  UNL     1       5.749  96.941  45.346  1.00  0.00    -0.062 NA
HETATM    7  N3  UNL     1       4.939  95.275  43.679  1.00  0.00    -0.267 N 
ATOM      8  H3  UNL     1       4.985  94.294  43.406  1.00  0.00     0.180 HD
HETATM    9  C4  UNL     1       4.542  96.239  42.745  1.00  0.00     0.184 C 
HETATM   10  N4  UNL     1       4.213  97.036  41.946  1.00  0.00    -0.172 NA
ENDROOT
TORSDOF 0
ENDMDL
MODEL 5
REMARK VINA RESULT: -4.126543191      4.500      6.083
REMARK  0 active torsions:
REMARK  status: ('A' for Active; 'I' for Inactive)
REMARK       I    between atoms: C3_5  and  N3_7 
ROOT
HETATM    1  C1  UNL     1       8.495  96.385  45.776  1.00  0.00     0.037 C 
HETATM    2  C2  UNL     1       7.504  95.700  45.687  1.00  0.00     0.001 C 
HETATM    3  N1  UNL     1       6.330  94.918  45.574  1.00  0.00    -0.289 N 
ATOM      4  H1  UNL     1       6.295  93.980  45.972  1.00  0.00     0.179 HD
HETATM    5  C3  UNL     1       5.294  95.409  44.955  1.00  0.00     0.208 C 
HETATM    6  N2  UNL     1       4.152  94.579  44.874  1.00  0.00    -0.062 NA
HETATM    7  N3  UNL     1       5.351  96.712  44.406  1.00  0.00    -0.267 N 
ATOM      8  H3  UNL     1       5.995  97.399  44.799  1.00  0.00     0.180 HD
HETATM    9  C4  UNL     1       4.531  97.065  43.328  1.00  0.00     0.184 C 
HETATM   10  N4  UNL     1       3.844  97.380  42.428  1.00  0.00    -0.172 NA
ENDROOT
TORSDOF 0
ENDMDL
