MODEL 1
REMARK VINA RESULT: -4.264590171      0.000      0.000
REMARK  1 active torsions:
REMARK  status: ('A' for Active; 'I' for Inactive)
REMARK    1  A    between atoms: C5_7  and  O1_8 
ROOT
HETATM    1  C1  UNL     1      11.946  97.520  49.476  1.00  0.00     0.037 C 
HETATM    2  C2  UNL     1      11.338  97.122  48.509  1.00  0.00    -0.001 C 
HETATM    3  N1  UNL     1      10.625  96.679  47.369  1.00  0.00    -0.312 N 
HETATM    4  C3  UNL     1      10.269  97.277  46.101  1.00  0.00     0.160 C 
HETATM    5  C4  UNL     1      10.046  95.890  45.569  1.00  0.00     0.150 C 
HETATM    6 CL1  UNL     1       8.500  95.775  44.680  1.00  0.00    -0.119 Cl
HETATM    7  C5  UNL     1       9.964  95.458  47.012  1.00  0.00     0.247 C 
ENDROOT
BRANCH   7   8
HETATM    8  O1  UNL     1      10.702  94.326  47.333  1.00  0.00    -0.374 OA
ATOM      9  H1  UNL     1      10.236  93.517  47.161  1.00  0.00     0.212 HD
ENDBRANCH   7   8
TORSDOF 1
ENDMDL
MODEL 2
REMARK VINA RESULT: -4.190245144      6.489      7.360
REMARK  1 active torsions:
REMARK  status: ('A' for Active; 'I' for Inactive)
REMARK    1  A    between atoms: C5_7  and  O1_8 
ROOT
HETATM    1  C1  UNL     1       2.097  97.345  45.201  1.00  0.00     0.037 C 
HETATM    2  C2  UNL     1       3.155  97.200  44.634  1.00  0.00    -0.001 C 
HETATM    3  N1  UNL     1       4.404  97.028  43.991  1.00  0.00    -0.312 N 
HETATM    4  C3  UNL     1       5.686  96.491  44.394  1.00  0.00     0.160 C 
HETATM    5  C4  UNL     1       6.019  96.333  42.937  1.00  0.00     0.150 C 
HETATM    6 CL1  UNL     1       7.652  96.960  42.572  1.00  0.00    -0.119 Cl
HETATM    7  C5  UNL     1       4.905  97.317  42.679  1.00  0.00     0.247 C 
ENDROOT
BRANCH   7   8
HETATM    8  O1  UNL     1       4.023  96.959  41.669  1.00  0.00    -0.374 OA
ATOM      9  H1  UNL     1       3.143  97.291  41.807  1.00  0.00     0.212 HD
ENDBRANCH   7   8
TORSDOF 1
ENDMDL
MODEL 3
REMARK VINA RESULT: -4.054938603      1.585      1.878
REMARK  1 active torsions:
REMARK  status: ('A' for Active; 'I' for Inactive)
REMARK    1  A    between atoms: C5_7  and  O1_8 
ROOT
HETATM    1  C1  UNL     1      11.968  97.501  49.319  1.00  0.00     0.037 C 
HETATM    2  C2  UNL     1      11.386  96.999  48.386  1.00  0.00    -0.001 C 
HETATM    3  N1  UNL     1      10.703  96.391  47.305  1.00  0.00    -0.312 N 
HETATM    4  C3  UNL     1       9.886  95.206  47.161  1.00  0.00     0.160 C 
HETATM    5  C4  UNL     1       9.337  95.802  45.896  1.00  0.00     0.150 C 
HETATM    6 CL1  UNL     1       9.331  94.610  44.564  1.00  0.00    -0.119 Cl
HETATM    7  C5  UNL     1      10.545  96.704  45.915  1.00  0.00     0.247 C 
ENDROOT
BRANCH   7   8
HETATM    8  O1  UNL     1      10.283  98.048  45.686  1.00  0.00    -0.374 OA
ATOM      9  H1  UNL     1      10.456  98.596  46.443  1.00  0.00     0.212 HD
ENDBRANCH   7   8
TORSDOF 1
ENDMDL
MODEL 4
REMARK VINA RESULT: -4.002882482      1.095      1.095
REMARK  1 active torsions:
REMARK  status: ('A' for Active; 'I' for Inactive)
REMARK    1  A    between atoms: C5_7  and  O1_8 
ROOT
HETATM    1  C1  UNL     1      12.044  97.342  48.836  1.00  0.00     0.037 C 
HETATM    2  C2  UNL     1      11.190  96.773  48.197  1.00  0.00    -0.001 C 
HETATM    3  N1  UNL     1      10.180  96.126  47.445  1.00  0.00    -0.312 N 
HETATM    4  C3  UNL     1       9.167  96.574  46.514  1.00  0.00     0.160 C 
HETATM    5  C4  UNL     1       9.079  95.161  46.012  1.00  0.00     0.150 C 
HETATM    6 CL1  UNL     1       7.381  94.624  45.873  1.00  0.00    -0.119 Cl
HETATM    7  C5  UNL     1       9.751  94.766  47.303  1.00  0.00     0.247 C 
ENDROOT
BRANCH   7   8
HETATM    8  O1  UNL     1      10.807  93.873  47.171  1.00  0.00    -0.374 OA
ATOM      9  H1  UNL     1      10.730  93.317  46.405  1.00  0.00     0.212 HD
ENDBRANCH   7   8
TORSDOF 1
ENDMDL
MODEL 5
REMARK VINA RESULT: -3.957043488      9.157      9.278
REMARK  1 active torsions:
REMARK  status: ('A' for Active; 'I' for Inactive)
REMARK    1  A    between atoms: C5_7  and  O1_8 
ROOT
HETATM    1  C1  UNL     1       6.807  87.971  46.417  1.00  0.00     0.037 C 
HETATM    2  C2  UNL     1       5.954  88.670  45.921  1.00  0.00    -0.001 C 
HETATM    3  N1  UNL     1       4.970  89.493  45.323  1.00  0.00    -0.312 N 
HETATM    4  C3  UNL     1       4.753  90.005  43.986  1.00  0.00     0.160 C 
HETATM    5  C4  UNL     1       3.321  90.246  44.368  1.00  0.00     0.150 C 
HETATM    6 CL1  UNL     1       2.782  91.877  43.875  1.00  0.00    -0.119 Cl
HETATM    7  C5  UNL     1       3.791  90.154  45.798  1.00  0.00     0.247 C 
ENDROOT
BRANCH   7   8
HETATM    8  O1  UNL     1       3.015  89.354  46.626  1.00  0.00    -0.374 OA
ATOM      9  H1  UNL     1       3.531  88.822  47.220  1.00  0.00     0.212 HD
ENDBRANCH   7   8
TORSDOF 1
ENDMDL
