MODEL 1
REMARK VINA RESULT: -10.748844890      0.000      0.000
REMARK  9 active torsions:
REMARK  status: ('A' for Active; 'I' for Inactive)
REMARK    1  A    between atoms: C2_7  and  C3_8 
REMARK       I    between atoms: C3_8  and  N3_10 
REMARK    2  A    between atoms: N3_10  and  C4_12 
REMARK    3  A    between atoms: C7_16  and  C8_17 
REMARK    4  A    between atoms: C9_20  and  C10_21 
REMARK    5  A    between atoms: C10_21  and  O4_22 
REMARK    6  A    between atoms: O4_22  and  C11_23 
REMARK    7  A    between atoms: C13_27  and  S1_28 
REMARK    8  A    between atoms: N8_40  and  C18_41 
REMARK    9  A    between atoms: C18_41  and  C19_42 
ROOT
HETATM    1  C3  UNL     1      19.577  43.270  97.549  1.00  0.00     0.286 C 
HETATM    2  O1  UNL     1      19.366  44.363  96.963  1.00  0.00    -0.264 OA
HETATM    3  N3  UNL     1      20.207  42.213  96.835  1.00  0.00    -0.347 N 
ATOM      4  H3  UNL     1      20.370  41.322  97.305  1.00  0.00     0.163 HD
ENDROOT
BRANCH   3   5
HETATM    5  C4  UNL     1      20.624  42.372  95.457  1.00  0.00     0.113 C 
HETATM    6  C5  UNL     1      19.957  41.255  94.602  1.00  0.00     0.047 C 
HETATM    7  C6  UNL     1      20.974  40.926  93.557  1.00  0.00     0.126 C 
HETATM    8  N4  UNL     1      22.234  41.505  93.989  1.00  0.00    -0.364 N 
HETATM    9  C7  UNL     1      23.605  41.736  93.650  1.00  0.00     0.117 C 
HETATM   10  C14 UNL     1      22.055  42.099  95.290  1.00  0.00     0.142 C 
HETATM   11  C9  UNL     1      23.993  42.876  94.272  1.00  0.00     0.009 C 
HETATM   12  C12 UNL     1      22.914  43.373  95.099  1.00  0.00    -0.009 C 
HETATM   13  C13 UNL     1      22.616  44.484  95.669  1.00  0.00     0.143 C 
BRANCH   9  14
HETATM   14  C8  UNL     1      24.311  40.841  92.758  1.00  0.00     0.227 C 
HETATM   15  O2  UNL     1      23.734  40.364  91.721  1.00  0.00    -0.643 OA
HETATM   16  O3  UNL     1      25.606  40.443  92.936  1.00  0.00    -0.643 OA
ENDBRANCH   9  14
BRANCH  11  17
HETATM   17  C10 UNL     1      25.354  43.430  94.154  1.00  0.00     0.222 C 
BRANCH  17  18
HETATM   18  O4  UNL     1      25.415  44.625  93.440  1.00  0.00    -0.302 OA
BRANCH  18  19
HETATM   19  C11 UNL     1      25.271  44.591  92.047  1.00  0.00     0.372 C 
HETATM   20  N5  UNL     1      25.650  43.477  91.265  1.00  0.00    -0.032 NA
HETATM   21  O5  UNL     1      24.784  45.596  91.486  1.00  0.00    -0.242 OA
ENDBRANCH  18  19
ENDBRANCH  17  18
ENDBRANCH  11  17
BRANCH  13  22
HETATM   22  S1  UNL     1      23.313  46.043  95.802  1.00  0.00     0.127 S 
HETATM   23  O6  UNL     1      24.754  45.943  96.363  1.00  0.00    -0.592 OA
HETATM   24  O7  UNL     1      23.511  46.747  94.495  1.00  0.00    -0.592 OA
HETATM   25  O8  UNL     1      22.507  46.943  96.954  1.00  0.00    -0.592 OA
ENDBRANCH  13  22
ENDBRANCH   3   5
BRANCH   1  26
HETATM   26  C2  UNL     1      19.154  43.147  98.936  1.00  0.00     0.177 A 
HETATM   27  N2  UNL     1      19.402  44.134  99.808  1.00  0.00    -0.322 N 
HETATM   28  C1  UNL     1      19.037  43.934 101.117  1.00  0.00     0.131 A 
ATOM     29  H2  UNL     1      19.845  45.003  99.509  1.00  0.00     0.169 HD
HETATM   30  N1  UNL     1      19.203  44.852 101.922  1.00  0.00    -0.383 N 
HETATM   31  C16 UNL     1      18.433  42.752 101.533  1.00  0.00     0.122 A 
ATOM     32  H12 UNL     1      19.646  45.719 101.618  1.00  0.00     0.157 HD
ATOM     33  H11 UNL     1      18.932  44.704 102.894  1.00  0.00     0.157 HD
HETATM   34  C15 UNL     1      18.204  41.776 100.594  1.00  0.00     0.141 A 
HETATM   35  N7  UNL     1      17.980  42.292 102.712  1.00  0.00    -0.346 N 
HETATM   36  N6  UNL     1      18.571  42.003  99.325  1.00  0.00    -0.322 N 
HETATM   37  N8  UNL     1      17.616  40.755 101.241  1.00  0.00    -0.319 N 
ATOM     38  H6  UNL     1      18.402  41.278  98.628  1.00  0.00     0.169 HD
HETATM   39  C17 UNL     1      17.470  41.057 102.550  1.00  0.00     0.185 A 
ATOM     40  H7  UNL     1      18.017  42.802 103.595  1.00  0.00     0.167 HD
BRANCH  37  41
HETATM   41  C18 UNL     1      17.179  39.480 100.699  1.00  0.00     0.230 C 
BRANCH  41  42
HETATM   42  C19 UNL     1      18.290  38.610 100.325  1.00  0.00     0.249 C 
HETATM   43  N9  UNL     1      19.007  38.759  99.113  1.00  0.00    -0.061 NA
HETATM   44  O9  UNL     1      18.646  37.680 101.098  1.00  0.00    -0.275 OA
ENDBRANCH  41  42
ENDBRANCH  37  41
ENDBRANCH   1  26
TORSDOF 9
ENDMDL
MODEL 2
REMARK VINA RESULT: -10.396671553      1.628      3.113
REMARK  9 active torsions:
REMARK  status: ('A' for Active; 'I' for Inactive)
REMARK    1  A    between atoms: C2_7  and  C3_8 
REMARK       I    between atoms: C3_8  and  N3_10 
REMARK    2  A    between atoms: N3_10  and  C4_12 
REMARK    3  A    between atoms: C7_16  and  C8_17 
REMARK    4  A    between atoms: C9_20  and  C10_21 
REMARK    5  A    between atoms: C10_21  and  O4_22 
REMARK    6  A    between atoms: O4_22  and  C11_23 
REMARK    7  A    between atoms: C13_27  and  S1_28 
REMARK    8  A    between atoms: N8_40  and  C18_41 
REMARK    9  A    between atoms: C18_41  and  C19_42 
ROOT
HETATM    1  C3  UNL     1      19.420  42.770  97.225  1.00  0.00     0.286 C 
HETATM    2  O1  UNL     1      19.133  43.897  96.746  1.00  0.00    -0.264 OA
HETATM    3  N3  UNL     1      20.216  41.875  96.458  1.00  0.00    -0.347 N 
ATOM      4  H3  UNL     1      20.441  40.956  96.839  1.00  0.00     0.163 HD
ENDROOT
BRANCH   3   5
HETATM    5  C4  UNL     1      20.715  42.238  95.147  1.00  0.00     0.113 C 
HETATM    6  C5  UNL     1      20.131  41.247  94.099  1.00  0.00     0.047 C 
HETATM    7  C6  UNL     1      21.219  41.087  93.086  1.00  0.00     0.126 C 
HETATM    8  N4  UNL     1      22.435  41.616  93.680  1.00  0.00    -0.364 N 
HETATM    9  C7  UNL     1      23.819  41.913  93.469  1.00  0.00     0.117 C 
HETATM   10  C14 UNL     1      22.161  42.012  95.038  1.00  0.00     0.142 C 
HETATM   11  C9  UNL     1      24.140  42.956  94.272  1.00  0.00     0.009 C 
HETATM   12  C12 UNL     1      22.999  43.312  95.089  1.00  0.00    -0.009 C 
HETATM   13  C13 UNL     1      22.640  44.325  95.792  1.00  0.00     0.143 C 
BRANCH   9  14
HETATM   14  C8  UNL     1      24.601  41.166  92.506  1.00  0.00     0.227 C 
HETATM   15  O2  UNL     1      25.606  40.469  92.882  1.00  0.00    -0.643 OA
HETATM   16  O3  UNL     1      24.345  41.139  91.164  1.00  0.00    -0.643 OA
ENDBRANCH   9  14
BRANCH  11  17
HETATM   17  C10 UNL     1      25.492  43.541  94.325  1.00  0.00     0.222 C 
BRANCH  17  18
HETATM   18  O4  UNL     1      25.614  44.741  93.628  1.00  0.00    -0.302 OA
BRANCH  18  19
HETATM   19  C11 UNL     1      25.631  44.712  92.227  1.00  0.00     0.372 C 
HETATM   20  N5  UNL     1      24.730  45.459  91.435  1.00  0.00    -0.032 NA
HETATM   21  O5  UNL     1      26.485  43.991  91.669  1.00  0.00    -0.242 OA
ENDBRANCH  18  19
ENDBRANCH  17  18
ENDBRANCH  11  17
BRANCH  13  22
HETATM   22  S1  UNL     1      23.290  45.858  96.193  1.00  0.00     0.127 S 
HETATM   23  O6  UNL     1      23.392  46.748  94.928  1.00  0.00    -0.592 OA
HETATM   24  O7  UNL     1      22.430  46.675  97.108  1.00  0.00    -0.592 OA
HETATM   25  O8  UNL     1      24.875  45.705  96.692  1.00  0.00    -0.592 OA
ENDBRANCH  13  22
ENDBRANCH   3   5
BRANCH   1  26
HETATM   26  C2  UNL     1      18.910  42.441  98.548  1.00  0.00     0.177 A 
HETATM   27  N2  UNL     1      18.719  41.163  98.900  1.00  0.00    -0.322 N 
HETATM   28  C1  UNL     1      18.175  40.917 100.137  1.00  0.00     0.131 A 
ATOM     29  H2  UNL     1      18.971  40.399  98.272  1.00  0.00     0.169 HD
HETATM   30  N1  UNL     1      18.046  39.747 100.503  1.00  0.00    -0.383 N 
HETATM   31  C16 UNL     1      17.829  41.952 101.000  1.00  0.00     0.122 A 
ATOM     32  H12 UNL     1      18.300  38.988  99.870  1.00  0.00     0.157 HD
ATOM     33  H11 UNL     1      17.642  39.565 101.421  1.00  0.00     0.157 HD
HETATM   34  C15 UNL     1      18.047  43.243 100.584  1.00  0.00     0.141 A 
HETATM   35  N7  UNL     1      17.297  42.009 102.233  1.00  0.00    -0.346 N 
HETATM   36  N6  UNL     1      18.580  43.448  99.372  1.00  0.00    -0.322 N 
HETATM   37  N8  UNL     1      17.639  44.041 101.586  1.00  0.00    -0.319 N 
ATOM     38  H6  UNL     1      18.742  44.407  99.063  1.00  0.00     0.169 HD
HETATM   39  C17 UNL     1      17.173  43.295 102.612  1.00  0.00     0.185 A 
ATOM     40  H7  UNL     1      17.028  41.202 102.796  1.00  0.00     0.167 HD
BRANCH  37  41
HETATM   41  C18 UNL     1      17.650  45.492 101.641  1.00  0.00     0.230 C 
BRANCH  41  42
HETATM   42  C19 UNL     1      18.482  46.013 102.722  1.00  0.00     0.249 C 
HETATM   43  N9  UNL     1      18.293  47.299 103.283  1.00  0.00    -0.061 NA
HETATM   44  O9  UNL     1      19.414  45.306 103.193  1.00  0.00    -0.275 OA
ENDBRANCH  41  42
ENDBRANCH  37  41
ENDBRANCH   1  26
TORSDOF 9
ENDMDL
MODEL 3
REMARK VINA RESULT: -10.294130241      3.318      5.098
REMARK  9 active torsions:
REMARK  status: ('A' for Active; 'I' for Inactive)
REMARK    1  A    between atoms: C2_7  and  C3_8 
REMARK       I    between atoms: C3_8  and  N3_10 
REMARK    2  A    between atoms: N3_10  and  C4_12 
REMARK    3  A    between atoms: C7_16  and  C8_17 
REMARK    4  A    between atoms: C9_20  and  C10_21 
REMARK    5  A    between atoms: C10_21  and  O4_22 
REMARK    6  A    between atoms: O4_22  and  C11_23 
REMARK    7  A    between atoms: C13_27  and  S1_28 
REMARK    8  A    between atoms: N8_40  and  C18_41 
REMARK    9  A    between atoms: C18_41  and  C19_42 
ROOT
HETATM    1  C3  UNL     1      19.076  38.665  96.961  1.00  0.00     0.286 C 
HETATM    2  O1  UNL     1      18.273  39.627  96.854  1.00  0.00    -0.264 OA
HETATM    3  N3  UNL     1      20.145  38.549  96.029  1.00  0.00    -0.347 N 
ATOM      4  H3  UNL     1      20.791  37.763  96.107  1.00  0.00     0.163 HD
ENDROOT
BRANCH   3   5
HETATM    5  C4  UNL     1      20.337  39.520  94.971  1.00  0.00     0.113 C 
HETATM    6  C5  UNL     1      20.564  38.760  93.632  1.00  0.00     0.047 C 
HETATM    7  C6  UNL     1      21.533  39.613  92.877  1.00  0.00     0.126 C 
HETATM    8  N4  UNL     1      22.102  40.555  93.826  1.00  0.00    -0.364 N 
HETATM    9  C7  UNL     1      22.975  41.675  93.997  1.00  0.00     0.117 C 
HETATM   10  C14 UNL     1      21.590  40.263  95.142  1.00  0.00     0.142 C 
HETATM   11  C9  UNL     1      22.521  42.389  95.056  1.00  0.00     0.009 C 
HETATM   12  C12 UNL     1      21.392  41.709  95.655  1.00  0.00    -0.009 C 
HETATM   13  C13 UNL     1      20.441  42.020  96.460  1.00  0.00     0.143 C 
BRANCH   9  14
HETATM   14  C8  UNL     1      24.086  41.896  93.096  1.00  0.00     0.227 C 
HETATM   15  O2  UNL     1      25.046  41.054  93.025  1.00  0.00    -0.643 OA
HETATM   16  O3  UNL     1      24.203  42.980  92.272  1.00  0.00    -0.643 OA
ENDBRANCH   9  14
BRANCH  11  17
HETATM   17  C10 UNL     1      23.176  43.621  95.533  1.00  0.00     0.222 C 
BRANCH  17  18
HETATM   18  O4  UNL     1      22.657  44.787  94.973  1.00  0.00    -0.302 OA
BRANCH  18  19
HETATM   19  C11 UNL     1      23.144  46.025  95.412  1.00  0.00     0.372 C 
HETATM   20  N5  UNL     1      22.901  46.527  96.710  1.00  0.00    -0.032 NA
HETATM   21  O5  UNL     1      23.823  46.701  94.610  1.00  0.00    -0.242 OA
ENDBRANCH  18  19
ENDBRANCH  17  18
ENDBRANCH  11  17
BRANCH  13  22
HETATM   22  S1  UNL     1      19.936  43.415  97.315  1.00  0.00     0.127 S 
HETATM   23  O6  UNL     1      18.868  43.041  98.374  1.00  0.00    -0.592 OA
HETATM   24  O7  UNL     1      21.009  44.061  98.135  1.00  0.00    -0.592 OA
HETATM   25  O8  UNL     1      19.126  44.460  96.296  1.00  0.00    -0.592 OA
ENDBRANCH  13  22
ENDBRANCH   3   5
BRANCH   1  26
HETATM   26  C2  UNL     1      18.859  37.713  98.040  1.00  0.00     0.177 A 
HETATM   27  N2  UNL     1      18.481  38.140  99.252  1.00  0.00    -0.322 N 
HETATM   28  C1  UNL     1      18.355  37.202 100.248  1.00  0.00     0.131 A 
ATOM     29  H2  UNL     1      18.294  39.127  99.429  1.00  0.00     0.169 HD
HETATM   30  N1  UNL     1      17.952  37.566 101.354  1.00  0.00    -0.383 N 
HETATM   31  C16 UNL     1      18.609  35.854 100.016  1.00  0.00     0.122 A 
ATOM     32  H12 UNL     1      17.766  38.554 101.524  1.00  0.00     0.157 HD
ATOM     33  H11 UNL     1      17.859  36.870 102.093  1.00  0.00     0.157 HD
HETATM   34  C15 UNL     1      18.993  35.475  98.752  1.00  0.00     0.141 A 
HETATM   35  N7  UNL     1      18.567  34.745 100.774  1.00  0.00    -0.346 N 
HETATM   36  N6  UNL     1      19.106  36.415  97.804  1.00  0.00    -0.322 N 
HETATM   37  N8  UNL     1      19.170  34.143  98.790  1.00  0.00    -0.319 N 
ATOM     38  H6  UNL     1      19.392  36.134  96.865  1.00  0.00     0.169 HD
HETATM   39  C17 UNL     1      18.911  33.676 100.032  1.00  0.00     0.185 A 
ATOM     40  H7  UNL     1      18.313  34.718 101.762  1.00  0.00     0.167 HD
BRANCH  37  41
HETATM   41  C18 UNL     1      19.583  33.260  97.714  1.00  0.00     0.230 C 
BRANCH  41  42
HETATM   42  C19 UNL     1      21.009  32.946  97.751  1.00  0.00     0.249 C 
HETATM   43  N9  UNL     1      21.860  33.374  98.798  1.00  0.00    -0.061 NA
HETATM   44  O9  UNL     1      21.526  32.267  96.823  1.00  0.00    -0.275 OA
ENDBRANCH  41  42
ENDBRANCH  37  41
ENDBRANCH   1  26
TORSDOF 9
ENDMDL
MODEL 4
REMARK VINA RESULT: -10.044933183      3.108      5.391
REMARK  9 active torsions:
REMARK  status: ('A' for Active; 'I' for Inactive)
REMARK    1  A    between atoms: C2_7  and  C3_8 
REMARK       I    between atoms: C3_8  and  N3_10 
REMARK    2  A    between atoms: N3_10  and  C4_12 
REMARK    3  A    between atoms: C7_16  and  C8_17 
REMARK    4  A    between atoms: C9_20  and  C10_21 
REMARK    5  A    between atoms: C10_21  and  O4_22 
REMARK    6  A    between atoms: O4_22  and  C11_23 
REMARK    7  A    between atoms: C13_27  and  S1_28 
REMARK    8  A    between atoms: N8_40  and  C18_41 
REMARK    9  A    between atoms: C18_41  and  C19_42 
ROOT
HETATM    1  C3  UNL     1      18.910  37.709  95.512  1.00  0.00     0.286 C 
HETATM    2  O1  UNL     1      18.016  38.037  94.690  1.00  0.00    -0.264 OA
HETATM    3  N3  UNL     1      20.146  38.415  95.507  1.00  0.00    -0.347 N 
ATOM      4  H3  UNL     1      20.877  38.144  96.165  1.00  0.00     0.163 HD
ENDROOT
BRANCH   3   5
HETATM    5  C4  UNL     1      20.390  39.509  94.590  1.00  0.00     0.113 C 
HETATM    6  C5  UNL     1      20.803  38.920  93.209  1.00  0.00     0.047 C 
HETATM    7  C6  UNL     1      21.794  39.899  92.666  1.00  0.00     0.126 C 
HETATM    8  N4  UNL     1      22.202  40.751  93.769  1.00  0.00    -0.364 N 
HETATM    9  C7  UNL     1      22.983  41.885  94.158  1.00  0.00     0.117 C 
HETATM   10  C14 UNL     1      21.572  40.286  94.979  1.00  0.00     0.142 C 
HETATM   11  C9  UNL     1      22.377  42.450  95.231  1.00  0.00     0.009 C 
HETATM   12  C12 UNL     1      21.234  41.653  95.622  1.00  0.00    -0.009 C 
HETATM   13  C13 UNL     1      20.186  41.823  96.344  1.00  0.00     0.143 C 
BRANCH   9  14
HETATM   14  C8  UNL     1      24.168  42.261  93.417  1.00  0.00     0.227 C 
HETATM   15  O2  UNL     1      24.266  43.422  92.888  1.00  0.00    -0.643 OA
HETATM   16  O3  UNL     1      25.246  41.444  93.226  1.00  0.00    -0.643 OA
ENDBRANCH   9  14
BRANCH  11  17
HETATM   17  C10 UNL     1      22.903  43.649  95.910  1.00  0.00     0.222 C 
BRANCH  17  18
HETATM   18  O4  UNL     1      22.288  44.835  95.514  1.00  0.00    -0.302 OA
BRANCH  18  19
HETATM   19  C11 UNL     1      22.994  46.039  95.638  1.00  0.00     0.372 C 
HETATM   20  N5  UNL     1      23.787  46.572  94.597  1.00  0.00    -0.032 NA
HETATM   21  O5  UNL     1      22.907  46.656  96.720  1.00  0.00    -0.242 OA
ENDBRANCH  18  19
ENDBRANCH  17  18
ENDBRANCH  11  17
BRANCH  13  22
HETATM   22  S1  UNL     1      19.511  43.086  97.284  1.00  0.00     0.127 S 
HETATM   23  O6  UNL     1      20.586  43.694  98.221  1.00  0.00    -0.592 OA
HETATM   24  O7  UNL     1      19.049  44.269  96.492  1.00  0.00    -0.592 OA
HETATM   25  O8  UNL     1      18.371  42.478  98.342  1.00  0.00    -0.592 OA
ENDBRANCH  13  22
ENDBRANCH   3   5
BRANCH   1  26
HETATM   26  C2  UNL     1      18.628  36.612  96.425  1.00  0.00     0.177 A 
HETATM   27  N2  UNL     1      18.754  35.343  96.015  1.00  0.00    -0.322 N 
HETATM   28  C1  UNL     1      18.411  34.350  96.901  1.00  0.00     0.131 A 
ATOM     29  H2  UNL     1      19.093  35.122  95.078  1.00  0.00     0.169 HD
HETATM   30  N1  UNL     1      18.576  33.176  96.564  1.00  0.00    -0.383 N 
HETATM   31  C16 UNL     1      17.948  34.642  98.180  1.00  0.00     0.122 A 
ATOM     32  H12 UNL     1      18.915  32.962  95.626  1.00  0.00     0.157 HD
ATOM     33  H11 UNL     1      18.321  32.439  97.221  1.00  0.00     0.157 HD
HETATM   34  C15 UNL     1      17.839  35.963  98.544  1.00  0.00     0.141 A 
HETATM   35  N7  UNL     1      17.552  33.900  99.229  1.00  0.00    -0.346 N 
HETATM   36  N6  UNL     1      18.182  36.906  97.656  1.00  0.00    -0.322 N 
HETATM   37  N8  UNL     1      17.381  35.974  99.807  1.00  0.00    -0.319 N 
ATOM     38  H6  UNL     1      18.101  37.887  97.926  1.00  0.00     0.169 HD
HETATM   39  C17 UNL     1      17.199  34.708 100.246  1.00  0.00     0.185 A 
ATOM     40  H7  UNL     1      17.525  32.881  99.250  1.00  0.00     0.167 HD
BRANCH  37  41
HETATM   41  C18 UNL     1      17.089  37.122 100.648  1.00  0.00     0.230 C 
BRANCH  41  42
HETATM   42  C19 UNL     1      18.278  37.900 100.981  1.00  0.00     0.249 C 
HETATM   43  N9  UNL     1      18.707  39.010 100.214  1.00  0.00    -0.061 NA
HETATM   44  O9  UNL     1      18.968  37.591 101.990  1.00  0.00    -0.275 OA
ENDBRANCH  41  42
ENDBRANCH  37  41
ENDBRANCH   1  26
TORSDOF 9
ENDMDL
MODEL 5
REMARK VINA RESULT: -9.930302289      3.920      9.783
REMARK  9 active torsions:
REMARK  status: ('A' for Active; 'I' for Inactive)
REMARK    1  A    between atoms: C2_7  and  C3_8 
REMARK       I    between atoms: C3_8  and  N3_10 
REMARK    2  A    between atoms: N3_10  and  C4_12 
REMARK    3  A    between atoms: C7_16  and  C8_17 
REMARK    4  A    between atoms: C9_20  and  C10_21 
REMARK    5  A    between atoms: C10_21  and  O4_22 
REMARK    6  A    between atoms: O4_22  and  C11_23 
REMARK    7  A    between atoms: C13_27  and  S1_28 
REMARK    8  A    between atoms: N8_40  and  C18_41 
REMARK    9  A    between atoms: C18_41  and  C19_42 
ROOT
HETATM    1  C3  UNL     1      20.981  40.862  94.355  1.00  0.00     0.286 C 
HETATM    2  O1  UNL     1      19.951  40.875  93.634  1.00  0.00    -0.264 OA
HETATM    3  N3  UNL     1      20.887  40.365  95.685  1.00  0.00    -0.347 N 
ATOM      4  H3  UNL     1      21.718  40.363  96.277  1.00  0.00     0.163 HD
ENDROOT
BRANCH   3   5
HETATM    5  C4  UNL     1      19.639  39.861  96.220  1.00  0.00     0.113 C 
HETATM    6  C5  UNL     1      19.206  40.763  97.413  1.00  0.00     0.047 C 
HETATM    7  C6  UNL     1      18.543  39.825  98.370  1.00  0.00     0.126 C 
HETATM    8  N4  UNL     1      18.895  38.477  97.960  1.00  0.00    -0.364 N 
HETATM    9  C7  UNL     1      18.703  37.081  98.206  1.00  0.00     0.117 C 
HETATM   10  C14 UNL     1      19.811  38.548  96.850  1.00  0.00     0.142 C 
HETATM   11  C9  UNL     1      18.873  36.431  97.030  1.00  0.00     0.009 C 
HETATM   12  C12 UNL     1      19.263  37.374  96.003  1.00  0.00    -0.009 C 
HETATM   13  C13 UNL     1      19.294  37.390  94.719  1.00  0.00     0.143 C 
BRANCH   9  14
HETATM   14  C8  UNL     1      18.356  36.599  99.527  1.00  0.00     0.227 C 
HETATM   15  O2  UNL     1      17.133  36.519  99.891  1.00  0.00    -0.643 OA
HETATM   16  O3  UNL     1      19.268  36.201 100.464  1.00  0.00    -0.643 OA
ENDBRANCH   9  14
BRANCH  11  17
HETATM   17  C10 UNL     1      18.751  34.967  96.896  1.00  0.00     0.222 C 
BRANCH  17  18
HETATM   18  O4  UNL     1      19.964  34.290  97.002  1.00  0.00    -0.302 OA
BRANCH  18  19
HETATM   19  C11 UNL     1      20.246  33.584  98.179  1.00  0.00     0.372 C 
HETATM   20  N5  UNL     1      21.560  33.239  98.570  1.00  0.00    -0.032 NA
HETATM   21  O5  UNL     1      19.285  33.254  98.905  1.00  0.00    -0.242 OA
ENDBRANCH  18  19
ENDBRANCH  17  18
ENDBRANCH  11  17
BRANCH  13  22
HETATM   22  S1  UNL     1      18.902  36.311  93.449  1.00  0.00     0.127 S 
HETATM   23  O6  UNL     1      19.920  35.143  93.400  1.00  0.00    -0.592 OA
HETATM   24  O7  UNL     1      17.592  35.605  93.618  1.00  0.00    -0.592 OA
HETATM   25  O8  UNL     1      19.095  37.059  91.969  1.00  0.00    -0.592 OA
ENDBRANCH  13  22
ENDBRANCH   3   5
BRANCH   1  26
HETATM   26  C2  UNL     1      22.221  41.367  93.784  1.00  0.00     0.177 A 
HETATM   27  N2  UNL     1      22.732  40.809  92.679  1.00  0.00    -0.322 N 
HETATM   28  C1  UNL     1      23.937  41.285  92.223  1.00  0.00     0.131 A 
ATOM     29  H2  UNL     1      22.242  40.057  92.192  1.00  0.00     0.169 HD
HETATM   30  N1  UNL     1      24.395  40.826  91.176  1.00  0.00    -0.383 N 
HETATM   31  C16 UNL     1      24.611  42.310  92.881  1.00  0.00     0.122 A 
ATOM     32  H12 UNL     1      23.901  40.075  90.694  1.00  0.00     0.157 HD
ATOM     33  H11 UNL     1      25.290  41.179  90.838  1.00  0.00     0.157 HD
HETATM   34  C15 UNL     1      24.038  42.843  94.010  1.00  0.00     0.141 A 
HETATM   35  N7  UNL     1      25.769  42.959  92.670  1.00  0.00    -0.346 N 
HETATM   36  N6  UNL     1      22.861  42.356  94.427  1.00  0.00    -0.322 N 
HETATM   37  N8  UNL     1      24.873  43.803  94.444  1.00  0.00    -0.319 N 
ATOM     38  H6  UNL     1      22.436  42.752  95.265  1.00  0.00     0.169 HD
HETATM   39  C17 UNL     1      25.947  43.888  93.628  1.00  0.00     0.185 A 
ATOM     40  H7  UNL     1      26.415  42.776  91.901  1.00  0.00     0.167 HD
BRANCH  37  41
HETATM   41  C18 UNL     1      24.729  44.661  95.608  1.00  0.00     0.230 C 
BRANCH  41  42
HETATM   42  C19 UNL     1      23.599  45.579  95.501  1.00  0.00     0.249 C 
HETATM   43  N9  UNL     1      22.294  45.244  95.937  1.00  0.00    -0.061 NA
HETATM   44  O9  UNL     1      23.767  46.725  95.003  1.00  0.00    -0.275 OA
ENDBRANCH  41  42
ENDBRANCH  37  41
ENDBRANCH   1  26
TORSDOF 9
ENDMDL
