MODEL 1
REMARK VINA RESULT: -9.693306617      0.000      0.000
REMARK  11 active torsions:
REMARK  status: ('A' for Active; 'I' for Inactive)
REMARK    1  A    between atoms: N1_1  and  C1_4 
REMARK    2  A    between atoms: C2_7  and  C3_8 
REMARK    3  A    between atoms: C4_9  and  C5_10 
REMARK    4  A    between atoms: C6_13  and  O2_14 
REMARK    5  A    between atoms: C7_17  and  C8_18 
REMARK    6  A    between atoms: C8_18  and  S1_19 
REMARK    7  A    between atoms: S1_19  and  C9_20 
REMARK    8  A    between atoms: C11_22  and  C12_23 
REMARK    9  A    between atoms: C12_23  and  S2_24 
REMARK   10  A    between atoms: S2_24  and  N4_25 
REMARK   11  A    between atoms: C13_30  and  N5_31 
ROOT
HETATM    1  C8  UNL     1      20.513  41.744  96.280  1.00  0.00     0.128 C 
ENDROOT
BRANCH   1   2
HETATM    2  C7  UNL     1      21.983  42.089  96.411  1.00  0.00     0.233 C 
HETATM    3  O3  UNL     1      22.222  43.392  96.770  1.00  0.00    -0.332 OA
HETATM    4  C6  UNL     1      22.235  44.280  95.728  1.00  0.00     0.301 C 
HETATM    5  C4  UNL     1      23.237  43.881  94.647  1.00  0.00     0.090 C 
HETATM    6  C3  UNL     1      23.415  42.619  94.426  1.00  0.00     0.074 C 
HETATM    7  N7  UNL     1      22.663  41.676  95.223  1.00  0.00    -0.360 N 
ATOM      8  H7  UNL     1      22.618  40.699  94.933  1.00  0.00     0.162 HD
BRANCH   4   9
HETATM    9  O2  UNL     1      21.008  44.500  95.131  1.00  0.00    -0.367 OA
ATOM     10  H2  UNL     1      20.647  45.311  95.470  1.00  0.00     0.213 HD
ENDBRANCH   4   9
BRANCH   5  11
HETATM   11  C5  UNL     1      23.927  44.903  93.929  1.00  0.00     0.268 C 
HETATM   12  N3  UNL     1      23.611  46.273  94.272  1.00  0.00    -0.057 NA
HETATM   13  O1  UNL     1      24.772  44.781  93.042  1.00  0.00    -0.271 OA
ENDBRANCH   5  11
BRANCH   6  14
HETATM   14  C2  UNL     1      24.309  42.020  93.438  1.00  0.00     0.068 A 
HETATM   15  N2  UNL     1      25.562  41.723  93.718  1.00  0.00    -0.335 N 
HETATM   16  C1  UNL     1      26.294  41.108  92.794  1.00  0.00     0.142 A 
ATOM     17  H2  UNL     1      25.961  41.960  94.626  1.00  0.00     0.168 HD
HETATM   18  S3  UNL     1      25.218  40.934  91.489  1.00  0.00    -0.064 SA
HETATM   19  C19 UNL     1      23.852  41.666  92.194  1.00  0.00     0.085 A 
BRANCH  16  20
HETATM   20  N1  UNL     1      27.548  40.725  92.865  1.00  0.00    -0.380 N 
ATOM     21  H12 UNL     1      28.045  40.349  93.672  1.00  0.00     0.158 HD
ATOM     22  H11 UNL     1      28.257  40.732  92.132  1.00  0.00     0.158 HD
ENDBRANCH  16  20
ENDBRANCH   6  14
ENDBRANCH   1   2
BRANCH   1  23
HETATM   23  S1  UNL     1      20.169  40.346  97.382  1.00  0.00    -0.156 SA
BRANCH  23  24
HETATM   24  C9  UNL     1      18.525  40.621  98.123  1.00  0.00     0.072 C 
HETATM   25  C10 UNL     1      18.400  39.898  99.416  1.00  0.00    -0.006 C 
HETATM   26  C11 UNL     1      17.894  40.687 100.355  1.00  0.00    -0.044 C 
HETATM   27  C13 UNL     1      17.622  42.040  99.773  1.00  0.00     0.125 C 
HETATM   28  C18 UNL     1      18.451  42.080  98.511  1.00  0.00     0.049 C 
BRANCH  26  29
HETATM   29  C12 UNL     1      17.603  40.376 101.779  1.00  0.00     0.199 C 
BRANCH  29  30
HETATM   30  S2  UNL     1      19.055  39.700 102.551  1.00  0.00     0.228 S 
HETATM   31  O4  UNL     1      19.316  38.307 102.086  1.00  0.00    -0.206 OA
HETATM   32  O5  UNL     1      18.817  39.703 104.046  1.00  0.00    -0.206 OA
BRANCH  30  33
HETATM   33  N4  UNL     1      20.450  40.655 102.201  1.00  0.00    -0.328 N 
ATOM     34  H42 UNL     1      20.765  40.867 101.254  1.00  0.00     0.168 HD
ATOM     35  H41 UNL     1      20.907  40.970 103.057  1.00  0.00     0.168 HD
ENDBRANCH  30  33
ENDBRANCH  29  30
ENDBRANCH  26  29
BRANCH  27  36
HETATM   36  N5  UNL     1      18.028  43.091 100.655  1.00  0.00    -0.301 N 
HETATM   37  C14 UNL     1      19.307  43.477 100.700  1.00  0.00     0.102 A 
HETATM   38  C15 UNL     1      19.692  44.485 101.547  1.00  0.00     0.092 A 
HETATM   39  C16 UNL     1      18.767  45.094 102.344  1.00  0.00     0.250 A 
HETATM   40  O6  UNL     1      19.124  46.014 103.116  1.00  0.00    -0.268 OA
HETATM   41  N6  UNL     1      17.494  44.685 102.275  1.00  0.00    -0.275 N 
HETATM   42  C17 UNL     1      17.128  43.693 101.440  1.00  0.00     0.329 A 
ATOM     43  H6  UNL     1      16.792  45.130 102.865  1.00  0.00     0.173 HD
HETATM   44  O7  UNL     1      15.907  43.372 101.441  1.00  0.00    -0.246 OA
ENDBRANCH  27  36
ENDBRANCH  23  24
ENDBRANCH   1  23
TORSDOF 11
ENDMDL
MODEL 2
REMARK VINA RESULT: -9.552205106      6.133      8.241
REMARK  11 active torsions:
REMARK  status: ('A' for Active; 'I' for Inactive)
REMARK    1  A    between atoms: N1_1  and  C1_4 
REMARK    2  A    between atoms: C2_7  and  C3_8 
REMARK    3  A    between atoms: C4_9  and  C5_10 
REMARK    4  A    between atoms: C6_13  and  O2_14 
REMARK    5  A    between atoms: C7_17  and  C8_18 
REMARK    6  A    between atoms: C8_18  and  S1_19 
REMARK    7  A    between atoms: S1_19  and  C9_20 
REMARK    8  A    between atoms: C11_22  and  C12_23 
REMARK    9  A    between atoms: C12_23  and  S2_24 
REMARK   10  A    between atoms: S2_24  and  N4_25 
REMARK   11  A    between atoms: C13_30  and  N5_31 
ROOT
HETATM    1  C8  UNL     1      16.330  35.218 100.424  1.00  0.00     0.128 C 
ENDROOT
BRANCH   1   2
HETATM    2  C7  UNL     1      16.685  34.317  99.257  1.00  0.00     0.233 C 
HETATM    3  O3  UNL     1      17.376  33.187  99.612  1.00  0.00    -0.332 OA
HETATM    4  C6  UNL     1      18.729  33.356  99.730  1.00  0.00     0.301 C 
HETATM    5  C4  UNL     1      19.348  33.925  98.456  1.00  0.00     0.090 C 
HETATM    6  C3  UNL     1      18.646  34.766  97.768  1.00  0.00     0.074 C 
HETATM    7  N7  UNL     1      17.324  35.099  98.246  1.00  0.00    -0.360 N 
ATOM      8  H7  UNL     1      16.838  35.907  97.854  1.00  0.00     0.162 HD
BRANCH   4   9
HETATM    9  O2  UNL     1      19.131  34.134 100.800  1.00  0.00    -0.367 OA
ATOM     10  H2  UNL     1      19.064  33.616 101.593  1.00  0.00     0.213 HD
ENDBRANCH   4   9
BRANCH   5  11
HETATM   11  C5  UNL     1      20.662  33.514  98.079  1.00  0.00     0.268 C 
HETATM   12  N3  UNL     1      20.785  32.751  96.856  1.00  0.00    -0.057 NA
HETATM   13  O1  UNL     1      21.728  33.723  98.659  1.00  0.00    -0.271 OA
ENDBRANCH   5  11
BRANCH   6  14
HETATM   14  C2  UNL     1      19.046  35.436  96.533  1.00  0.00     0.068 A 
HETATM   15  N2  UNL     1      19.077  34.808  95.375  1.00  0.00    -0.335 N 
HETATM   16  C1  UNL     1      19.375  35.502  94.280  1.00  0.00     0.142 A 
ATOM     17  H2  UNL     1      18.876  33.809  95.320  1.00  0.00     0.168 HD
HETATM   18  S3  UNL     1      19.623  37.077  94.867  1.00  0.00    -0.064 SA
HETATM   19  C19 UNL     1      19.329  36.778  96.516  1.00  0.00     0.085 A 
BRANCH  16  20
HETATM   20  N1  UNL     1      19.459  35.077  93.040  1.00  0.00    -0.380 N 
ATOM     21  H12 UNL     1      20.258  35.137  92.408  1.00  0.00     0.158 HD
ATOM     22  H11 UNL     1      18.748  34.610  92.479  1.00  0.00     0.158 HD
ENDBRANCH  16  20
ENDBRANCH   6  14
ENDBRANCH   1   2
BRANCH   1  23
HETATM   23  S1  UNL     1      15.403  36.634  99.773  1.00  0.00    -0.156 SA
BRANCH  23  24
HETATM   24  C9  UNL     1      16.498  38.091  99.850  1.00  0.00     0.072 C 
HETATM   25  C10 UNL     1      15.888  39.167 100.675  1.00  0.00    -0.006 C 
HETATM   26  C11 UNL     1      16.766  39.658 101.540  1.00  0.00    -0.044 C 
HETATM   27  C13 UNL     1      18.075  38.950 101.376  1.00  0.00     0.125 C 
HETATM   28  C18 UNL     1      17.726  37.683 100.632  1.00  0.00     0.049 C 
BRANCH  26  29
HETATM   29  C12 UNL     1      16.581  40.737 102.547  1.00  0.00     0.199 C 
BRANCH  29  30
HETATM   30  S2  UNL     1      17.113  42.289 101.863  1.00  0.00     0.228 S 
HETATM   31  O4  UNL     1      15.987  43.265 101.798  1.00  0.00    -0.206 OA
HETATM   32  O5  UNL     1      17.632  42.016 100.468  1.00  0.00    -0.206 OA
BRANCH  30  33
HETATM   33  N4  UNL     1      18.376  42.989 102.809  1.00  0.00    -0.328 N 
ATOM     34  H42 UNL     1      18.213  43.515 103.668  1.00  0.00     0.168 HD
ATOM     35  H41 UNL     1      19.291  42.806 102.397  1.00  0.00     0.168 HD
ENDBRANCH  30  33
ENDBRANCH  29  30
ENDBRANCH  26  29
BRANCH  27  36
HETATM   36  N5  UNL     1      18.668  38.626 102.637  1.00  0.00    -0.301 N 
HETATM   37  C14 UNL     1      18.206  37.598 103.355  1.00  0.00     0.102 A 
HETATM   38  C15 UNL     1      18.777  37.291 104.564  1.00  0.00     0.092 A 
HETATM   39  C16 UNL     1      19.819  38.037 105.032  1.00  0.00     0.250 A 
HETATM   40  O6  UNL     1      20.337  37.753 106.137  1.00  0.00    -0.268 OA
HETATM   41  N6  UNL     1      20.259  39.060 104.289  1.00  0.00    -0.275 N 
HETATM   42  C17 UNL     1      19.689  39.353 103.104  1.00  0.00     0.329 A 
ATOM     43  H6  UNL     1      21.037  39.627 104.626  1.00  0.00     0.173 HD
HETATM   44  O7  UNL     1      20.169  40.334 102.471  1.00  0.00    -0.246 OA
ENDBRANCH  27  36
ENDBRANCH  23  24
ENDBRANCH   1  23
TORSDOF 11
ENDMDL
MODEL 3
REMARK VINA RESULT: -9.502892636      3.180      5.392
REMARK  11 active torsions:
REMARK  status: ('A' for Active; 'I' for Inactive)
REMARK    1  A    between atoms: N1_1  and  C1_4 
REMARK    2  A    between atoms: C2_7  and  C3_8 
REMARK    3  A    between atoms: C4_9  and  C5_10 
REMARK    4  A    between atoms: C6_13  and  O2_14 
REMARK    5  A    between atoms: C7_17  and  C8_18 
REMARK    6  A    between atoms: C8_18  and  S1_19 
REMARK    7  A    between atoms: S1_19  and  C9_20 
REMARK    8  A    between atoms: C11_22  and  C12_23 
REMARK    9  A    between atoms: C12_23  and  S2_24 
REMARK   10  A    between atoms: S2_24  and  N4_25 
REMARK   11  A    between atoms: C13_30  and  N5_31 
ROOT
HETATM    1  C8  UNL     1      19.216  43.189 100.271  1.00  0.00     0.128 C 
ENDROOT
BRANCH   1   2
HETATM    2  C7  UNL     1      19.215  43.736  98.857  1.00  0.00     0.233 C 
HETATM    3  O3  UNL     1      18.514  42.970  97.961  1.00  0.00    -0.332 OA
HETATM    4  C6  UNL     1      19.222  41.928  97.423  1.00  0.00     0.301 C 
HETATM    5  C4  UNL     1      20.514  42.396  96.758  1.00  0.00     0.090 C 
HETATM    6  C3  UNL     1      21.137  43.398  97.290  1.00  0.00     0.074 C 
HETATM    7  N7  UNL     1      20.562  44.010  98.466  1.00  0.00    -0.360 N 
ATOM      8  H7  UNL     1      21.127  44.649  99.025  1.00  0.00     0.162 HD
BRANCH   4   9
HETATM    9  O2  UNL     1      19.525  40.908  98.306  1.00  0.00    -0.367 OA
ATOM     10  H2  UNL     1      18.773  40.330  98.370  1.00  0.00     0.213 HD
ENDBRANCH   4   9
BRANCH   5  11
HETATM   11  C5  UNL     1      20.981  41.717  95.594  1.00  0.00     0.268 C 
HETATM   12  N3  UNL     1      21.689  40.471  95.800  1.00  0.00    -0.057 NA
HETATM   13  O1  UNL     1      20.863  42.046  94.413  1.00  0.00    -0.271 OA
ENDBRANCH   5  11
BRANCH   6  14
HETATM   14  C2  UNL     1      22.387  43.996  96.828  1.00  0.00     0.068 A 
HETATM   15  N2  UNL     1      23.215  43.355  96.029  1.00  0.00    -0.335 N 
HETATM   16  C1  UNL     1      24.296  43.991  95.587  1.00  0.00     0.142 A 
ATOM     17  H2  UNL     1      23.031  42.389  95.755  1.00  0.00     0.168 HD
HETATM   18  S3  UNL     1      24.168  45.530  96.298  1.00  0.00    -0.064 SA
HETATM   19  C19 UNL     1      22.711  45.290  97.146  1.00  0.00     0.085 A 
BRANCH  16  20
HETATM   20  N1  UNL     1      25.240  43.544  94.791  1.00  0.00    -0.380 N 
ATOM     21  H12 UNL     1      25.444  42.577  94.539  1.00  0.00     0.158 HD
ATOM     22  H11 UNL     1      25.943  44.076  94.277  1.00  0.00     0.158 HD
ENDBRANCH  16  20
ENDBRANCH   6  14
ENDBRANCH   1   2
BRANCH   1  23
HETATM   23  S1  UNL     1      18.193  44.282 101.293  1.00  0.00    -0.156 SA
BRANCH  23  24
HETATM   24  C9  UNL     1      17.403  43.255 102.577  1.00  0.00     0.072 C 
HETATM   25  C10 UNL     1      16.124  42.680 102.081  1.00  0.00    -0.006 C 
HETATM   26  C11 UNL     1      16.048  41.384 102.355  1.00  0.00    -0.044 C 
HETATM   27  C13 UNL     1      17.288  40.955 103.077  1.00  0.00     0.125 C 
HETATM   28  C18 UNL     1      18.288  42.048 102.788  1.00  0.00     0.049 C 
BRANCH  26  29
HETATM   29  C12 UNL     1      14.954  40.427 102.042  1.00  0.00     0.199 C 
BRANCH  29  30
HETATM   30  S2  UNL     1      13.470  40.919 102.887  1.00  0.00     0.228 S 
HETATM   31  O4  UNL     1      12.754  41.995 102.142  1.00  0.00    -0.206 OA
HETATM   32  O5  UNL     1      13.874  41.428 104.254  1.00  0.00    -0.206 OA
BRANCH  30  33
HETATM   33  N4  UNL     1      12.388  39.587 103.079  1.00  0.00    -0.328 N 
ATOM     34  H42 UNL     1      12.500  38.696 102.593  1.00  0.00     0.168 HD
ATOM     35  H41 UNL     1      11.638  39.811 103.731  1.00  0.00     0.168 HD
ENDBRANCH  30  33
ENDBRANCH  29  30
ENDBRANCH  26  29
BRANCH  27  36
HETATM   36  N5  UNL     1      17.780  39.703 102.592  1.00  0.00    -0.301 N 
HETATM   37  C14 UNL     1      17.887  39.483 101.279  1.00  0.00     0.102 A 
HETATM   38  C15 UNL     1      18.360  38.282 100.817  1.00  0.00     0.092 A 
HETATM   39  C16 UNL     1      18.723  37.309 101.703  1.00  0.00     0.250 A 
HETATM   40  O6  UNL     1      19.155  36.213 101.277  1.00  0.00    -0.268 OA
HETATM   41  N6  UNL     1      18.605  37.560 103.013  1.00  0.00    -0.275 N 
HETATM   42  C17 UNL     1      18.138  38.744 103.454  1.00  0.00     0.329 A 
ATOM     43  H6  UNL     1      18.872  36.843 103.687  1.00  0.00     0.173 HD
HETATM   44  O7  UNL     1      18.060  38.893 104.705  1.00  0.00    -0.246 OA
ENDBRANCH  27  36
ENDBRANCH  23  24
ENDBRANCH   1  23
TORSDOF 11
ENDMDL
MODEL 4
REMARK VINA RESULT: -9.472563631      4.607      6.705
REMARK  11 active torsions:
REMARK  status: ('A' for Active; 'I' for Inactive)
REMARK    1  A    between atoms: N1_1  and  C1_4 
REMARK    2  A    between atoms: C2_7  and  C3_8 
REMARK    3  A    between atoms: C4_9  and  C5_10 
REMARK    4  A    between atoms: C6_13  and  O2_14 
REMARK    5  A    between atoms: C7_17  and  C8_18 
REMARK    6  A    between atoms: C8_18  and  S1_19 
REMARK    7  A    between atoms: S1_19  and  C9_20 
REMARK    8  A    between atoms: C11_22  and  C12_23 
REMARK    9  A    between atoms: C12_23  and  S2_24 
REMARK   10  A    between atoms: S2_24  and  N4_25 
REMARK   11  A    between atoms: C13_30  and  N5_31 
ROOT
HETATM    1  C8  UNL     1      20.157  41.644  95.516  1.00  0.00     0.128 C 
ENDROOT
BRANCH   1   2
HETATM    2  C7  UNL     1      21.618  41.725  95.912  1.00  0.00     0.233 C 
HETATM    3  O3  UNL     1      21.950  42.866  96.597  1.00  0.00    -0.332 OA
HETATM    4  C6  UNL     1      22.236  43.946  95.805  1.00  0.00     0.301 C 
HETATM    5  C4  UNL     1      23.342  43.643  94.798  1.00  0.00     0.090 C 
HETATM    6  C3  UNL     1      23.401  42.447  94.310  1.00  0.00     0.074 C 
HETATM    7  N7  UNL     1      22.425  41.480  94.758  1.00  0.00    -0.360 N 
ATOM      8  H7  UNL     1      22.310  40.607  94.241  1.00  0.00     0.162 HD
BRANCH   4   9
HETATM    9  O2  UNL     1      21.154  44.476  95.125  1.00  0.00    -0.367 OA
ATOM     10  H2  UNL     1      20.607  44.944  95.745  1.00  0.00     0.213 HD
ENDBRANCH   4   9
BRANCH   5  11
HETATM   11  C5  UNL     1      24.255  44.678  94.437  1.00  0.00     0.268 C 
HETATM   12  N3  UNL     1      23.692  45.983  94.163  1.00  0.00    -0.057 NA
HETATM   13  O1  UNL     1      25.480  44.618  94.325  1.00  0.00    -0.271 OA
ENDBRANCH   5  11
BRANCH   6  14
HETATM   14  C2  UNL     1      24.363  41.947  93.331  1.00  0.00     0.068 A 
HETATM   15  N2  UNL     1      25.535  41.462  93.687  1.00  0.00    -0.335 N 
HETATM   16  C1  UNL     1      26.328  40.953  92.748  1.00  0.00     0.142 A 
ATOM     17  H2  UNL     1      25.828  41.477  94.664  1.00  0.00     0.168 HD
HETATM   18  S3  UNL     1      25.427  41.151  91.321  1.00  0.00    -0.064 SA
HETATM   19  C19 UNL     1      24.049  41.889  91.997  1.00  0.00     0.085 A 
BRANCH  16  20
HETATM   20  N1  UNL     1      27.522  40.424  92.885  1.00  0.00    -0.380 N 
ATOM     21  H12 UNL     1      28.013  40.194  93.749  1.00  0.00     0.158 HD
ATOM     22  H11 UNL     1      28.179  40.143  92.157  1.00  0.00     0.158 HD
ENDBRANCH  16  20
ENDBRANCH   6  14
ENDBRANCH   1   2
BRANCH   1  23
HETATM   23  S1  UNL     1      19.303  40.617  96.741  1.00  0.00    -0.156 SA
BRANCH  23  24
HETATM   24  C9  UNL     1      19.998  38.934  96.627  1.00  0.00     0.072 C 
HETATM   25  C10 UNL     1      19.213  37.981  97.455  1.00  0.00    -0.006 C 
HETATM   26  C11 UNL     1      18.936  36.876  96.774  1.00  0.00    -0.044 C 
HETATM   27  C13 UNL     1      19.522  36.980  95.399  1.00  0.00     0.125 C 
HETATM   28  C18 UNL     1      19.777  38.457  95.210  1.00  0.00     0.049 C 
BRANCH  26  29
HETATM   29  C12 UNL     1      18.179  35.673  97.212  1.00  0.00     0.199 C 
BRANCH  29  30
HETATM   30  S2  UNL     1      19.315  34.419  97.757  1.00  0.00     0.228 S 
HETATM   31  O4  UNL     1      18.632  33.406  98.613  1.00  0.00    -0.206 OA
HETATM   32  O5  UNL     1      20.403  35.107  98.552  1.00  0.00    -0.206 OA
BRANCH  30  33
HETATM   33  N4  UNL     1      20.029  33.598  96.417  1.00  0.00    -0.328 N 
ATOM     34  H42 UNL     1      20.893  33.899  95.966  1.00  0.00     0.168 HD
ATOM     35  H41 UNL     1      19.475  32.786  96.145  1.00  0.00     0.168 HD
ENDBRANCH  30  33
ENDBRANCH  29  30
ENDBRANCH  26  29
BRANCH  27  36
HETATM   36  N5  UNL     1      18.616  36.510  94.397  1.00  0.00    -0.301 N 
HETATM   37  C14 UNL     1      17.415  37.077  94.255  1.00  0.00     0.102 A 
HETATM   38  C15 UNL     1      16.548  36.625  93.293  1.00  0.00     0.092 A 
HETATM   39  C16 UNL     1      16.916  35.593  92.479  1.00  0.00     0.250 A 
HETATM   40  O6  UNL     1      16.122  35.182  91.601  1.00  0.00    -0.268 OA
HETATM   41  N6  UNL     1      18.126  35.046  92.646  1.00  0.00    -0.275 N 
HETATM   42  C17 UNL     1      18.968  35.499  93.595  1.00  0.00     0.329 A 
ATOM     43  H6  UNL     1      18.416  34.274  92.045  1.00  0.00     0.173 HD
HETATM   44  O7  UNL     1      20.089  34.924  93.681  1.00  0.00    -0.246 OA
ENDBRANCH  27  36
ENDBRANCH  23  24
ENDBRANCH   1  23
TORSDOF 11
ENDMDL
MODEL 5
REMARK VINA RESULT: -9.456036955      4.492      7.741
REMARK  11 active torsions:
REMARK  status: ('A' for Active; 'I' for Inactive)
REMARK    1  A    between atoms: N1_1  and  C1_4 
REMARK    2  A    between atoms: C2_7  and  C3_8 
REMARK    3  A    between atoms: C4_9  and  C5_10 
REMARK    4  A    between atoms: C6_13  and  O2_14 
REMARK    5  A    between atoms: C7_17  and  C8_18 
REMARK    6  A    between atoms: C8_18  and  S1_19 
REMARK    7  A    between atoms: S1_19  and  C9_20 
REMARK    8  A    between atoms: C11_22  and  C12_23 
REMARK    9  A    between atoms: C12_23  and  S2_24 
REMARK   10  A    between atoms: S2_24  and  N4_25 
REMARK   11  A    between atoms: C13_30  and  N5_31 
ROOT
HETATM    1  C8  UNL     1      17.265  36.980 100.740  1.00  0.00     0.128 C 
ENDROOT
BRANCH   1   2
HETATM    2  C7  UNL     1      16.982  35.828  99.796  1.00  0.00     0.233 C 
HETATM    3  O3  UNL     1      17.408  34.608 100.257  1.00  0.00    -0.332 OA
HETATM    4  C6  UNL     1      18.723  34.328 100.003  1.00  0.00     0.301 C 
HETATM    5  C4  UNL     1      19.055  34.428  98.516  1.00  0.00     0.090 C 
HETATM    6  C3  UNL     1      18.437  35.327  97.821  1.00  0.00     0.074 C 
HETATM    7  N7  UNL     1      17.470  36.164  98.495  1.00  0.00    -0.360 N 
ATOM      8  H7  UNL     1      17.131  37.009  98.035  1.00  0.00     0.162 HD
BRANCH   4   9
HETATM    9  O2  UNL     1      19.633  35.094 100.710  1.00  0.00    -0.367 OA
ATOM     10  H2  UNL     1      20.174  34.515 101.233  1.00  0.00     0.213 HD
ENDBRANCH   4   9
BRANCH   5  11
HETATM   11  C5  UNL     1      20.023  33.541  97.959  1.00  0.00     0.268 C 
HETATM   12  N3  UNL     1      21.328  33.518  98.583  1.00  0.00    -0.057 NA
HETATM   13  O1  UNL     1      19.902  32.774  97.003  1.00  0.00    -0.271 OA
ENDBRANCH   5  11
BRANCH   6  14
HETATM   14  C2  UNL     1      18.608  35.603  96.397  1.00  0.00     0.068 A 
HETATM   15  N2  UNL     1      18.052  34.852  95.467  1.00  0.00    -0.335 N 
HETATM   16  C1  UNL     1      18.186  35.209  94.193  1.00  0.00     0.142 A 
ATOM     17  H2  UNL     1      17.528  34.014  95.721  1.00  0.00     0.168 HD
HETATM   18  S3  UNL     1      19.114  36.630  94.277  1.00  0.00    -0.064 SA
HETATM   19  C19 UNL     1      19.293  36.711  95.968  1.00  0.00     0.085 A 
BRANCH  16  20
HETATM   20  N1  UNL     1      17.717  34.610  93.123  1.00  0.00    -0.380 N 
ATOM     21  H12 UNL     1      17.146  35.010  92.378  1.00  0.00     0.158 HD
ATOM     22  H11 UNL     1      17.836  33.639  92.834  1.00  0.00     0.158 HD
ENDBRANCH  16  20
ENDBRANCH   6  14
ENDBRANCH   1   2
BRANCH   1  23
HETATM   23  S1  UNL     1      16.776  38.515  99.908  1.00  0.00    -0.156 SA
BRANCH  23  24
HETATM   24  C9  UNL     1      18.278  39.527  99.693  1.00  0.00     0.072 C 
HETATM   25  C10 UNL     1      18.114  40.483  98.566  1.00  0.00    -0.006 C 
HETATM   26  C11 UNL     1      18.504  41.701  98.916  1.00  0.00    -0.044 C 
HETATM   27  C13 UNL     1      18.980  41.682 100.336  1.00  0.00     0.125 C 
HETATM   28  C18 UNL     1      18.395  40.414 100.911  1.00  0.00     0.049 C 
BRANCH  26  29
HETATM   29  C12 UNL     1      18.511  42.948  98.106  1.00  0.00     0.199 C 
BRANCH  29  30
HETATM   30  S2  UNL     1      20.022  43.046  97.174  1.00  0.00     0.228 S 
HETATM   31  O4  UNL     1      19.867  43.932  95.984  1.00  0.00    -0.206 OA
HETATM   32  O5  UNL     1      20.369  41.644  96.724  1.00  0.00    -0.206 OA
BRANCH  30  33
HETATM   33  N4  UNL     1      21.313  43.665  98.140  1.00  0.00    -0.328 N 
ATOM     34  H42 UNL     1      21.394  43.501  99.144  1.00  0.00     0.168 HD
ATOM     35  H41 UNL     1      21.968  44.206  97.577  1.00  0.00     0.168 HD
ENDBRANCH  30  33
ENDBRANCH  29  30
ENDBRANCH  26  29
BRANCH  27  36
HETATM   36  N5  UNL     1      18.507  42.814 101.072  1.00  0.00    -0.301 N 
HETATM   37  C14 UNL     1      17.264  42.827 101.563  1.00  0.00     0.102 A 
HETATM   38  C15 UNL     1      16.813  43.913 102.268  1.00  0.00     0.092 A 
HETATM   39  C16 UNL     1      17.638  44.982 102.469  1.00  0.00     0.250 A 
HETATM   40  O6  UNL     1      17.222  45.973 103.114  1.00  0.00    -0.268 OA
HETATM   41  N6  UNL     1      18.877  44.939 101.965  1.00  0.00    -0.275 N 
HETATM   42  C17 UNL     1      19.308  43.866 101.273  1.00  0.00     0.329 A 
ATOM     43  H6  UNL     1      19.504  45.730 102.107  1.00  0.00     0.173 HD
HETATM   44  O7  UNL     1      20.490  43.911 100.834  1.00  0.00    -0.246 OA
ENDBRANCH  27  36
ENDBRANCH  23  24
ENDBRANCH   1  23
TORSDOF 11
ENDMDL
