MODEL 1
REMARK VINA RESULT: -8.517957952      0.000      0.000
REMARK  13 active torsions:
REMARK  status: ('A' for Active; 'I' for Inactive)
REMARK    1  A    between atoms: O1_2  and  C2_3 
REMARK    2  A    between atoms: C2_3  and  C3_4 
REMARK    3  A    between atoms: C6_11  and  C7_12 
REMARK    4  A    between atoms: C7_12  and  N2_13 
REMARK    5  A    between atoms: N2_13  and  C8_15 
REMARK    6  A    between atoms: C12_26  and  N6_27 
REMARK    7  A    between atoms: N6_27  and  N7_29 
REMARK    8  A    between atoms: C13_32  and  C14_33 
REMARK    9  A    between atoms: C19_38  and  N8_39 
REMARK   10  A    between atoms: C20_44  and  O5_45 
REMARK   11  A    between atoms: C20_44  and  C21_47 
REMARK   12  A    between atoms: C21_47  and  C22_52 
REMARK   13  A    between atoms: N10_48  and  O6_50 
ROOT
HETATM    1  C2  UNL     1      16.820  38.151 101.639  1.00  0.00     0.262 C 
HETATM    2  C4  UNL     1      17.667  38.253 100.359  1.00  0.00     0.067 C 
HETATM    3  C5  UNL     1      17.684  39.597  99.962  1.00  0.00     0.048 C 
HETATM    4  N1  UNL     1      17.973  40.015  98.726  1.00  0.00    -0.345 N 
ATOM      5  H1  UNL     1      17.422  40.795  98.369  1.00  0.00     0.167 HD
HETATM    6  C6  UNL     1      18.923  39.512  97.891  1.00  0.00     0.102 C 
HETATM    7  N5  UNL     1      19.262  38.196  97.766  1.00  0.00    -0.310 N 
ATOM      8  H5  UNL     1      19.662  37.933  96.865  1.00  0.00     0.170 HD
HETATM    9  C11 UNL     1      19.146  37.195  98.655  1.00  0.00     0.275 C 
HETATM   10  O4  UNL     1      19.892  36.214  98.474  1.00  0.00    -0.266 OA
HETATM   11  C12 UNL     1      18.256  37.179  99.755  1.00  0.00     0.129 C 
HETATM   12  C13 UNL     1      17.333  40.278 101.190  1.00  0.00     0.147 C 
HETATM   13  N9  UNL     1      16.127  39.415 101.516  1.00  0.00    -0.304 N 
HETATM   14  C20 UNL     1      14.867  39.894 101.724  1.00  0.00     0.167 C 
ENDROOT
BRANCH   1  15
HETATM   15  O1  UNL     1      17.558  38.118 102.754  1.00  0.00    -0.352 OA
HETATM   16  C1  UNL     1      18.811  37.720 102.866  1.00  0.00     0.206 C 
ENDBRANCH   1  15
BRANCH   1  17
HETATM   17  C3  UNL     1      16.052  36.918 101.446  1.00  0.00     0.237 C 
HETATM   18  O2  UNL     1      16.116  35.891 102.196  1.00  0.00    -0.644 OA
HETATM   19  O3  UNL     1      15.174  36.873 100.335  1.00  0.00    -0.644 OA
ENDBRANCH   1  17
BRANCH  12  20
HETATM   20  C14 UNL     1      17.151  41.700 101.260  1.00  0.00     0.045 C 
HETATM   21  C15 UNL     1      17.134  42.160 102.709  1.00  0.00     0.009 C 
HETATM   22  C16 UNL     1      16.882  43.674 102.768  1.00  0.00     0.001 C 
HETATM   23  C17 UNL     1      18.061  44.412 102.168  1.00  0.00     0.002 C 
HETATM   24  C18 UNL     1      18.338  43.857 100.817  1.00  0.00     0.033 C 
HETATM   25  C19 UNL     1      18.472  42.355 100.754  1.00  0.00     0.190 C 
BRANCH  25  26
HETATM   26  N8  UNL     1      19.590  41.922 101.535  1.00  0.00    -0.075 N 
ATOM     27  H83 UNL     1      19.302  41.600 102.459  1.00  0.00     0.274 HD
ATOM     28  H82 UNL     1      19.981  41.047 101.182  1.00  0.00     0.274 HD
ATOM     29  H81 UNL     1      20.299  42.653 101.595  1.00  0.00     0.274 HD
ENDBRANCH  25  26
ENDBRANCH  12  20
BRANCH  14  30
HETATM   30  O5  UNL     1      14.520  41.052 101.186  1.00  0.00    -0.345 OA
ATOM     31  H5  UNL     1      14.267  41.770 101.756  1.00  0.00     0.219 HD
ENDBRANCH  14  30
BRANCH  14  32
HETATM   32  C21 UNL     1      13.785  39.290 102.508  1.00  0.00     0.086 C 
HETATM   33  N10 UNL     1      13.009  38.438 102.056  1.00  0.00    -0.269 N 
ATOM     34  H10 UNL     1      13.211  38.207 101.083  1.00  0.00     0.194 HD
BRANCH  33  35
HETATM   35  O6  UNL     1      11.997  37.764 102.525  1.00  0.00    -0.290 OA
ATOM     36  H6  UNL     1      11.130  37.538 102.208  1.00  0.00     0.244 HD
ENDBRANCH  33  35
BRANCH  32  37
HETATM   37  C22 UNL     1      13.611  39.726 103.931  1.00  0.00     0.042 A 
HETATM   38  C23 UNL     1      13.978  41.026 104.452  1.00  0.00     0.011 A 
HETATM   39  C24 UNL     1      14.847  39.765 104.753  1.00  0.00     0.011 A 
ENDBRANCH  32  37
ENDBRANCH  14  32
BRANCH  11  40
HETATM   40  N6  UNL     1      18.050  35.984 100.135  1.00  0.00    -0.301 N 
ATOM     41  H6  UNL     1      18.320  35.751 101.090  1.00  0.00     0.186 HD
BRANCH  40  42
HETATM   42  N7  UNL     1      17.496  34.972  99.383  1.00  0.00    -0.344 N 
ATOM     43  H72 UNL     1      16.847  35.268  98.654  1.00  0.00     0.176 HD
ATOM     44  H71 UNL     1      17.673  33.974  99.488  1.00  0.00     0.176 HD
ENDBRANCH  40  42
ENDBRANCH  11  40
BRANCH   6  45
HETATM   45  C7  UNL     1      19.661  40.450  97.032  1.00  0.00     0.199 C 
BRANCH  45  46
HETATM   46  N2  UNL     1      19.522  41.823  97.397  1.00  0.00    -0.355 N 
ATOM     47  H2  UNL     1      18.637  42.124  97.805  1.00  0.00     0.163 HD
BRANCH  46  48
HETATM   48  C8  UNL     1      20.544  42.796  97.225  1.00  0.00     0.171 A 
HETATM   49  N3  UNL     1      21.265  43.024  96.171  1.00  0.00    -0.361 N 
HETATM   50  C9  UNL     1      22.199  44.091  96.375  1.00  0.00     0.142 A 
ATOM     51  H3  UNL     1      21.177  42.504  95.299  1.00  0.00     0.162 HD
HETATM   52  C10 UNL     1      22.030  44.520  97.817  1.00  0.00     0.142 A 
HETATM   53  N4  UNL     1      20.937  43.707  98.249  1.00  0.00    -0.361 N 
ATOM     54  H4  UNL     1      20.496  43.770  99.167  1.00  0.00     0.162 HD
ENDBRANCH  46  48
ENDBRANCH  45  46
ENDBRANCH   6  45
TORSDOF 13
ENDMDL
MODEL 2
REMARK VINA RESULT: -8.426561031      2.109      5.242
REMARK  13 active torsions:
REMARK  status: ('A' for Active; 'I' for Inactive)
REMARK    1  A    between atoms: O1_2  and  C2_3 
REMARK    2  A    between atoms: C2_3  and  C3_4 
REMARK    3  A    between atoms: C6_11  and  C7_12 
REMARK    4  A    between atoms: C7_12  and  N2_13 
REMARK    5  A    between atoms: N2_13  and  C8_15 
REMARK    6  A    between atoms: C12_26  and  N6_27 
REMARK    7  A    between atoms: N6_27  and  N7_29 
REMARK    8  A    between atoms: C13_32  and  C14_33 
REMARK    9  A    between atoms: C19_38  and  N8_39 
REMARK   10  A    between atoms: C20_44  and  O5_45 
REMARK   11  A    between atoms: C20_44  and  C21_47 
REMARK   12  A    between atoms: C21_47  and  C22_52 
REMARK   13  A    between atoms: N10_48  and  O6_50 
ROOT
HETATM    1  C2  UNL     1      16.260  39.047 102.265  1.00  0.00     0.262 C 
HETATM    2  C4  UNL     1      16.727  40.455 101.854  1.00  0.00     0.067 C 
HETATM    3  C5  UNL     1      17.866  40.310 101.051  1.00  0.00     0.048 C 
HETATM    4  N1  UNL     1      18.761  41.278 100.830  1.00  0.00    -0.345 N 
ATOM      5  H1  UNL     1      19.740  40.994 100.800  1.00  0.00     0.167 HD
HETATM    6  C6  UNL     1      18.509  42.602 100.642  1.00  0.00     0.102 C 
HETATM    7  N5  UNL     1      17.545  43.330 101.279  1.00  0.00    -0.310 N 
ATOM      8  H5  UNL     1      17.732  44.331 101.349  1.00  0.00     0.170 HD
HETATM    9  C11 UNL     1      16.387  42.924 101.826  1.00  0.00     0.275 C 
HETATM   10  O4  UNL     1      15.509  43.796 101.959  1.00  0.00    -0.266 OA
HETATM   11  C12 UNL     1      16.105  41.604 102.251  1.00  0.00     0.129 C 
HETATM   12  C13 UNL     1      17.747  38.939 100.602  1.00  0.00     0.147 C 
HETATM   13  N9  UNL     1      17.489  38.341 101.974  1.00  0.00    -0.304 N 
HETATM   14  C20 UNL     1      18.232  37.346 102.537  1.00  0.00     0.167 C 
ENDROOT
BRANCH   1  15
HETATM   15  O1  UNL     1      15.255  38.587 101.512  1.00  0.00    -0.352 OA
HETATM   16  C1  UNL     1      14.839  37.338 101.419  1.00  0.00     0.206 C 
ENDBRANCH   1  15
BRANCH   1  17
HETATM   17  C3  UNL     1      15.871  39.211 103.668  1.00  0.00     0.237 C 
HETATM   18  O2  UNL     1      14.695  39.039 104.127  1.00  0.00    -0.644 OA
HETATM   19  O3  UNL     1      16.887  39.593 104.578  1.00  0.00    -0.644 OA
ENDBRANCH   1  17
BRANCH  12  20
HETATM   20  C14 UNL     1      18.748  38.301  99.794  1.00  0.00     0.045 C 
HETATM   21  C15 UNL     1      18.154  37.106  99.065  1.00  0.00     0.009 C 
HETATM   22  C16 UNL     1      19.250  36.402  98.251  1.00  0.00     0.001 C 
HETATM   23  C17 UNL     1      19.720  37.310  97.134  1.00  0.00     0.002 C 
HETATM   24  C18 UNL     1      20.094  38.628  97.712  1.00  0.00     0.033 C 
HETATM   25  C19 UNL     1      19.052  39.258  98.602  1.00  0.00     0.190 C 
BRANCH  25  26
HETATM   26  N8  UNL     1      17.863  39.540  97.856  1.00  0.00    -0.075 N 
ATOM     27  H83 UNL     1      17.406  38.684  97.538  1.00  0.00     0.274 HD
ATOM     28  H82 UNL     1      17.119  39.899  98.454  1.00  0.00     0.274 HD
ATOM     29  H81 UNL     1      18.061  40.171  97.080  1.00  0.00     0.274 HD
ENDBRANCH  25  26
ENDBRANCH  12  20
BRANCH  14  30
HETATM   30  O5  UNL     1      19.487  37.181 102.149  1.00  0.00    -0.345 OA
ATOM     31  H5  UNL     1      20.119  36.828 102.765  1.00  0.00     0.219 HD
ENDBRANCH  14  30
BRANCH  14  32
HETATM   32  C21 UNL     1      17.823  36.371 103.552  1.00  0.00     0.086 C 
HETATM   33  N10 UNL     1      18.002  36.533 104.765  1.00  0.00    -0.269 N 
ATOM     34  H10 UNL     1      18.464  37.419 104.974  1.00  0.00     0.194 HD
BRANCH  33  35
HETATM   35  O6  UNL     1      17.743  35.845 105.842  1.00  0.00    -0.290 OA
ATOM     36  H6  UNL     1      16.953  35.561 106.288  1.00  0.00     0.244 HD
ENDBRANCH  33  35
BRANCH  32  37
HETATM   37  C22 UNL     1      17.149  35.112 103.095  1.00  0.00     0.042 A 
HETATM   38  C23 UNL     1      17.753  33.796 103.107  1.00  0.00     0.011 A 
HETATM   39  C24 UNL     1      17.579  34.589 101.774  1.00  0.00     0.011 A 
ENDBRANCH  32  37
ENDBRANCH  14  32
BRANCH  11  40
HETATM   40  N6  UNL     1      15.158  41.609 103.098  1.00  0.00    -0.301 N 
ATOM     41  H6  UNL     1      15.421  41.563 104.083  1.00  0.00     0.186 HD
BRANCH  40  42
HETATM   42  N7  UNL     1      13.811  41.671 102.819  1.00  0.00    -0.344 N 
ATOM     43  H72 UNL     1      13.189  41.439 103.593  1.00  0.00     0.176 HD
ATOM     44  H71 UNL     1      13.389  41.922 101.925  1.00  0.00     0.176 HD
ENDBRANCH  40  42
ENDBRANCH  11  40
BRANCH   6  45
HETATM   45  C7  UNL     1      19.338  43.339  99.677  1.00  0.00     0.199 C 
BRANCH  45  46
HETATM   46  N2  UNL     1      18.793  43.408  98.359  1.00  0.00    -0.355 N 
ATOM     47  H2  UNL     1      17.790  43.570  98.263  1.00  0.00     0.163 HD
BRANCH  46  48
HETATM   48  C8  UNL     1      19.563  43.264  97.174  1.00  0.00     0.171 A 
HETATM   49  N3  UNL     1      19.527  43.989  96.100  1.00  0.00    -0.361 N 
HETATM   50  C9  UNL     1      20.456  43.537  95.108  1.00  0.00     0.142 A 
ATOM     51  H3  UNL     1      18.908  44.790  95.976  1.00  0.00     0.162 HD
HETATM   52  C10 UNL     1      21.106  42.297  95.685  1.00  0.00     0.142 A 
HETATM   53  N4  UNL     1      20.539  42.239  96.996  1.00  0.00    -0.361 N 
ATOM     54  H4  UNL     1      20.798  41.557  97.709  1.00  0.00     0.162 HD
ENDBRANCH  46  48
ENDBRANCH  45  46
ENDBRANCH   6  45
TORSDOF 13
ENDMDL
MODEL 3
REMARK VINA RESULT: -8.368291378      1.926      5.225
REMARK  13 active torsions:
REMARK  status: ('A' for Active; 'I' for Inactive)
REMARK    1  A    between atoms: O1_2  and  C2_3 
REMARK    2  A    between atoms: C2_3  and  C3_4 
REMARK    3  A    between atoms: C6_11  and  C7_12 
REMARK    4  A    between atoms: C7_12  and  N2_13 
REMARK    5  A    between atoms: N2_13  and  C8_15 
REMARK    6  A    between atoms: C12_26  and  N6_27 
REMARK    7  A    between atoms: N6_27  and  N7_29 
REMARK    8  A    between atoms: C13_32  and  C14_33 
REMARK    9  A    between atoms: C19_38  and  N8_39 
REMARK   10  A    between atoms: C20_44  and  O5_45 
REMARK   11  A    between atoms: C20_44  and  C21_47 
REMARK   12  A    between atoms: C21_47  and  C22_52 
REMARK   13  A    between atoms: N10_48  and  O6_50 
ROOT
HETATM    1  C2  UNL     1      16.089  38.655 101.252  1.00  0.00     0.262 C 
HETATM    2  C4  UNL     1      16.657  40.085 101.280  1.00  0.00     0.067 C 
HETATM    3  C5  UNL     1      17.861  40.082 100.562  1.00  0.00     0.048 C 
HETATM    4  N1  UNL     1      18.816  41.008 100.688  1.00  0.00    -0.345 N 
ATOM      5  H1  UNL     1      19.780  40.674 100.659  1.00  0.00     0.167 HD
HETATM    6  C6  UNL     1      18.644  42.348 100.849  1.00  0.00     0.102 C 
HETATM    7  N5  UNL     1      17.658  42.944 101.581  1.00  0.00    -0.310 N 
ATOM      8  H5  UNL     1      17.883  43.874 101.938  1.00  0.00     0.170 HD
HETATM    9  C11 UNL     1      16.435  42.488 101.902  1.00  0.00     0.275 C 
HETATM   10  O4  UNL     1      15.589  43.353 102.198  1.00  0.00    -0.266 OA
HETATM   11  C12 UNL     1      16.053  41.126 101.925  1.00  0.00     0.129 C 
HETATM   12  C13 UNL     1      17.723  38.893  99.748  1.00  0.00     0.147 C 
HETATM   13  N9  UNL     1      17.306  37.969 100.878  1.00  0.00    -0.304 N 
HETATM   14  C20 UNL     1      17.946  36.809 101.205  1.00  0.00     0.167 C 
ENDROOT
BRANCH   1  15
HETATM   15  O1  UNL     1      15.141  38.486 100.324  1.00  0.00    -0.352 OA
HETATM   16  C1  UNL     1      14.531  37.359 100.008  1.00  0.00     0.206 C 
ENDBRANCH   1  15
BRANCH   1  17
HETATM   17  C3  UNL     1      15.575  38.464 102.611  1.00  0.00     0.237 C 
HETATM   18  O2  UNL     1      14.354  38.260 102.909  1.00  0.00    -0.644 OA
HETATM   19  O3  UNL     1      16.516  38.513 103.669  1.00  0.00    -0.644 OA
ENDBRANCH   1  17
BRANCH  12  20
HETATM   20  C14 UNL     1      18.766  38.427  98.879  1.00  0.00     0.045 C 
HETATM   21  C15 UNL     1      18.177  37.619  97.733  1.00  0.00     0.009 C 
HETATM   22  C16 UNL     1      19.309  37.081  96.845  1.00  0.00     0.001 C 
HETATM   23  C17 UNL     1      20.009  38.232  96.155  1.00  0.00     0.002 C 
HETATM   24  C18 UNL     1      20.413  39.232  97.178  1.00  0.00     0.033 C 
HETATM   25  C19 UNL     1      19.317  39.670  98.117  1.00  0.00     0.190 C 
BRANCH  25  26
HETATM   26  N8  UNL     1      18.273  40.329  97.392  1.00  0.00    -0.075 N 
ATOM     27  H83 UNL     1      17.701  39.666  96.869  1.00  0.00     0.274 HD
ATOM     28  H82 UNL     1      17.554  40.696  98.016  1.00  0.00     0.274 HD
ATOM     29  H81 UNL     1      18.654  41.057  96.787  1.00  0.00     0.274 HD
ENDBRANCH  25  26
ENDBRANCH  12  20
BRANCH  14  30
HETATM   30  O5  UNL     1      19.223  36.667 100.889  1.00  0.00    -0.345 OA
ATOM     31  H5  UNL     1      19.742  36.012 101.342  1.00  0.00     0.219 HD
ENDBRANCH  14  30
BRANCH  14  32
HETATM   32  C21 UNL     1      17.397  35.629 101.878  1.00  0.00     0.086 C 
HETATM   33  N10 UNL     1      17.304  35.526 103.108  1.00  0.00    -0.269 N 
ATOM     34  H10 UNL     1      17.652  36.353 103.593  1.00  0.00     0.194 HD
BRANCH  33  35
HETATM   35  O6  UNL     1      16.869  34.615 103.932  1.00  0.00    -0.290 OA
ATOM     36  H6  UNL     1      16.183  34.569 104.588  1.00  0.00     0.244 HD
ENDBRANCH  33  35
BRANCH  32  37
HETATM   37  C22 UNL     1      16.919  34.487 101.032  1.00  0.00     0.042 A 
HETATM   38  C23 UNL     1      17.765  33.667 100.190  1.00  0.00     0.011 A 
HETATM   39  C24 UNL     1      16.830  34.754  99.574  1.00  0.00     0.011 A 
ENDBRANCH  32  37
ENDBRANCH  14  32
BRANCH  11  40
HETATM   40  N6  UNL     1      15.031  40.970 102.663  1.00  0.00    -0.301 N 
ATOM     41  H6  UNL     1      15.191  40.596 103.598  1.00  0.00     0.186 HD
BRANCH  40  42
HETATM   42  N7  UNL     1      13.727  41.257 102.325  1.00  0.00    -0.344 N 
ATOM     43  H72 UNL     1      13.601  42.026 101.667  1.00  0.00     0.176 HD
ATOM     44  H71 UNL     1      12.894  40.779 102.666  1.00  0.00     0.176 HD
ENDBRANCH  40  42
ENDBRANCH  11  40
BRANCH   6  45
HETATM   45  C7  UNL     1      19.595  43.257 100.192  1.00  0.00     0.199 C 
BRANCH  45  46
HETATM   46  N2  UNL     1      19.093  43.889  99.014  1.00  0.00    -0.355 N 
ATOM     47  H2  UNL     1      18.305  44.530  99.112  1.00  0.00     0.163 HD
BRANCH  46  48
HETATM   48  C8  UNL     1      19.625  43.679  97.714  1.00  0.00     0.171 A 
HETATM   49  N3  UNL     1      19.189  44.142  96.583  1.00  0.00    -0.361 N 
HETATM   50  C9  UNL     1      19.990  43.713  95.476  1.00  0.00     0.142 A 
ATOM     51  H3  UNL     1      18.370  44.743  96.494  1.00  0.00     0.162 HD
HETATM   52  C10 UNL     1      21.042  42.793  96.059  1.00  0.00     0.142 A 
HETATM   53  N4  UNL     1      20.780  42.881  97.461  1.00  0.00    -0.361 N 
ATOM     54  H4  UNL     1      21.344  42.435  98.184  1.00  0.00     0.162 HD
ENDBRANCH  46  48
ENDBRANCH  45  46
ENDBRANCH   6  45
TORSDOF 13
ENDMDL
MODEL 4
REMARK VINA RESULT: -8.348362631      2.381      5.438
REMARK  13 active torsions:
REMARK  status: ('A' for Active; 'I' for Inactive)
REMARK    1  A    between atoms: O1_2  and  C2_3 
REMARK    2  A    between atoms: C2_3  and  C3_4 
REMARK    3  A    between atoms: C6_11  and  C7_12 
REMARK    4  A    between atoms: C7_12  and  N2_13 
REMARK    5  A    between atoms: N2_13  and  C8_15 
REMARK    6  A    between atoms: C12_26  and  N6_27 
REMARK    7  A    between atoms: N6_27  and  N7_29 
REMARK    8  A    between atoms: C13_32  and  C14_33 
REMARK    9  A    between atoms: C19_38  and  N8_39 
REMARK   10  A    between atoms: C20_44  and  O5_45 
REMARK   11  A    between atoms: C20_44  and  C21_47 
REMARK   12  A    between atoms: C21_47  and  C22_52 
REMARK   13  A    between atoms: N10_48  and  O6_50 
ROOT
HETATM    1  C2  UNL     1      16.252  38.518 103.169  1.00  0.00     0.262 C 
HETATM    2  C4  UNL     1      16.535  39.815 102.392  1.00  0.00     0.067 C 
HETATM    3  C5  UNL     1      17.533  39.540 101.449  1.00  0.00     0.048 C 
HETATM    4  N1  UNL     1      18.303  40.470 100.872  1.00  0.00    -0.345 N 
ATOM      5  H1  UNL     1      19.282  40.224 100.728  1.00  0.00     0.167 HD
HETATM    6  C6  UNL     1      17.921  41.708 100.455  1.00  0.00     0.102 C 
HETATM    7  N5  UNL     1      17.023  42.521 101.084  1.00  0.00    -0.310 N 
ATOM      8  H5  UNL     1      17.141  43.518 100.907  1.00  0.00     0.170 HD
HETATM    9  C11 UNL     1      16.006  42.201 101.903  1.00  0.00     0.275 C 
HETATM   10  O4  UNL     1      15.098  43.047 102.002  1.00  0.00    -0.266 OA
HETATM   11  C12 UNL     1      15.901  40.999 102.641  1.00  0.00     0.129 C 
HETATM   12  C13 UNL     1      17.448  38.101 101.329  1.00  0.00     0.147 C 
HETATM   13  N9  UNL     1      17.466  37.813 102.820  1.00  0.00    -0.304 N 
HETATM   14  C20 UNL     1      18.367  36.997 103.439  1.00  0.00     0.167 C 
ENDROOT
BRANCH   1  15
HETATM   15  O1  UNL     1      15.175  37.863 102.722  1.00  0.00    -0.352 OA
HETATM   16  C1  UNL     1      14.377  38.227 101.735  1.00  0.00     0.206 C 
ENDBRANCH   1  15
BRANCH   1  17
HETATM   17  C3  UNL     1      16.090  38.974 104.552  1.00  0.00     0.237 C 
HETATM   18  O2  UNL     1      17.007  39.499 105.263  1.00  0.00    -0.644 OA
HETATM   19  O3  UNL     1      14.810  38.812 105.138  1.00  0.00    -0.644 OA
ENDBRANCH   1  17
BRANCH  12  20
HETATM   20  C14 UNL     1      18.347  37.338 100.510  1.00  0.00     0.045 C 
HETATM   21  C15 UNL     1      17.858  35.904 100.384  1.00  0.00     0.009 C 
HETATM   22  C16 UNL     1      18.861  35.088  99.552  1.00  0.00     0.001 C 
HETATM   23  C17 UNL     1      18.871  35.594  98.125  1.00  0.00     0.002 C 
HETATM   24  C18 UNL     1      19.090  37.065  98.138  1.00  0.00     0.033 C 
HETATM   25  C19 UNL     1      18.172  37.844  99.046  1.00  0.00     0.190 C 
BRANCH  25  26
HETATM   26  N8  UNL     1      16.813  37.707  98.617  1.00  0.00    -0.075 N 
ATOM     27  H83 UNL     1      16.650  36.808  98.163  1.00  0.00     0.274 HD
ATOM     28  H82 UNL     1      16.177  37.600  99.407  1.00  0.00     0.274 HD
ATOM     29  H81 UNL     1      16.540  38.486  98.017  1.00  0.00     0.274 HD
ENDBRANCH  25  26
ENDBRANCH  12  20
BRANCH  14  30
HETATM   30  O5  UNL     1      19.550  36.799 102.878  1.00  0.00    -0.345 OA
ATOM     31  H5  UNL     1      20.116  37.545 102.717  1.00  0.00     0.219 HD
ENDBRANCH  14  30
BRANCH  14  32
HETATM   32  C21 UNL     1      18.208  36.257 104.695  1.00  0.00     0.086 C 
HETATM   33  N10 UNL     1      18.469  36.734 105.806  1.00  0.00    -0.269 N 
ATOM     34  H10 UNL     1      18.806  37.695 105.746  1.00  0.00     0.194 HD
BRANCH  33  35
HETATM   35  O6  UNL     1      18.418  36.303 107.035  1.00  0.00    -0.290 OA
ATOM     36  H6  UNL     1      18.530  36.695 107.894  1.00  0.00     0.244 HD
ENDBRANCH  33  35
BRANCH  32  37
HETATM   37  C22 UNL     1      17.698  34.848 104.628  1.00  0.00     0.042 A 
HETATM   38  C23 UNL     1      17.701  34.020 103.441  1.00  0.00     0.011 A 
HETATM   39  C24 UNL     1      16.381  34.666 103.966  1.00  0.00     0.011 A 
ENDBRANCH  32  37
ENDBRANCH  14  32
BRANCH  11  40
HETATM   40  N6  UNL     1      15.110  41.156 103.623  1.00  0.00    -0.301 N 
ATOM     41  H6  UNL     1      15.535  41.279 104.542  1.00  0.00     0.186 HD
BRANCH  40  42
HETATM   42  N7  UNL     1      13.734  41.176 103.569  1.00  0.00    -0.344 N 
ATOM     43  H72 UNL     1      13.327  41.865 102.938  1.00  0.00     0.176 HD
ATOM     44  H71 UNL     1      13.099  40.575 104.094  1.00  0.00     0.176 HD
ENDBRANCH  40  42
ENDBRANCH  11  40
BRANCH   6  45
HETATM   45  C7  UNL     1      18.520  42.243  99.224  1.00  0.00     0.199 C 
BRANCH  45  46
HETATM   46  N2  UNL     1      18.839  43.633  99.275  1.00  0.00    -0.355 N 
ATOM     47  H2  UNL     1      18.136  44.273  99.645  1.00  0.00     0.163 HD
BRANCH  46  48
HETATM   48  C8  UNL     1      20.077  44.179  98.842  1.00  0.00     0.171 A 
HETATM   49  N3  UNL     1      20.325  44.843  97.756  1.00  0.00    -0.361 N 
HETATM   50  C9  UNL     1      21.700  45.234  97.661  1.00  0.00     0.142 A 
ATOM     51  H3  UNL     1      19.622  45.063  97.051  1.00  0.00     0.162 HD
HETATM   52  C10 UNL     1      22.382  44.644  98.877  1.00  0.00     0.142 A 
HETATM   53  N4  UNL     1      21.287  44.061  99.587  1.00  0.00    -0.361 N 
ATOM     54  H4  UNL     1      21.361  43.621 100.504  1.00  0.00     0.162 HD
ENDBRANCH  46  48
ENDBRANCH  45  46
ENDBRANCH   6  45
TORSDOF 13
ENDMDL
MODEL 5
REMARK VINA RESULT: -8.344860915      2.784      6.344
REMARK  13 active torsions:
REMARK  status: ('A' for Active; 'I' for Inactive)
REMARK    1  A    between atoms: O1_2  and  C2_3 
REMARK    2  A    between atoms: C2_3  and  C3_4 
REMARK    3  A    between atoms: C6_11  and  C7_12 
REMARK    4  A    between atoms: C7_12  and  N2_13 
REMARK    5  A    between atoms: N2_13  and  C8_15 
REMARK    6  A    between atoms: C12_26  and  N6_27 
REMARK    7  A    between atoms: N6_27  and  N7_29 
REMARK    8  A    between atoms: C13_32  and  C14_33 
REMARK    9  A    between atoms: C19_38  and  N8_39 
REMARK   10  A    between atoms: C20_44  and  O5_45 
REMARK   11  A    between atoms: C20_44  and  C21_47 
REMARK   12  A    between atoms: C21_47  and  C22_52 
REMARK   13  A    between atoms: N10_48  and  O6_50 
ROOT
HETATM    1  C2  UNL     1      17.619  39.615 101.614  1.00  0.00     0.262 C 
HETATM    2  C4  UNL     1      18.028  39.256 100.174  1.00  0.00     0.067 C 
HETATM    3  C5  UNL     1      17.780  37.890  99.987  1.00  0.00     0.048 C 
HETATM    4  N1  UNL     1      18.348  37.144  99.034  1.00  0.00    -0.345 N 
ATOM      5  H1  UNL     1      18.613  36.195  99.298  1.00  0.00     0.167 HD
HETATM    6  C6  UNL     1      18.612  37.512  97.751  1.00  0.00     0.102 C 
HETATM    7  N5  UNL     1      19.027  38.747  97.344  1.00  0.00    -0.310 N 
ATOM      8  H5  UNL     1      19.556  38.763  96.472  1.00  0.00     0.170 HD
HETATM    9  C11 UNL     1      18.840  39.946  97.921  1.00  0.00     0.275 C 
HETATM   10  O4  UNL     1      18.933  40.935  97.171  1.00  0.00    -0.266 OA
HETATM   11  C12 UNL     1      18.552  40.156  99.291  1.00  0.00     0.129 C 
HETATM   12  C13 UNL     1      16.821  37.611 101.034  1.00  0.00     0.147 C 
HETATM   13  N9  UNL     1      17.606  38.273 102.153  1.00  0.00    -0.304 N 
HETATM   14  C20 UNL     1      17.981  37.651 103.308  1.00  0.00     0.167 C 
ENDROOT
BRANCH   1  15
HETATM   15  O1  UNL     1      16.406  40.172 101.690  1.00  0.00    -0.352 OA
HETATM   16  C1  UNL     1      15.741  40.480 102.788  1.00  0.00     0.206 C 
ENDBRANCH   1  15
BRANCH   1  17
HETATM   17  C3  UNL     1      18.677  40.528 102.054  1.00  0.00     0.237 C 
HETATM   18  O2  UNL     1      18.505  41.749 102.372  1.00  0.00    -0.644 OA
HETATM   19  O3  UNL     1      19.992  40.005 102.126  1.00  0.00    -0.644 OA
ENDBRANCH   1  17
BRANCH  12  20
HETATM   20  C14 UNL     1      16.316  36.291 101.288  1.00  0.00     0.045 C 
HETATM   21  C15 UNL     1      15.012  36.366 102.066  1.00  0.00     0.009 C 
HETATM   22  C16 UNL     1      14.515  34.946 102.378  1.00  0.00     0.001 C 
HETATM   23  C17 UNL     1      14.131  34.244 101.092  1.00  0.00     0.002 C 
HETATM   24  C18 UNL     1      15.268  34.334 100.138  1.00  0.00     0.033 C 
HETATM   25  C19 UNL     1      15.820  35.721  99.925  1.00  0.00     0.190 C 
BRANCH  25  26
HETATM   26  N8  UNL     1      14.824  36.571  99.347  1.00  0.00    -0.075 N 
ATOM     27  H83 UNL     1      14.060  36.032  98.938  1.00  0.00     0.274 HD
ATOM     28  H82 UNL     1      14.295  37.072 100.061  1.00  0.00     0.274 HD
ATOM     29  H81 UNL     1      15.239  37.210  98.668  1.00  0.00     0.274 HD
ENDBRANCH  25  26
ENDBRANCH  12  20
BRANCH  14  30
HETATM   30  O5  UNL     1      18.113  36.334 103.317  1.00  0.00    -0.345 OA
ATOM     31  H5  UNL     1      17.770  35.839 104.052  1.00  0.00     0.219 HD
ENDBRANCH  14  30
BRANCH  14  32
HETATM   32  C21 UNL     1      18.262  38.255 104.614  1.00  0.00     0.086 C 
HETATM   33  N10 UNL     1      19.406  38.474 105.032  1.00  0.00    -0.269 N 
ATOM     34  H10 UNL     1      20.124  38.187 104.366  1.00  0.00     0.194 HD
BRANCH  33  35
HETATM   35  O6  UNL     1      19.915  38.983 106.118  1.00  0.00    -0.290 OA
ATOM     36  H6  UNL     1      20.099  39.861 106.432  1.00  0.00     0.244 HD
ENDBRANCH  33  35
BRANCH  32  37
HETATM   37  C22 UNL     1      17.103  38.629 105.487  1.00  0.00     0.042 A 
HETATM   38  C23 UNL     1      16.670  37.891 106.655  1.00  0.00     0.011 A 
HETATM   39  C24 UNL     1      15.873  37.815 105.316  1.00  0.00     0.011 A 
ENDBRANCH  32  37
ENDBRANCH  14  32
BRANCH  11  40
HETATM   40  N6  UNL     1      18.862  41.341  99.628  1.00  0.00    -0.301 N 
ATOM     41  H6  UNL     1      19.739  41.462 100.135  1.00  0.00     0.186 HD
BRANCH  40  42
HETATM   42  N7  UNL     1      18.131  42.480  99.375  1.00  0.00    -0.344 N 
ATOM     43  H72 UNL     1      18.556  43.355  99.681  1.00  0.00     0.176 HD
ATOM     44  H71 UNL     1      17.220  42.526  98.918  1.00  0.00     0.176 HD
ENDBRANCH  40  42
ENDBRANCH  11  40
BRANCH   6  45
HETATM   45  C7  UNL     1      18.450  36.507  96.691  1.00  0.00     0.199 C 
BRANCH  45  46
HETATM   46  N2  UNL     1      18.306  35.167  97.161  1.00  0.00    -0.355 N 
ATOM     47  H2  UNL     1      17.363  34.820  97.341  1.00  0.00     0.163 HD
BRANCH  46  48
HETATM   48  C8  UNL     1      19.397  34.287  97.395  1.00  0.00     0.171 A 
HETATM   49  N3  UNL     1      20.000  34.037  98.516  1.00  0.00    -0.361 N 
HETATM   50  C9  UNL     1      21.063  33.090  98.360  1.00  0.00     0.142 A 
ATOM     51  H3  UNL     1      19.747  34.466  99.406  1.00  0.00     0.162 HD
HETATM   52  C10 UNL     1      21.124  32.777  96.880  1.00  0.00     0.142 A 
HETATM   53  N4  UNL     1      20.013  33.515  96.367  1.00  0.00    -0.361 N 
ATOM     54  H4  UNL     1      19.701  33.492  95.396  1.00  0.00     0.162 HD
ENDBRANCH  46  48
ENDBRANCH  45  46
ENDBRANCH   6  45
TORSDOF 13
ENDMDL
