MODEL 1
REMARK VINA RESULT: -9.288503801      0.000      0.000
REMARK  11 active torsions:
REMARK  status: ('A' for Active; 'I' for Inactive)
REMARK    1  A    between atoms: N1_1  and  C1_4 
REMARK    2  A    between atoms: C3_8  and  N3_9 
REMARK    3  A    between atoms: N3_9  and  C4_11 
REMARK    4  A    between atoms: C5_12  and  O1_13 
REMARK    5  A    between atoms: C9_18  and  C10_19 
REMARK    6  A    between atoms: N5_25  and  C12_26 
REMARK    7  A    between atoms: C12_26  and  C13_27 
REMARK    8  A    between atoms: C13_27  and  N6_28 
REMARK    9  A    between atoms: N10_43  and  C21_44 
REMARK   10  A    between atoms: C21_44  and  C22_45 
REMARK   11  A    between atoms: C22_45  and  N11_46 
ROOT
HETATM    1  C4  UNL     1      17.866  39.102  99.677  1.00  0.00     0.137 A 
HETATM    2  C5  UNL     1      18.121  37.876 100.246  1.00  0.00     0.112 A 
HETATM    3  C6  UNL     1      18.186  37.707 101.625  1.00  0.00     0.044 A 
HETATM    4  C7  UNL     1      18.440  36.485 102.190  1.00  0.00     0.021 A 
HETATM    5  C8  UNL     1      18.491  36.384 103.553  1.00  0.00     0.038 A 
HETATM    6  C9  UNL     1      18.289  37.503 104.327  1.00  0.00     0.111 A 
HETATM    7  N4  UNL     1      18.043  38.678 103.739  1.00  0.00    -0.336 N 
ATOM      8  H4  UNL     1      17.895  39.492 104.336  1.00  0.00     0.168 HD
HETATM    9  C11 UNL     1      17.978  38.851 102.393  1.00  0.00     0.124 A 
HETATM   10  N5  UNL     1      17.727  40.060 101.858  1.00  0.00    -0.296 N 
HETATM   11  C18 UNL     1      17.673  40.179 100.513  1.00  0.00     0.279 A 
HETATM   12  O4  UNL     1      17.438  41.316 100.056  1.00  0.00    -0.265 OA
ENDROOT
BRANCH   1  13
HETATM   13  N3  UNL     1      17.806  39.259  98.296  1.00  0.00    -0.334 N 
ATOM     14  H3  UNL     1      16.865  39.277  97.903  1.00  0.00     0.168 HD
BRANCH  13  15
HETATM   15  C3  UNL     1      18.741  39.382  97.454  1.00  0.00     0.138 A 
HETATM   16  C2  UNL     1      19.149  40.669  97.153  1.00  0.00     0.138 A 
HETATM   17  N2  UNL     1      18.750  41.896  97.580  1.00  0.00    -0.184 N 
HETATM   18  C20 UNL     1      20.158  40.893  96.250  1.00  0.00     0.155 A 
HETATM   19  C1  UNL     1      19.498  42.816  96.950  1.00  0.00     0.680 A 
ATOM     20  H2  UNL     1      18.012  42.084  98.258  1.00  0.00     0.184 HD
HETATM   21  N10 UNL     1      20.370  42.219  96.128  1.00  0.00    -0.165 N 
HETATM   22  N9  UNL     1      20.731  39.811  95.673  1.00  0.00    -0.336 N 
HETATM   23  C19 UNL     1      20.344  38.562  95.958  1.00  0.00     0.183 A 
ATOM     24  H9  UNL     1      21.483  39.953  94.999  1.00  0.00     0.168 HD
HETATM   25  N8  UNL     1      19.358  38.360  96.841  1.00  0.00    -0.337 N 
ATOM     26  H8  UNL     1      19.069  37.405  97.053  1.00  0.00     0.168 HD
BRANCH  19  27
HETATM   27  N1  UNL     1      19.437  44.110  97.073  1.00  0.00    -0.234 N 
ATOM     28  H12 UNL     1      18.587  44.635  96.870  1.00  0.00     0.174 HD
ATOM     29  H11 UNL     1      20.179  44.745  97.369  1.00  0.00     0.174 HD
ENDBRANCH  19  27
BRANCH  21  30
HETATM   30  C21 UNL     1      21.366  42.812  95.258  1.00  0.00     0.169 C 
BRANCH  30  31
HETATM   31  C22 UNL     1      22.642  43.090  96.039  1.00  0.00     0.143 C 
BRANCH  31  32
HETATM   32  N11 UNL     1      23.358  44.230  95.514  1.00  0.00    -0.365 N 
HETATM   33  C23 UNL     1      23.158  45.382  96.022  1.00  0.00     0.197 C 
HETATM   34  N12 UNL     1      22.252  45.550  97.084  1.00  0.00    -0.067 NA
HETATM   35  N13 UNL     1      23.855  46.499  95.510  1.00  0.00    -0.067 NA
ATOM     36  H11 UNL     1      24.017  44.113  94.745  1.00  0.00     0.161 HD
ENDBRANCH  31  32
ENDBRANCH  30  31
ENDBRANCH  21  30
ENDBRANCH  13  15
ENDBRANCH   1  13
BRANCH   2  37
HETATM   37  O1  UNL     1      18.308  36.830  99.365  1.00  0.00    -0.357 OA
ATOM     38  H1  UNL     1      18.067  35.968  99.686  1.00  0.00     0.217 HD
ENDBRANCH   2  37
BRANCH  10  39
HETATM   39  C12 UNL     1      17.519  41.215 102.730  1.00  0.00     0.164 C 
BRANCH  39  40
HETATM   40  C13 UNL     1      18.805  42.004 102.713  1.00  0.00     0.292 C 
BRANCH  40  41
HETATM   41  N6  UNL     1      18.643  43.392 102.929  1.00  0.00     0.093 N 
HETATM   42  C14 UNL     1      17.333  43.922 102.792  1.00  0.00     0.291 C 
HETATM   43  C15 UNL     1      16.956  44.383 101.427  1.00  0.00     0.144 C 
HETATM   44  N7  UNL     1      17.895  44.074 100.394  1.00  0.00    -0.418 N 
HETATM   45  C16 UNL     1      19.259  44.304 100.721  1.00  0.00     0.144 C 
ATOM     46  H7  UNL     1      17.606  43.714  99.485  1.00  0.00     0.153 HD
HETATM   47  C17 UNL     1      19.580  44.166 102.187  1.00  0.00     0.291 C 
ENDBRANCH  40  41
ENDBRANCH  39  40
ENDBRANCH  10  39
BRANCH   6  48
HETATM   48  C10 UNL     1      18.347  37.385 105.796  1.00  0.00     0.226 C 
HETATM   49  O2  UNL     1      18.313  36.284 106.388  1.00  0.00    -0.643 OA
HETATM   50  O3  UNL     1      18.444  38.539 106.552  1.00  0.00    -0.643 OA
ENDBRANCH   6  48
TORSDOF 11
ENDMDL
MODEL 2
REMARK VINA RESULT: -9.266642182      2.195      4.915
REMARK  11 active torsions:
REMARK  status: ('A' for Active; 'I' for Inactive)
REMARK    1  A    between atoms: N1_1  and  C1_4 
REMARK    2  A    between atoms: C3_8  and  N3_9 
REMARK    3  A    between atoms: N3_9  and  C4_11 
REMARK    4  A    between atoms: C5_12  and  O1_13 
REMARK    5  A    between atoms: C9_18  and  C10_19 
REMARK    6  A    between atoms: N5_25  and  C12_26 
REMARK    7  A    between atoms: C12_26  and  C13_27 
REMARK    8  A    between atoms: C13_27  and  N6_28 
REMARK    9  A    between atoms: N10_43  and  C21_44 
REMARK   10  A    between atoms: C21_44  and  C22_45 
REMARK   11  A    between atoms: C22_45  and  N11_46 
ROOT
HETATM    1  C4  UNL     1      18.850  41.832  98.089  1.00  0.00     0.137 A 
HETATM    2  C5  UNL     1      18.732  42.566  99.246  1.00  0.00     0.112 A 
HETATM    3  C6  UNL     1      18.169  42.031 100.400  1.00  0.00     0.044 A 
HETATM    4  C7  UNL     1      18.054  42.765 101.551  1.00  0.00     0.021 A 
HETATM    5  C8  UNL     1      17.490  42.182 102.654  1.00  0.00     0.038 A 
HETATM    6  C9  UNL     1      17.051  40.880 102.585  1.00  0.00     0.111 A 
HETATM    7  N4  UNL     1      17.182  40.197 101.444  1.00  0.00    -0.336 N 
ATOM      8  H4  UNL     1      16.850  39.233 101.421  1.00  0.00     0.168 HD
HETATM    9  C11 UNL     1      17.732  40.712 100.314  1.00  0.00     0.124 A 
HETATM   10  N5  UNL     1      17.836  39.974  99.192  1.00  0.00    -0.296 N 
HETATM   11  C18 UNL     1      18.389  40.534  98.094  1.00  0.00     0.279 A 
HETATM   12  O4  UNL     1      18.468  39.818  97.076  1.00  0.00    -0.265 OA
ENDROOT
BRANCH   1  13
HETATM   13  N3  UNL     1      19.413  42.378  96.941  1.00  0.00    -0.334 N 
ATOM     14  H3  UNL     1      18.811  43.022  96.427  1.00  0.00     0.168 HD
BRANCH  13  15
HETATM   15  C3  UNL     1      20.559  42.198  96.437  1.00  0.00     0.138 A 
HETATM   16  C2  UNL     1      21.448  43.255  96.507  1.00  0.00     0.138 A 
HETATM   17  N2  UNL     1      21.365  44.510  97.020  1.00  0.00    -0.184 N 
HETATM   18  C20 UNL     1      22.714  43.144  95.985  1.00  0.00     0.155 A 
HETATM   19  C1  UNL     1      22.541  45.122  96.810  1.00  0.00     0.680 A 
ATOM     20  H2  UNL     1      20.551  44.915  97.484  1.00  0.00     0.184 HD
HETATM   21  N10 UNL     1      23.383  44.298  96.174  1.00  0.00    -0.165 N 
HETATM   22  N9  UNL     1      23.049  41.968  95.406  1.00  0.00    -0.336 N 
HETATM   23  C19 UNL     1      22.195  40.939  95.334  1.00  0.00     0.183 A 
ATOM     24  H9  UNL     1      23.983  41.862  95.011  1.00  0.00     0.168 HD
HETATM   25  N8  UNL     1      20.965  41.063  95.847  1.00  0.00    -0.337 N 
ATOM     26  H8  UNL     1      20.320  40.275  95.789  1.00  0.00     0.168 HD
BRANCH  19  27
HETATM   27  N1  UNL     1      22.879  46.333  97.146  1.00  0.00    -0.234 N 
ATOM     28  H12 UNL     1      22.241  47.122  97.046  1.00  0.00     0.174 HD
ATOM     29  H11 UNL     1      23.769  46.648  97.532  1.00  0.00     0.174 HD
ENDBRANCH  19  27
BRANCH  21  30
HETATM   30  C21 UNL     1      24.749  44.532  95.748  1.00  0.00     0.169 C 
BRANCH  30  31
HETATM   31  C22 UNL     1      24.798  44.732  94.241  1.00  0.00     0.143 C 
BRANCH  31  32
HETATM   32  N11 UNL     1      25.823  43.923  93.622  1.00  0.00    -0.365 N 
HETATM   33  C23 UNL     1      25.485  42.978  92.836  1.00  0.00     0.197 C 
HETATM   34  N12 UNL     1      24.128  42.720  92.568  1.00  0.00    -0.067 NA
HETATM   35  N13 UNL     1      26.484  42.184  92.232  1.00  0.00    -0.067 NA
ATOM     36  H11 UNL     1      26.808  44.107  93.813  1.00  0.00     0.161 HD
ENDBRANCH  31  32
ENDBRANCH  30  31
ENDBRANCH  21  30
ENDBRANCH  13  15
ENDBRANCH   1  13
BRANCH   2  37
HETATM   37  O1  UNL     1      19.208  43.861  99.189  1.00  0.00    -0.357 OA
ATOM     38  H1  UNL     1      20.092  43.994  99.512  1.00  0.00     0.217 HD
ENDBRANCH   2  37
BRANCH  10  39
HETATM   39  C12 UNL     1      17.353  38.595  99.179  1.00  0.00     0.164 C 
BRANCH  39  40
HETATM   40  C13 UNL     1      18.393  37.767  99.894  1.00  0.00     0.292 C 
BRANCH  40  41
HETATM   41  N6  UNL     1      17.929  36.511 100.351  1.00  0.00     0.093 N 
HETATM   42  C14 UNL     1      16.618  36.461 100.893  1.00  0.00     0.291 C 
HETATM   43  C15 UNL     1      16.508  36.710 102.357  1.00  0.00     0.144 C 
HETATM   44  N7  UNL     1      17.712  37.138 102.998  1.00  0.00    -0.418 N 
HETATM   45  C16 UNL     1      18.887  36.433 102.621  1.00  0.00     0.144 C 
ATOM     46  H7  UNL     1      17.726  37.897 103.679  1.00  0.00     0.153 HD
HETATM   47  C17 UNL     1      18.859  35.877 101.222  1.00  0.00     0.291 C 
ENDBRANCH  40  41
ENDBRANCH  39  40
ENDBRANCH  10  39
BRANCH   6  48
HETATM   48  C10 UNL     1      16.444  40.260 103.778  1.00  0.00     0.226 C 
HETATM   49  O2  UNL     1      17.113  39.643 104.635  1.00  0.00    -0.643 OA
HETATM   50  O3  UNL     1      15.076  40.365 103.958  1.00  0.00    -0.643 OA
ENDBRANCH   6  48
TORSDOF 11
ENDMDL
MODEL 3
REMARK VINA RESULT: -9.244892494      3.521      9.585
REMARK  11 active torsions:
REMARK  status: ('A' for Active; 'I' for Inactive)
REMARK    1  A    between atoms: N1_1  and  C1_4 
REMARK    2  A    between atoms: C3_8  and  N3_9 
REMARK    3  A    between atoms: N3_9  and  C4_11 
REMARK    4  A    between atoms: C5_12  and  O1_13 
REMARK    5  A    between atoms: C9_18  and  C10_19 
REMARK    6  A    between atoms: N5_25  and  C12_26 
REMARK    7  A    between atoms: C12_26  and  C13_27 
REMARK    8  A    between atoms: C13_27  and  N6_28 
REMARK    9  A    between atoms: N10_43  and  C21_44 
REMARK   10  A    between atoms: C21_44  and  C22_45 
REMARK   11  A    between atoms: C22_45  and  N11_46 
ROOT
HETATM    1  C4  UNL     1      20.081  43.159  97.160  1.00  0.00     0.137 A 
HETATM    2  C5  UNL     1      21.073  44.106  97.072  1.00  0.00     0.112 A 
HETATM    3  C6  UNL     1      22.193  43.924  96.267  1.00  0.00     0.044 A 
HETATM    4  C7  UNL     1      23.180  44.870  96.182  1.00  0.00     0.021 A 
HETATM    5  C8  UNL     1      24.257  44.631  95.372  1.00  0.00     0.038 A 
HETATM    6  C9  UNL     1      24.328  43.454  94.664  1.00  0.00     0.111 A 
HETATM    7  N4  UNL     1      23.344  42.556  94.773  1.00  0.00    -0.336 N 
ATOM      8  H4  UNL     1      23.421  41.692  94.236  1.00  0.00     0.168 HD
HETATM    9  C11 UNL     1      22.248  42.727  95.556  1.00  0.00     0.124 A 
HETATM   10  N5  UNL     1      21.289  41.786  95.626  1.00  0.00    -0.296 N 
HETATM   11  C18 UNL     1      20.219  42.004  96.422  1.00  0.00     0.279 A 
HETATM   12  O4  UNL     1      19.351  41.108  96.459  1.00  0.00    -0.265 OA
ENDROOT
BRANCH   1  13
HETATM   13  N3  UNL     1      18.967  43.352  97.970  1.00  0.00    -0.334 N 
ATOM     14  H3  UNL     1      18.121  43.642  97.480  1.00  0.00     0.168 HD
BRANCH  13  15
HETATM   15  C3  UNL     1      18.845  43.222  99.222  1.00  0.00     0.138 A 
HETATM   16  C2  UNL     1      18.447  41.983  99.688  1.00  0.00     0.138 A 
HETATM   17  N2  UNL     1      18.139  40.811  99.073  1.00  0.00    -0.184 N 
HETATM   18  C20 UNL     1      18.289  41.755 101.034  1.00  0.00     0.155 A 
HETATM   19  C1  UNL     1      17.811  39.919 100.021  1.00  0.00     0.680 A 
ATOM     20  H2  UNL     1      18.155  40.639  98.067  1.00  0.00     0.184 HD
HETATM   21  N10 UNL     1      17.898  40.481 101.234  1.00  0.00    -0.165 N 
HETATM   22  N9  UNL     1      18.540  42.786 101.874  1.00  0.00    -0.336 N 
HETATM   23  C19 UNL     1      18.926  43.989 101.432  1.00  0.00     0.183 A 
ATOM     24  H9  UNL     1      18.430  42.641 102.877  1.00  0.00     0.168 HD
HETATM   25  N8  UNL     1      19.075  44.195 100.117  1.00  0.00    -0.337 N 
ATOM     26  H8  UNL     1      19.370  45.114  99.789  1.00  0.00     0.168 HD
BRANCH  19  27
HETATM   27  N1  UNL     1      17.453  38.679  99.858  1.00  0.00    -0.234 N 
ATOM     28  H12 UNL     1      17.943  38.052  99.219  1.00  0.00     0.174 HD
ATOM     29  H11 UNL     1      16.685  38.186 100.313  1.00  0.00     0.174 HD
ENDBRANCH  19  27
BRANCH  21  30
HETATM   30  C21 UNL     1      17.640  39.899 102.536  1.00  0.00     0.169 C 
BRANCH  30  31
HETATM   31  C22 UNL     1      16.646  40.759 103.304  1.00  0.00     0.143 C 
BRANCH  31  32
HETATM   32  N11 UNL     1      15.293  40.566 102.836  1.00  0.00    -0.365 N 
HETATM   33  C23 UNL     1      14.654  41.555 102.347  1.00  0.00     0.197 C 
HETATM   34  N12 UNL     1      15.255  42.825 102.260  1.00  0.00    -0.067 NA
HETATM   35  N13 UNL     1      13.330  41.372 101.890  1.00  0.00    -0.067 NA
ATOM     36  H11 UNL     1      14.853  39.648 102.896  1.00  0.00     0.161 HD
ENDBRANCH  31  32
ENDBRANCH  30  31
ENDBRANCH  21  30
ENDBRANCH  13  15
ENDBRANCH   1  13
BRANCH   2  37
HETATM   37  O1  UNL     1      20.888  45.245  97.832  1.00  0.00    -0.357 OA
ATOM     38  H1  UNL     1      20.302  45.897  97.466  1.00  0.00     0.217 HD
ENDBRANCH   2  37
BRANCH  10  39
HETATM   39  C12 UNL     1      21.418  40.553  94.850  1.00  0.00     0.164 C 
BRANCH  39  40
HETATM   40  C13 UNL     1      20.777  40.819  93.510  1.00  0.00     0.292 C 
BRANCH  40  41
HETATM   41  N6  UNL     1      19.649  40.012  93.231  1.00  0.00     0.093 N 
HETATM   42  C14 UNL     1      19.627  38.708  93.791  1.00  0.00     0.291 C 
HETATM   43  C15 UNL     1      20.240  37.633  92.962  1.00  0.00     0.144 C 
HETATM   44  N7  UNL     1      20.925  38.078  91.789  1.00  0.00    -0.418 N 
HETATM   45  C16 UNL     1      20.252  39.075  91.031  1.00  0.00     0.144 C 
ATOM     46  H7  UNL     1      21.834  37.706  91.514  1.00  0.00     0.153 HD
HETATM   47  C17 UNL     1      19.349  39.969  91.840  1.00  0.00     0.291 C 
ENDBRANCH  40  41
ENDBRANCH  39  40
ENDBRANCH  10  39
BRANCH   6  48
HETATM   48  C10 UNL     1      25.493  43.204  93.794  1.00  0.00     0.226 C 
HETATM   49  O2  UNL     1      26.418  44.032  93.648  1.00  0.00    -0.643 OA
HETATM   50  O3  UNL     1      25.567  42.005  93.110  1.00  0.00    -0.643 OA
ENDBRANCH   6  48
TORSDOF 11
ENDMDL
MODEL 4
REMARK VINA RESULT: -9.234913123      2.624      4.682
REMARK  11 active torsions:
REMARK  status: ('A' for Active; 'I' for Inactive)
REMARK    1  A    between atoms: N1_1  and  C1_4 
REMARK    2  A    between atoms: C3_8  and  N3_9 
REMARK    3  A    between atoms: N3_9  and  C4_11 
REMARK    4  A    between atoms: C5_12  and  O1_13 
REMARK    5  A    between atoms: C9_18  and  C10_19 
REMARK    6  A    between atoms: N5_25  and  C12_26 
REMARK    7  A    between atoms: C12_26  and  C13_27 
REMARK    8  A    between atoms: C13_27  and  N6_28 
REMARK    9  A    between atoms: N10_43  and  C21_44 
REMARK   10  A    between atoms: C21_44  and  C22_45 
REMARK   11  A    between atoms: C22_45  and  N11_46 
ROOT
HETATM    1  C4  UNL     1      19.536  41.608  97.067  1.00  0.00     0.137 A 
HETATM    2  C5  UNL     1      19.823  40.306  96.731  1.00  0.00     0.112 A 
HETATM    3  C6  UNL     1      19.472  39.241  97.555  1.00  0.00     0.044 A 
HETATM    4  C7  UNL     1      19.760  37.945  97.218  1.00  0.00     0.021 A 
HETATM    5  C8  UNL     1      19.389  36.941  98.071  1.00  0.00     0.038 A 
HETATM    6  C9  UNL     1      18.740  37.251  99.244  1.00  0.00     0.111 A 
HETATM    7  N4  UNL     1      18.477  38.528  99.537  1.00  0.00    -0.336 N 
ATOM      8  H4  UNL     1      17.993  38.730 100.412  1.00  0.00     0.168 HD
HETATM    9  C11 UNL     1      18.815  39.572  98.737  1.00  0.00     0.124 A 
HETATM   10  N5  UNL     1      18.524  40.839  99.087  1.00  0.00    -0.296 N 
HETATM   11  C18 UNL     1      18.883  41.843  98.257  1.00  0.00     0.279 A 
HETATM   12  O4  UNL     1      18.596  43.002  98.615  1.00  0.00    -0.265 OA
ENDROOT
BRANCH   1  13
HETATM   13  N3  UNL     1      19.893  42.664  96.235  1.00  0.00    -0.334 N 
ATOM     14  H3  UNL     1      19.207  42.902  95.519  1.00  0.00     0.168 HD
BRANCH  13  15
HETATM   15  C3  UNL     1      20.940  43.373  96.232  1.00  0.00     0.138 A 
HETATM   16  C2  UNL     1      21.871  43.114  95.244  1.00  0.00     0.138 A 
HETATM   17  N2  UNL     1      21.920  42.221  94.222  1.00  0.00    -0.184 N 
HETATM   18  C20 UNL     1      23.036  43.839  95.168  1.00  0.00     0.155 A 
HETATM   19  C1  UNL     1      23.074  42.410  93.561  1.00  0.00     0.680 A 
ATOM     20  H2  UNL     1      21.205  41.529  93.995  1.00  0.00     0.184 HD
HETATM   21  N10 UNL     1      23.774  43.400  94.129  1.00  0.00    -0.165 N 
HETATM   22  N9  UNL     1      23.229  44.808  96.092  1.00  0.00    -0.336 N 
HETATM   23  C19 UNL     1      22.333  45.067  97.052  1.00  0.00     0.183 A 
ATOM     24  H9  UNL     1      24.086  45.359  96.056  1.00  0.00     0.168 HD
HETATM   25  N8  UNL     1      21.202  44.351  97.114  1.00  0.00    -0.337 N 
ATOM     26  H8  UNL     1      20.525  44.555  97.848  1.00  0.00     0.168 HD
BRANCH  19  27
HETATM   27  N1  UNL     1      23.510  41.763  92.520  1.00  0.00    -0.234 N 
ATOM     28  H12 UNL     1      24.473  41.435  92.449  1.00  0.00     0.174 HD
ATOM     29  H11 UNL     1      22.989  41.507  91.681  1.00  0.00     0.174 HD
ENDBRANCH  19  27
BRANCH  21  30
HETATM   30  C21 UNL     1      25.064  43.943  93.755  1.00  0.00     0.169 C 
BRANCH  30  31
HETATM   31  C22 UNL     1      26.164  42.940  94.070  1.00  0.00     0.143 C 
BRANCH  31  32
HETATM   32  N11 UNL     1      26.833  42.480  92.874  1.00  0.00    -0.365 N 
HETATM   33  C23 UNL     1      26.899  41.229  92.637  1.00  0.00     0.197 C 
HETATM   34  N12 UNL     1      26.328  40.300  93.526  1.00  0.00    -0.067 NA
HETATM   35  N13 UNL     1      27.553  40.775  91.471  1.00  0.00    -0.067 NA
ATOM     36  H11 UNL     1      27.247  43.149  92.227  1.00  0.00     0.161 HD
ENDBRANCH  31  32
ENDBRANCH  30  31
ENDBRANCH  21  30
ENDBRANCH  13  15
ENDBRANCH   1  13
BRANCH   2  37
HETATM   37  O1  UNL     1      20.478  40.124  95.529  1.00  0.00    -0.357 OA
ATOM     38  H1  UNL     1      20.744  39.233  95.331  1.00  0.00     0.217 HD
ENDBRANCH   2  37
BRANCH  10  39
HETATM   39  C12 UNL     1      17.832  41.108 100.346  1.00  0.00     0.164 C 
BRANCH  39  40
HETATM   40  C13 UNL     1      18.883  41.567 101.326  1.00  0.00     0.292 C 
BRANCH  40  41
HETATM   41  N6  UNL     1      18.382  42.323 102.411  1.00  0.00     0.093 N 
HETATM   42  C14 UNL     1      17.013  42.696 102.366  1.00  0.00     0.291 C 
HETATM   43  C15 UNL     1      16.713  43.993 101.699  1.00  0.00     0.144 C 
HETATM   44  N7  UNL     1      17.818  44.613 101.037  1.00  0.00    -0.418 N 
HETATM   45  C16 UNL     1      19.043  44.608 101.760  1.00  0.00     0.144 C 
ATOM     46  H7  UNL     1      17.735  45.030 100.110  1.00  0.00     0.153 HD
HETATM   47  C17 UNL     1      19.202  43.448 102.708  1.00  0.00     0.291 C 
ENDBRANCH  40  41
ENDBRANCH  39  40
ENDBRANCH  10  39
BRANCH   6  48
HETATM   48  C10 UNL     1      18.345  36.163 100.158  1.00  0.00     0.226 C 
HETATM   49  O2  UNL     1      17.218  35.623 100.121  1.00  0.00    -0.643 OA
HETATM   50  O3  UNL     1      19.258  35.720 101.098  1.00  0.00    -0.643 OA
ENDBRANCH   6  48
TORSDOF 11
ENDMDL
MODEL 5
REMARK VINA RESULT: -9.220368056      3.706      9.700
REMARK  11 active torsions:
REMARK  status: ('A' for Active; 'I' for Inactive)
REMARK    1  A    between atoms: N1_1  and  C1_4 
REMARK    2  A    between atoms: C3_8  and  N3_9 
REMARK    3  A    between atoms: N3_9  and  C4_11 
REMARK    4  A    between atoms: C5_12  and  O1_13 
REMARK    5  A    between atoms: C9_18  and  C10_19 
REMARK    6  A    between atoms: N5_25  and  C12_26 
REMARK    7  A    between atoms: C12_26  and  C13_27 
REMARK    8  A    between atoms: C13_27  and  N6_28 
REMARK    9  A    between atoms: N10_43  and  C21_44 
REMARK   10  A    between atoms: C21_44  and  C22_45 
REMARK   11  A    between atoms: C22_45  and  N11_46 
ROOT
HETATM    1  C4  UNL     1      20.354  43.138  96.970  1.00  0.00     0.137 A 
HETATM    2  C5  UNL     1      21.330  44.104  96.910  1.00  0.00     0.112 A 
HETATM    3  C6  UNL     1      22.481  43.939  96.145  1.00  0.00     0.044 A 
HETATM    4  C7  UNL     1      23.452  44.903  96.087  1.00  0.00     0.021 A 
HETATM    5  C8  UNL     1      24.561  44.680  95.317  1.00  0.00     0.038 A 
HETATM    6  C9  UNL     1      24.679  43.499  94.621  1.00  0.00     0.111 A 
HETATM    7  N4  UNL     1      23.709  42.583  94.702  1.00  0.00    -0.336 N 
ATOM      8  H4  UNL     1      23.821  41.717  94.174  1.00  0.00     0.168 HD
HETATM    9  C11 UNL     1      22.583  42.738  95.446  1.00  0.00     0.124 A 
HETATM   10  N5  UNL     1      21.640  41.779  95.489  1.00  0.00    -0.296 N 
HETATM   11  C18 UNL     1      20.539  41.982  96.246  1.00  0.00     0.279 A 
HETATM   12  O4  UNL     1      19.689  41.069  96.260  1.00  0.00    -0.265 OA
ENDROOT
BRANCH   1  13
HETATM   13  N3  UNL     1      19.209  43.315  97.740  1.00  0.00    -0.334 N 
ATOM     14  H3  UNL     1      18.374  43.581  97.218  1.00  0.00     0.168 HD
BRANCH  13  15
HETATM   15  C3  UNL     1      19.047  43.197  98.988  1.00  0.00     0.138 A 
HETATM   16  C2  UNL     1      18.595  41.974  99.449  1.00  0.00     0.138 A 
HETATM   17  N2  UNL     1      18.267  40.809  98.831  1.00  0.00    -0.184 N 
HETATM   18  C20 UNL     1      18.393  41.760 100.791  1.00  0.00     0.155 A 
HETATM   19  C1  UNL     1      17.883  39.934  99.774  1.00  0.00     0.680 A 
ATOM     20  H2  UNL     1      18.306  40.631  97.827  1.00  0.00     0.184 HD
HETATM   21  N10 UNL     1      17.954  40.500 100.986  1.00  0.00    -0.165 N 
HETATM   22  N9  UNL     1      18.653  42.786 101.632  1.00  0.00    -0.336 N 
HETATM   23  C19 UNL     1      19.091  43.974 101.196  1.00  0.00     0.183 A 
ATOM     24  H9  UNL     1      18.510  42.651 102.633  1.00  0.00     0.168 HD
HETATM   25  N8  UNL     1      19.284  44.167  99.885  1.00  0.00    -0.337 N 
ATOM     26  H8  UNL     1      19.618  45.074  99.560  1.00  0.00     0.168 HD
BRANCH  19  27
HETATM   27  N1  UNL     1      17.489  38.705  99.607  1.00  0.00    -0.234 N 
ATOM     28  H12 UNL     1      17.029  38.395  98.751  1.00  0.00     0.174 HD
ATOM     29  H11 UNL     1      17.577  37.927 100.260  1.00  0.00     0.174 HD
ENDBRANCH  19  27
BRANCH  21  30
HETATM   30  C21 UNL     1      17.640  39.935 102.283  1.00  0.00     0.169 C 
BRANCH  30  31
HETATM   31  C22 UNL     1      16.778  40.903 103.079  1.00  0.00     0.143 C 
BRANCH  31  32
HETATM   32  N11 UNL     1      15.376  40.772 102.751  1.00  0.00    -0.365 N 
HETATM   33  C23 UNL     1      14.737  41.788 102.322  1.00  0.00     0.197 C 
HETATM   34  N12 UNL     1      15.383  43.028 102.165  1.00  0.00    -0.067 NA
HETATM   35  N13 UNL     1      13.367  41.664 102.002  1.00  0.00    -0.067 NA
ATOM     36  H11 UNL     1      14.904  39.875 102.863  1.00  0.00     0.161 HD
ENDBRANCH  31  32
ENDBRANCH  30  31
ENDBRANCH  21  30
ENDBRANCH  13  15
ENDBRANCH   1  13
BRANCH   2  37
HETATM   37  O1  UNL     1      21.097  45.244  97.654  1.00  0.00    -0.357 OA
ATOM     38  H1  UNL     1      21.869  45.727  97.926  1.00  0.00     0.217 HD
ENDBRANCH   2  37
BRANCH  10  39
HETATM   39  C12 UNL     1      21.820  40.544  94.727  1.00  0.00     0.164 C 
BRANCH  39  40
HETATM   40  C13 UNL     1      21.237  40.793  93.358  1.00  0.00     0.292 C 
BRANCH  40  41
HETATM   41  N6  UNL     1      21.448  39.746  92.432  1.00  0.00     0.093 N 
HETATM   42  C14 UNL     1      21.281  40.051  91.056  1.00  0.00     0.291 C 
HETATM   43  C15 UNL     1      19.907  39.868  90.510  1.00  0.00     0.144 C 
HETATM   44  N7  UNL     1      18.897  39.576  91.478  1.00  0.00    -0.418 N 
HETATM   45  C16 UNL     1      19.255  38.617  92.464  1.00  0.00     0.144 C 
ATOM     46  H7  UNL     1      17.981  40.024  91.462  1.00  0.00     0.153 HD
HETATM   47  C17 UNL     1      20.728  38.567  92.779  1.00  0.00     0.291 C 
ENDBRANCH  40  41
ENDBRANCH  39  40
ENDBRANCH  10  39
BRANCH   6  48
HETATM   48  C10 UNL     1      25.878  43.266  93.793  1.00  0.00     0.226 C 
HETATM   49  O2  UNL     1      26.644  44.188  93.437  1.00  0.00    -0.643 OA
HETATM   50  O3  UNL     1      26.170  41.975  93.394  1.00  0.00    -0.643 OA
ENDBRANCH   6  48
TORSDOF 11
ENDMDL
