MODEL 1
REMARK VINA RESULT: -5.588161490      0.000      0.000
REMARK  3 active torsions:
REMARK  status: ('A' for Active; 'I' for Inactive)
REMARK    1  A    between atoms: N1_2  and  C2_3 
REMARK    2  A    between atoms: N1_2  and  C3_9 
REMARK    3  A    between atoms: C2_3  and  N2_4 
ROOT
HETATM    1  C1  UNL     1      28.139  10.891  48.509  1.00  0.00     0.312 C 
HETATM    2  N1  UNL     1      28.672   9.921  47.530  1.00  0.00     0.107 N 
ENDROOT
BRANCH   2   3
HETATM    3  C2  UNL     1      29.933   9.493  48.137  1.00  0.00     0.411 C 
BRANCH   3   4
HETATM    4  N2  UNL     1      30.351  10.311  49.217  1.00  0.00    -0.316 N 
HETATM    5  N3  UNL     1      31.527  10.768  49.234  1.00  0.00    -0.348 N 
ATOM      6  H32 UNL     1      32.161  10.540  48.468  1.00  0.00     0.176 HD
ATOM      7  H31 UNL     1      31.828  11.357  50.010  1.00  0.00     0.176 HD
ATOM      8  H2  UNL     1      29.704  10.530  49.975  1.00  0.00     0.181 HD
ENDBRANCH   3   4
ENDBRANCH   2   3
BRANCH   2   9
HETATM    9  C3  UNL     1      27.736   8.803  47.575  1.00  0.00     0.224 C 
HETATM   10  C4  UNL     1      26.702   8.908  48.634  1.00  0.00     0.036 C 
HETATM   11  C5  UNL     1      26.650   7.722  49.570  1.00  0.00     0.002 C 
HETATM   12  C6  UNL     1      26.614   6.398  48.883  1.00  0.00     0.000 C 
HETATM   13  C7  UNL     1      27.342   6.413  47.572  1.00  0.00     0.002 C 
HETATM   14  C8  UNL     1      28.449   7.463  47.701  1.00  0.00     0.036 C 
ENDBRANCH   2   9
TORSDOF 3
ENDMDL
MODEL 2
REMARK VINA RESULT: -5.510978730      1.090      1.922
REMARK  3 active torsions:
REMARK  status: ('A' for Active; 'I' for Inactive)
REMARK    1  A    between atoms: N1_2  and  C2_3 
REMARK    2  A    between atoms: N1_2  and  C3_9 
REMARK    3  A    between atoms: C2_3  and  N2_4 
ROOT
HETATM    1  C1  UNL     1      29.053   9.013  46.552  1.00  0.00     0.312 C 
HETATM    2  N1  UNL     1      29.622   9.066  47.916  1.00  0.00     0.107 N 
ENDROOT
BRANCH   2   3
HETATM    3  C2  UNL     1      29.199  10.380  48.402  1.00  0.00     0.411 C 
BRANCH   3   4
HETATM    4  N2  UNL     1      30.273  11.279  48.619  1.00  0.00    -0.316 N 
HETATM    5  N3  UNL     1      31.329  10.866  49.172  1.00  0.00    -0.348 N 
ATOM      6  H32 UNL     1      31.394   9.888  49.456  1.00  0.00     0.176 HD
ATOM      7  H31 UNL     1      32.103  11.512  49.328  1.00  0.00     0.176 HD
ATOM      8  H2  UNL     1      30.193  12.253  48.329  1.00  0.00     0.181 HD
ENDBRANCH   3   4
ENDBRANCH   2   3
BRANCH   2   9
HETATM    9  C3  UNL     1      28.891   8.043  48.657  1.00  0.00     0.224 C 
HETATM   10  C4  UNL     1      28.323   6.961  47.816  1.00  0.00     0.036 C 
HETATM   11  C5  UNL     1      26.834   6.761  47.985  1.00  0.00     0.002 C 
HETATM   12  C6  UNL     1      26.385   6.661  49.404  1.00  0.00     0.000 C 
HETATM   13  C7  UNL     1      27.245   7.463  50.336  1.00  0.00     0.002 C 
HETATM   14  C8  UNL     1      27.788   8.640  49.521  1.00  0.00     0.036 C 
ENDBRANCH   2   9
TORSDOF 3
ENDMDL
MODEL 3
REMARK VINA RESULT: -5.303694448      0.915      1.711
REMARK  3 active torsions:
REMARK  status: ('A' for Active; 'I' for Inactive)
REMARK    1  A    between atoms: N1_2  and  C2_3 
REMARK    2  A    between atoms: N1_2  and  C3_9 
REMARK    3  A    between atoms: C2_3  and  N2_4 
ROOT
HETATM    1  C1  UNL     1      26.960  10.718  48.676  1.00  0.00     0.312 C 
HETATM    2  N1  UNL     1      28.214  10.324  48.001  1.00  0.00     0.107 N 
ENDROOT
BRANCH   2   3
HETATM    3  C2  UNL     1      29.248  10.938  48.835  1.00  0.00     0.411 C 
BRANCH   3   4
HETATM    4  N2  UNL     1      30.466  10.213  48.859  1.00  0.00    -0.316 N 
HETATM    5  N3  UNL     1      31.524  10.785  49.239  1.00  0.00    -0.348 N 
ATOM      6  H32 UNL     1      31.487  11.764  49.525  1.00  0.00     0.176 HD
ATOM      7  H31 UNL     1      32.401  10.263  49.257  1.00  0.00     0.176 HD
ATOM      8  H2  UNL     1      30.486   9.235  48.571  1.00  0.00     0.181 HD
ENDBRANCH   3   4
ENDBRANCH   2   3
BRANCH   2   9
HETATM    9  C3  UNL     1      28.283   8.876  48.173  1.00  0.00     0.224 C 
HETATM   10  C4  UNL     1      28.693   8.131  46.958  1.00  0.00     0.036 C 
HETATM   11  C5  UNL     1      27.720   7.055  46.532  1.00  0.00     0.002 C 
HETATM   12  C6  UNL     1      27.296   6.141  47.632  1.00  0.00     0.000 C 
HETATM   13  C7  UNL     1      27.276   6.823  48.969  1.00  0.00     0.002 C 
HETATM   14  C8  UNL     1      26.976   8.300  48.699  1.00  0.00     0.036 C 
ENDBRANCH   2   9
TORSDOF 3
ENDMDL
MODEL 4
REMARK VINA RESULT: -5.107338376      0.995      1.216
REMARK  3 active torsions:
REMARK  status: ('A' for Active; 'I' for Inactive)
REMARK    1  A    between atoms: N1_2  and  C2_3 
REMARK    2  A    between atoms: N1_2  and  C3_9 
REMARK    3  A    between atoms: C2_3  and  N2_4 
ROOT
HETATM    1  C1  UNL     1      29.484   9.331  46.552  1.00  0.00     0.312 C 
HETATM    2  N1  UNL     1      29.426   9.129  48.015  1.00  0.00     0.107 N 
ENDROOT
BRANCH   2   3
HETATM    3  C2  UNL     1      29.388  10.495  48.539  1.00  0.00     0.411 C 
BRANCH   3   4
HETATM    4  N2  UNL     1      30.378  10.756  49.518  1.00  0.00    -0.316 N 
HETATM    5  N3  UNL     1      31.597  10.740  49.193  1.00  0.00    -0.348 N 
ATOM      6  H32 UNL     1      31.852  10.538  48.225  1.00  0.00     0.176 HD
ATOM      7  H31 UNL     1      32.310  10.928  49.897  1.00  0.00     0.176 HD
ATOM      8  H2  UNL     1      30.107  10.957  50.481  1.00  0.00     0.181 HD
ENDBRANCH   3   4
ENDBRANCH   2   3
BRANCH   2   9
HETATM    9  C3  UNL     1      28.125   8.510  48.247  1.00  0.00     0.224 C 
HETATM   10  C4  UNL     1      27.571   8.733  49.605  1.00  0.00     0.036 C 
HETATM   11  C5  UNL     1      27.218   7.464  50.347  1.00  0.00     0.002 C 
HETATM   12  C6  UNL     1      26.396   6.500  49.559  1.00  0.00     0.000 C 
HETATM   13  C7  UNL     1      26.682   6.572  48.088  1.00  0.00     0.002 C 
HETATM   14  C8  UNL     1      28.141   7.017  47.950  1.00  0.00     0.036 C 
ENDBRANCH   2   9
TORSDOF 3
ENDMDL
MODEL 5
REMARK VINA RESULT: -5.078962365      2.515      4.534
REMARK  3 active torsions:
REMARK  status: ('A' for Active; 'I' for Inactive)
REMARK    1  A    between atoms: N1_2  and  C2_3 
REMARK    2  A    between atoms: N1_2  and  C3_9 
REMARK    3  A    between atoms: C2_3  and  N2_4 
ROOT
HETATM    1  C1  UNL     1      27.723   6.740  47.265  1.00  0.00     0.312 C 
HETATM    2  N1  UNL     1      26.920   7.869  47.781  1.00  0.00     0.107 N 
ENDROOT
BRANCH   2   3
HETATM    3  C2  UNL     1      26.785   7.559  49.205  1.00  0.00     0.411 C 
BRANCH   3   4
HETATM    4  N2  UNL     1      26.131   6.327  49.459  1.00  0.00    -0.316 N 
HETATM    5  N3  UNL     1      25.053   6.317  50.114  1.00  0.00    -0.348 N 
ATOM      6  H32 UNL     1      24.668   7.199  50.453  1.00  0.00     0.176 HD
ATOM      7  H31 UNL     1      24.583   5.431  50.297  1.00  0.00     0.176 HD
ATOM      8  H2  UNL     1      26.530   5.454  49.113  1.00  0.00     0.181 HD
ENDBRANCH   3   4
ENDBRANCH   2   3
BRANCH   2   9
HETATM    9  C3  UNL     1      27.791   9.032  47.643  1.00  0.00     0.224 C 
HETATM   10  C4  UNL     1      29.104   8.746  47.015  1.00  0.00     0.036 C 
HETATM   11  C5  UNL     1      30.295   9.171  47.844  1.00  0.00     0.002 C 
HETATM   12  C6  UNL     1      30.214  10.569  48.362  1.00  0.00     0.000 C 
HETATM   13  C7  UNL     1      28.802  11.005  48.617  1.00  0.00     0.002 C 
HETATM   14  C8  UNL     1      28.013   9.741  48.972  1.00  0.00     0.036 C 
ENDBRANCH   2   9
TORSDOF 3
ENDMDL
