MODEL 1
REMARK VINA RESULT: -3.516159658      0.000      0.000
REMARK  5 active torsions:
REMARK  status: ('A' for Active; 'I' for Inactive)
REMARK    1  A    between atoms: N1_2  and  C4_5 
REMARK    2  A    between atoms: C4_5  and  C5_6 
REMARK    3  A    between atoms: C6_7  and  N2_8 
REMARK    4  A    between atoms: C8_13  and  C9_14 
REMARK    5  A    between atoms: C9_14  and  N3_15 
ROOT
HETATM    1  C5  UNL     1      27.452   8.503  48.523  1.00  0.00     0.048 C 
HETATM    2  C6  UNL     1      26.758   7.835  49.723  1.00  0.00     0.190 C 
HETATM    3  C7  UNL     1      26.561   6.640  48.814  1.00  0.00     0.040 C 
HETATM    4  C8  UNL     1      27.824   7.122  48.085  1.00  0.00     0.021 C 
ENDROOT
BRANCH   1   5
HETATM    5  C4  UNL     1      28.531   9.392  49.027  1.00  0.00     0.243 C 
BRANCH   5   6
HETATM    6  N1  UNL     1      29.576   9.715  48.125  1.00  0.00    -0.078 N 
HETATM    7  C1  UNL     1      29.964  11.109  48.405  1.00  0.00     0.271 C 
HETATM    8  C2  UNL     1      30.788   8.935  48.337  1.00  0.00     0.271 C 
HETATM    9  C3  UNL     1      29.241   9.648  46.738  1.00  0.00     0.271 C 
ENDBRANCH   5   6
ENDBRANCH   1   5
BRANCH   2  10
HETATM   10  N2  UNL     1      27.680   7.539  50.804  1.00  0.00    -0.075 N 
ATOM     11  H23 UNL     1      28.635   7.784  50.548  1.00  0.00     0.274 HD
ATOM     12  H22 UNL     1      27.548   8.183  51.584  1.00  0.00     0.274 HD
ATOM     13  H21 UNL     1      27.621   6.570  51.114  1.00  0.00     0.274 HD
ENDBRANCH   2  10
BRANCH   4  14
HETATM   14  C9  UNL     1      27.739   6.832  46.606  1.00  0.00     0.234 C 
BRANCH  14  15
HETATM   15  N3  UNL     1      27.893   5.377  46.463  1.00  0.00    -0.079 N 
ATOM     16  H33 UNL     1      27.698   4.862  47.322  1.00  0.00     0.274 HD
ATOM     17  H32 UNL     1      27.167   4.947  45.891  1.00  0.00     0.274 HD
ATOM     18  H31 UNL     1      28.836   5.224  46.105  1.00  0.00     0.274 HD
ENDBRANCH  14  15
ENDBRANCH   4  14
TORSDOF 5
ENDMDL
MODEL 2
REMARK VINA RESULT: -2.920290930      1.557      4.498
REMARK  5 active torsions:
REMARK  status: ('A' for Active; 'I' for Inactive)
REMARK    1  A    between atoms: N1_2  and  C4_5 
REMARK    2  A    between atoms: C4_5  and  C5_6 
REMARK    3  A    between atoms: C6_7  and  N2_8 
REMARK    4  A    between atoms: C8_13  and  C9_14 
REMARK    5  A    between atoms: C9_14  and  N3_15 
ROOT
HETATM    1  C5  UNL     1      28.610   9.287  48.542  1.00  0.00     0.048 C 
HETATM    2  C6  UNL     1      28.447   9.205  47.014  1.00  0.00     0.190 C 
HETATM    3  C7  UNL     1      29.430  10.356  46.950  1.00  0.00     0.040 C 
HETATM    4  C8  UNL     1      29.984   9.814  48.277  1.00  0.00     0.021 C 
ENDROOT
BRANCH   1   5
HETATM    5  C4  UNL     1      28.484   7.918  49.110  1.00  0.00     0.243 C 
BRANCH   5   6
HETATM    6  N1  UNL     1      27.173   7.443  49.363  1.00  0.00    -0.078 N 
HETATM    7  C1  UNL     1      26.257   8.570  49.115  1.00  0.00     0.271 C 
HETATM    8  C2  UNL     1      26.746   6.399  48.441  1.00  0.00     0.271 C 
HETATM    9  C3  UNL     1      26.923   6.991  50.694  1.00  0.00     0.271 C 
ENDBRANCH   5   6
ENDBRANCH   1   5
BRANCH   2  10
HETATM   10  N2  UNL     1      29.009   7.989  46.458  1.00  0.00    -0.075 N 
ATOM     11  H23 UNL     1      28.496   7.169  46.779  1.00  0.00     0.274 HD
ATOM     12  H22 UNL     1      28.819   7.922  45.458  1.00  0.00     0.274 HD
ATOM     13  H21 UNL     1      30.006   7.896  46.649  1.00  0.00     0.274 HD
ENDBRANCH   2  10
BRANCH   4  14
HETATM   14  C9  UNL     1      30.464  10.939  49.162  1.00  0.00     0.234 C 
BRANCH  14  15
HETATM   15  N3  UNL     1      31.922  10.789  49.263  1.00  0.00    -0.079 N 
ATOM     16  H33 UNL     1      32.400  10.856  48.364  1.00  0.00     0.274 HD
ATOM     17  H32 UNL     1      32.382  11.584  49.709  1.00  0.00     0.274 HD
ATOM     18  H31 UNL     1      32.086   9.904  49.744  1.00  0.00     0.274 HD
ENDBRANCH  14  15
ENDBRANCH   4  14
TORSDOF 5
ENDMDL
MODEL 3
REMARK VINA RESULT: -2.774718480      1.466      2.605
REMARK  5 active torsions:
REMARK  status: ('A' for Active; 'I' for Inactive)
REMARK    1  A    between atoms: N1_2  and  C4_5 
REMARK    2  A    between atoms: C4_5  and  C5_6 
REMARK    3  A    between atoms: C6_7  and  N2_8 
REMARK    4  A    between atoms: C8_13  and  C9_14 
REMARK    5  A    between atoms: C9_14  and  N3_15 
ROOT
HETATM    1  C5  UNL     1      28.219   7.898  48.775  1.00  0.00     0.048 C 
HETATM    2  C6  UNL     1      28.138   7.424  47.313  1.00  0.00     0.190 C 
HETATM    3  C7  UNL     1      27.154   6.385  47.811  1.00  0.00     0.040 C 
HETATM    4  C8  UNL     1      26.819   7.392  48.922  1.00  0.00     0.021 C 
ENDROOT
BRANCH   1   5
HETATM    5  C4  UNL     1      28.437   9.368  48.790  1.00  0.00     0.243 C 
BRANCH   5   6
HETATM    6  N1  UNL     1      29.751   9.828  48.520  1.00  0.00    -0.078 N 
HETATM    7  C1  UNL     1      29.688  10.571  47.249  1.00  0.00     0.271 C 
HETATM    8  C2  UNL     1      30.240  10.792  49.497  1.00  0.00     0.271 C 
HETATM    9  C3  UNL     1      30.743   8.814  48.359  1.00  0.00     0.271 C 
ENDBRANCH   5   6
ENDBRANCH   1   5
BRANCH   2  10
HETATM   10  N2  UNL     1      27.498   8.396  46.448  1.00  0.00    -0.075 N 
ATOM     11  H23 UNL     1      27.294   9.258  46.953  1.00  0.00     0.274 HD
ATOM     12  H22 UNL     1      28.154   8.761  45.758  1.00  0.00     0.274 HD
ATOM     13  H21 UNL     1      26.659   8.028  45.999  1.00  0.00     0.274 HD
ENDBRANCH   2  10
BRANCH   4  14
HETATM   14  C9  UNL     1      26.483   6.684  50.212  1.00  0.00     0.234 C 
BRANCH  14  15
HETATM   15  N3  UNL     1      25.060   6.328  50.127  1.00  0.00    -0.079 N 
ATOM     16  H33 UNL     1      24.454   6.946  50.667  1.00  0.00     0.274 HD
ATOM     17  H32 UNL     1      24.649   6.517  49.213  1.00  0.00     0.274 HD
ATOM     18  H31 UNL     1      24.993   5.350  50.408  1.00  0.00     0.274 HD
ENDBRANCH  14  15
ENDBRANCH   4  14
TORSDOF 5
ENDMDL
MODEL 4
REMARK VINA RESULT: -2.639370491      9.219     10.621
REMARK  5 active torsions:
REMARK  status: ('A' for Active; 'I' for Inactive)
REMARK    1  A    between atoms: N1_2  and  C4_5 
REMARK    2  A    between atoms: C4_5  and  C5_6 
REMARK    3  A    between atoms: C6_7  and  N2_8 
REMARK    4  A    between atoms: C8_13  and  C9_14 
REMARK    5  A    between atoms: C9_14  and  N3_15 
ROOT
HETATM    1  C5  UNL     1      23.936  16.308  44.940  1.00  0.00     0.048 C 
HETATM    2  C6  UNL     1      22.736  16.912  45.691  1.00  0.00     0.190 C 
HETATM    3  C7  UNL     1      23.483  16.560  46.960  1.00  0.00     0.040 C 
HETATM    4  C8  UNL     1      24.762  16.709  46.121  1.00  0.00     0.021 C 
ENDROOT
BRANCH   1   5
HETATM    5  C4  UNL     1      24.128  17.053  43.667  1.00  0.00     0.243 C 
BRANCH   5   6
HETATM    6  N1  UNL     1      23.899  16.341  42.463  1.00  0.00    -0.078 N 
HETATM    7  C1  UNL     1      23.083  17.215  41.601  1.00  0.00     0.271 C 
HETATM    8  C2  UNL     1      25.114  16.085  41.700  1.00  0.00     0.271 C 
HETATM    9  C3  UNL     1      23.189  15.109  42.595  1.00  0.00     0.271 C 
ENDBRANCH   5   6
ENDBRANCH   1   5
BRANCH   2  10
HETATM   10  N2  UNL     1      22.632  18.347  45.511  1.00  0.00    -0.075 N 
ATOM     11  H23 UNL     1      23.278  18.841  46.127  1.00  0.00     0.274 HD
ATOM     12  H22 UNL     1      23.014  18.632  44.609  1.00  0.00     0.274 HD
ATOM     13  H21 UNL     1      21.679  18.689  45.631  1.00  0.00     0.274 HD
ENDBRANCH   2  10
BRANCH   4  14
HETATM   14  C9  UNL     1      25.822  15.735  46.572  1.00  0.00     0.234 C 
BRANCH  14  15
HETATM   15  N3  UNL     1      26.829  16.527  47.292  1.00  0.00    -0.079 N 
ATOM     16  H33 UNL     1      27.144  17.349  46.776  1.00  0.00     0.274 HD
ATOM     17  H32 UNL     1      26.453  17.023  48.100  1.00  0.00     0.274 HD
ATOM     18  H31 UNL     1      27.585  15.883  47.528  1.00  0.00     0.274 HD
ENDBRANCH  14  15
ENDBRANCH   4  14
TORSDOF 5
ENDMDL
MODEL 5
REMARK VINA RESULT: -2.554476816      1.475      2.450
REMARK  5 active torsions:
REMARK  status: ('A' for Active; 'I' for Inactive)
REMARK    1  A    between atoms: N1_2  and  C4_5 
REMARK    2  A    between atoms: C4_5  and  C5_6 
REMARK    3  A    between atoms: C6_7  and  N2_8 
REMARK    4  A    between atoms: C8_13  and  C9_14 
REMARK    5  A    between atoms: C9_14  and  N3_15 
ROOT
HETATM    1  C5  UNL     1      28.203   7.918  48.774  1.00  0.00     0.048 C 
HETATM    2  C6  UNL     1      28.130   7.456  47.308  1.00  0.00     0.190 C 
HETATM    3  C7  UNL     1      27.161   6.398  47.796  1.00  0.00     0.040 C 
HETATM    4  C8  UNL     1      26.811   7.390  48.916  1.00  0.00     0.021 C 
ENDROOT
BRANCH   1   5
HETATM    5  C4  UNL     1      28.399   9.391  48.803  1.00  0.00     0.243 C 
BRANCH   5   6
HETATM    6  N1  UNL     1      29.687   9.878  48.465  1.00  0.00    -0.078 N 
HETATM    7  C1  UNL     1      30.122  10.739  49.578  1.00  0.00     0.271 C 
HETATM    8  C2  UNL     1      30.697   8.831  48.378  1.00  0.00     0.271 C 
HETATM    9  C3  UNL     1      29.760  10.667  47.276  1.00  0.00     0.271 C 
ENDBRANCH   5   6
ENDBRANCH   1   5
BRANCH   2  10
HETATM   10  N2  UNL     1      27.475   8.427  46.452  1.00  0.00    -0.075 N 
ATOM     11  H23 UNL     1      27.484   9.354  46.875  1.00  0.00     0.274 HD
ATOM     12  H22 UNL     1      28.034   8.619  45.621  1.00  0.00     0.274 HD
ATOM     13  H21 UNL     1      26.526   8.149  46.199  1.00  0.00     0.274 HD
ENDBRANCH   2  10
BRANCH   4  14
HETATM   14  C9  UNL     1      26.486   6.664  50.199  1.00  0.00     0.234 C 
BRANCH  14  15
HETATM   15  N3  UNL     1      25.060   6.316  50.124  1.00  0.00    -0.079 N 
ATOM     16  H33 UNL     1      24.878   5.321  50.256  1.00  0.00     0.274 HD
ATOM     17  H32 UNL     1      24.519   6.649  50.922  1.00  0.00     0.274 HD
ATOM     18  H31 UNL     1      24.725   6.673  49.229  1.00  0.00     0.274 HD
ENDBRANCH  14  15
ENDBRANCH   4  14
TORSDOF 5
ENDMDL
