MODEL 1
REMARK VINA RESULT: -4.783132624      0.000      0.000
REMARK  3 active torsions:
REMARK  status: ('A' for Active; 'I' for Inactive)
REMARK    1  A    between atoms: C2_2  and  N1_3 
REMARK    2  A    between atoms: C6_7  and  C7_8 
REMARK    3  A    between atoms: C7_8  and  N2_9 
ROOT
HETATM    1  N1  UNL     1      27.458   7.944  48.209  1.00  0.00     0.007 N 
HETATM    2  C3  UNL     1      26.688   9.024  48.828  1.00  0.00     0.297 C 
HETATM    3  C4  UNL     1      27.670   8.188  46.796  1.00  0.00     0.262 C 
HETATM    4  C5  UNL     1      29.093   8.734  46.677  1.00  0.00     0.054 C 
HETATM    5  C6  UNL     1      29.307   9.143  48.120  1.00  0.00     0.134 C 
HETATM    6  N3  UNL     1      28.747   8.000  48.801  1.00  0.00    -0.040 NA
ENDROOT
BRANCH   5   7
HETATM    7  C7  UNL     1      30.760   9.371  48.436  1.00  0.00     0.254 C 
BRANCH   7   8
HETATM    8  N2  UNL     1      30.826  10.616  49.199  1.00  0.00    -0.077 N 
HETATM    9  C8  UNL     1      30.192  11.713  48.497  1.00  0.00     0.267 C 
ATOM     10  H22 UNL     1      30.436  10.500  50.135  1.00  0.00     0.276 HD
ATOM     11  H21 UNL     1      31.787  10.844  49.453  1.00  0.00     0.276 HD
ENDBRANCH   7   8
ENDBRANCH   5   7
BRANCH   1  12
HETATM   12  C2  UNL     1      26.792   6.702  48.480  1.00  0.00     0.255 C 
HETATM   13  C1  UNL     1      26.060   6.680  49.791  1.00  0.00     0.036 C 
ENDBRANCH   1  12
TORSDOF 3
ENDMDL
MODEL 2
REMARK VINA RESULT: -4.623843805      1.373      1.859
REMARK  3 active torsions:
REMARK  status: ('A' for Active; 'I' for Inactive)
REMARK    1  A    between atoms: C2_2  and  N1_3 
REMARK    2  A    between atoms: C6_7  and  C7_8 
REMARK    3  A    between atoms: C7_8  and  N2_9 
ROOT
HETATM    1  N1  UNL     1      27.427   7.787  48.727  1.00  0.00     0.007 N 
HETATM    2  C3  UNL     1      28.022   7.554  50.044  1.00  0.00     0.297 C 
HETATM    3  C4  UNL     1      26.482   8.885  48.761  1.00  0.00     0.262 C 
HETATM    4  C5  UNL     1      27.228  10.094  48.197  1.00  0.00     0.054 C 
HETATM    5  C6  UNL     1      28.647   9.586  48.354  1.00  0.00     0.134 C 
HETATM    6  N3  UNL     1      28.490   8.227  47.895  1.00  0.00    -0.040 NA
ENDROOT
BRANCH   5   7
HETATM    7  C7  UNL     1      29.628  10.381  47.537  1.00  0.00     0.254 C 
BRANCH   7   8
HETATM    8  N2  UNL     1      30.117  11.452  48.404  1.00  0.00    -0.077 N 
HETATM    9  C8  UNL     1      31.140  10.983  49.316  1.00  0.00     0.267 C 
ATOM     10  H22 UNL     1      30.443  12.251  47.860  1.00  0.00     0.276 HD
ATOM     11  H21 UNL     1      29.351  11.901  48.906  1.00  0.00     0.276 HD
ENDBRANCH   7   8
ENDBRANCH   5   7
BRANCH   1  12
HETATM   12  C2  UNL     1      26.854   6.555  48.267  1.00  0.00     0.255 C 
HETATM   13  C1  UNL     1      27.533   5.987  47.053  1.00  0.00     0.036 C 
ENDBRANCH   1  12
TORSDOF 3
ENDMDL
MODEL 3
REMARK VINA RESULT: -4.389890541      1.142      1.546
REMARK  3 active torsions:
REMARK  status: ('A' for Active; 'I' for Inactive)
REMARK    1  A    between atoms: C2_2  and  N1_3 
REMARK    2  A    between atoms: C6_7  and  C7_8 
REMARK    3  A    between atoms: C7_8  and  N2_9 
ROOT
HETATM    1  N1  UNL     1      27.160   7.696  49.163  1.00  0.00     0.007 N 
HETATM    2  C3  UNL     1      27.659   7.622  50.537  1.00  0.00     0.297 C 
HETATM    3  C4  UNL     1      26.452   8.938  48.923  1.00  0.00     0.262 C 
HETATM    4  C5  UNL     1      27.441   9.845  48.189  1.00  0.00     0.054 C 
HETATM    5  C6  UNL     1      28.725   9.119  48.536  1.00  0.00     0.134 C 
HETATM    6  N3  UNL     1      28.313   7.750  48.336  1.00  0.00    -0.040 NA
ENDROOT
BRANCH   5   7
HETATM    7  C7  UNL     1      29.868   9.532  47.651  1.00  0.00     0.254 C 
BRANCH   7   8
HETATM    8  N2  UNL     1      31.027   9.705  48.525  1.00  0.00    -0.077 N 
HETATM    9  C8  UNL     1      30.998  10.980  49.212  1.00  0.00     0.267 C 
ATOM     10  H22 UNL     1      31.114   8.931  49.184  1.00  0.00     0.276 HD
ATOM     11  H21 UNL     1      31.899   9.579  48.013  1.00  0.00     0.276 HD
ENDBRANCH   7   8
ENDBRANCH   5   7
BRANCH   1  12
HETATM   12  C2  UNL     1      26.366   6.529  48.908  1.00  0.00     0.255 C 
HETATM   13  C1  UNL     1      25.337   6.253  49.967  1.00  0.00     0.036 C 
ENDBRANCH   1  12
TORSDOF 3
ENDMDL
MODEL 4
REMARK VINA RESULT: -4.132139206      1.169      4.474
REMARK  3 active torsions:
REMARK  status: ('A' for Active; 'I' for Inactive)
REMARK    1  A    between atoms: C2_2  and  N1_3 
REMARK    2  A    between atoms: C6_7  and  C7_8 
REMARK    3  A    between atoms: C7_8  and  N2_9 
ROOT
HETATM    1  N1  UNL     1      29.090   9.238  47.999  1.00  0.00     0.007 N 
HETATM    2  C3  UNL     1      29.199   9.122  46.545  1.00  0.00     0.297 C 
HETATM    3  C4  UNL     1      27.950  10.048  48.381  1.00  0.00     0.262 C 
HETATM    4  C5  UNL     1      26.852   9.061  48.777  1.00  0.00     0.054 C 
HETATM    5  C6  UNL     1      27.406   7.817  48.113  1.00  0.00     0.134 C 
HETATM    6  N3  UNL     1      28.800   7.931  48.470  1.00  0.00    -0.040 NA
ENDROOT
BRANCH   5   7
HETATM    7  C7  UNL     1      26.760   6.562  48.630  1.00  0.00     0.254 C 
BRANCH   7   8
HETATM    8  N2  UNL     1      26.210   6.892  49.944  1.00  0.00    -0.077 N 
HETATM    9  C8  UNL     1      25.043   6.092  50.256  1.00  0.00     0.267 C 
ATOM     10  H22 UNL     1      26.919   6.813  50.674  1.00  0.00     0.276 HD
ATOM     11  H21 UNL     1      26.009   7.888  50.023  1.00  0.00     0.276 HD
ENDBRANCH   7   8
ENDBRANCH   5   7
BRANCH   1  12
HETATM   12  C2  UNL     1      30.337   9.732  48.508  1.00  0.00     0.255 C 
HETATM   13  C1  UNL     1      30.378  11.226  48.665  1.00  0.00     0.036 C 
ENDBRANCH   1  12
TORSDOF 3
ENDMDL
MODEL 5
REMARK VINA RESULT: -4.055018404      1.424      4.337
REMARK  3 active torsions:
REMARK  status: ('A' for Active; 'I' for Inactive)
REMARK    1  A    between atoms: C2_2  and  N1_3 
REMARK    2  A    between atoms: C6_7  and  C7_8 
REMARK    3  A    between atoms: C7_8  and  N2_9 
ROOT
HETATM    1  N1  UNL     1      28.803  10.085  48.452  1.00  0.00     0.007 N 
HETATM    2  C3  UNL     1      29.455   9.601  47.235  1.00  0.00     0.297 C 
HETATM    3  C4  UNL     1      27.503  10.659  48.164  1.00  0.00     0.262 C 
HETATM    4  C5  UNL     1      26.483   9.579  48.525  1.00  0.00     0.054 C 
HETATM    5  C6  UNL     1      27.408   8.379  48.537  1.00  0.00     0.134 C 
HETATM    6  N3  UNL     1      28.542   8.932  49.237  1.00  0.00    -0.040 NA
ENDROOT
BRANCH   5   7
HETATM    7  C7  UNL     1      26.795   7.197  49.236  1.00  0.00     0.254 C 
BRANCH   7   8
HETATM    8  N2  UNL     1      26.810   6.095  48.275  1.00  0.00    -0.077 N 
HETATM    9  C8  UNL     1      27.583   6.421  47.093  1.00  0.00     0.267 C 
ATOM     10  H22 UNL     1      27.139   5.231  48.706  1.00  0.00     0.276 HD
ATOM     11  H21 UNL     1      25.864   5.803  48.030  1.00  0.00     0.276 HD
ENDBRANCH   7   8
ENDBRANCH   5   7
BRANCH   1  12
HETATM   12  C2  UNL     1      29.695  10.997  49.109  1.00  0.00     0.255 C 
HETATM   13  C1  UNL     1      31.148  10.704  48.866  1.00  0.00     0.036 C 
ENDBRANCH   1  12
TORSDOF 3
ENDMDL
