MODEL 1
REMARK VINA RESULT: -4.544440310      0.000      0.000
REMARK  4 active torsions:
REMARK  status: ('A' for Active; 'I' for Inactive)
REMARK    1  A    between atoms: C2_2  and  C3_3 
REMARK    2  A    between atoms: C3_3  and  C4_4 
REMARK    3  A    between atoms: N1_6  and  C6_7 
REMARK    4  A    between atoms: C6_7  and  N2_8 
ROOT
HETATM    1  C4  UNL     1      35.882  -0.823  39.710  1.00  0.00     0.029 A 
HETATM    2  C5  UNL     1      35.457  -2.067  39.296  1.00  0.00     0.118 A 
HETATM    3  N1  UNL     1      34.410  -1.903  38.467  1.00  0.00    -0.327 N 
HETATM    4  C7  UNL     1      34.207  -0.564  38.386  1.00  0.00     0.184 A 
HETATM    5  N3  UNL     1      35.106   0.089  39.145  1.00  0.00    -0.354 N 
ATOM      6  H3  UNL     1      35.176   1.100  39.263  1.00  0.00     0.166 HD
ENDROOT
BRANCH   3   7
HETATM    7  C6  UNL     1      33.631  -2.916  37.781  1.00  0.00     0.359 C 
BRANCH   7   8
HETATM    8  N2  UNL     1      32.269  -2.973  38.307  1.00  0.00    -0.063 N 
ATOM      9  H23 UNL     1      32.190  -3.642  39.073  1.00  0.00     0.276 HD
ATOM     10  H22 UNL     1      32.027  -2.124  38.817  1.00  0.00     0.276 HD
ATOM     11  H21 UNL     1      31.599  -3.171  37.565  1.00  0.00     0.276 HD
ENDBRANCH   7   8
ENDBRANCH   3   7
BRANCH   1  12
HETATM   12  C3  UNL     1      37.022  -0.615  40.636  1.00  0.00     0.084 C 
BRANCH  12  13
HETATM   13  C2  UNL     1      37.434  -1.964  41.113  1.00  0.00    -0.031 C 
HETATM   14  C1  UNL     1      38.432  -2.086  41.961  1.00  0.00     0.007 C 
ENDBRANCH  12  13
ENDBRANCH   1  12
TORSDOF 4
ENDMDL
MODEL 2
REMARK VINA RESULT: -3.930412995      1.161      1.395
REMARK  4 active torsions:
REMARK  status: ('A' for Active; 'I' for Inactive)
REMARK    1  A    between atoms: C2_2  and  C3_3 
REMARK    2  A    between atoms: C3_3  and  C4_4 
REMARK    3  A    between atoms: N1_6  and  C6_7 
REMARK    4  A    between atoms: C6_7  and  N2_8 
ROOT
HETATM    1  C4  UNL     1      35.989  -1.300  39.262  1.00  0.00     0.029 A 
HETATM    2  C5  UNL     1      34.630  -1.464  39.106  1.00  0.00     0.118 A 
HETATM    3  N1  UNL     1      34.419  -2.259  38.041  1.00  0.00    -0.327 N 
HETATM    4  C7  UNL     1      35.649  -2.569  37.560  1.00  0.00     0.184 A 
HETATM    5  N3  UNL     1      36.602  -1.983  38.307  1.00  0.00    -0.354 N 
ATOM      6  H3  UNL     1      37.610  -2.051  38.164  1.00  0.00     0.166 HD
ENDROOT
BRANCH   3   7
HETATM    7  C6  UNL     1      33.158  -2.714  37.487  1.00  0.00     0.359 C 
BRANCH   7   8
HETATM    8  N2  UNL     1      32.155  -2.877  38.537  1.00  0.00    -0.063 N 
ATOM      9  H23 UNL     1      31.341  -2.284  38.374  1.00  0.00     0.276 HD
ATOM     10  H22 UNL     1      31.697  -3.787  38.481  1.00  0.00     0.276 HD
ATOM     11  H21 UNL     1      32.560  -2.716  39.458  1.00  0.00     0.276 HD
ENDBRANCH   7   8
ENDBRANCH   3   7
BRANCH   1  12
HETATM   12  C3  UNL     1      36.595  -0.481  40.340  1.00  0.00     0.084 C 
BRANCH  12  13
HETATM   13  C2  UNL     1      37.435  -1.402  41.153  1.00  0.00    -0.031 C 
HETATM   14  C1  UNL     1      36.945  -2.552  41.562  1.00  0.00     0.007 C 
ENDBRANCH  12  13
ENDBRANCH   1  12
TORSDOF 4
ENDMDL
MODEL 3
REMARK VINA RESULT: -3.805830031      1.836      4.203
REMARK  4 active torsions:
REMARK  status: ('A' for Active; 'I' for Inactive)
REMARK    1  A    between atoms: C2_2  and  C3_3 
REMARK    2  A    between atoms: C3_3  and  C4_4 
REMARK    3  A    between atoms: N1_6  and  C6_7 
REMARK    4  A    between atoms: C6_7  and  N2_8 
ROOT
HETATM    1  C4  UNL     1      35.059  -0.859  38.931  1.00  0.00     0.029 A 
HETATM    2  C5  UNL     1      35.803  -1.811  39.592  1.00  0.00     0.118 A 
HETATM    3  N1  UNL     1      36.673  -1.181  40.402  1.00  0.00    -0.327 N 
HETATM    4  C7  UNL     1      36.452   0.146  40.225  1.00  0.00     0.184 A 
HETATM    5  N3  UNL     1      35.468   0.337  39.328  1.00  0.00    -0.354 N 
ATOM      6  H3  UNL     1      35.104   1.236  39.012  1.00  0.00     0.166 HD
ENDROOT
BRANCH   3   7
HETATM    7  C6  UNL     1      37.661  -1.759  41.294  1.00  0.00     0.359 C 
BRANCH   7   8
HETATM    8  N2  UNL     1      37.116  -2.919  41.995  1.00  0.00    -0.063 N 
ATOM      9  H23 UNL     1      36.154  -2.761  42.294  1.00  0.00     0.276 HD
ATOM     10  H22 UNL     1      36.955  -3.701  41.360  1.00  0.00     0.276 HD
ATOM     11  H21 UNL     1      37.714  -3.187  42.777  1.00  0.00     0.276 HD
ENDBRANCH   7   8
ENDBRANCH   3   7
BRANCH   1  12
HETATM   12  C3  UNL     1      33.995  -1.188  37.950  1.00  0.00     0.084 C 
BRANCH  12  13
HETATM   13  C2  UNL     1      33.913  -2.673  37.895  1.00  0.00    -0.031 C 
HETATM   14  C1  UNL     1      32.745  -3.272  37.983  1.00  0.00     0.007 C 
ENDBRANCH  12  13
ENDBRANCH   1  12
TORSDOF 4
ENDMDL
MODEL 4
REMARK VINA RESULT: -3.643428488      1.451      1.744
REMARK  4 active torsions:
REMARK  status: ('A' for Active; 'I' for Inactive)
REMARK    1  A    between atoms: C2_2  and  C3_3 
REMARK    2  A    between atoms: C3_3  and  C4_4 
REMARK    3  A    between atoms: N1_6  and  C6_7 
REMARK    4  A    between atoms: C6_7  and  N2_8 
ROOT
HETATM    1  C4  UNL     1      35.735  -1.761  39.705  1.00  0.00     0.029 A 
HETATM    2  C5  UNL     1      35.309  -2.496  38.620  1.00  0.00     0.118 A 
HETATM    3  N1  UNL     1      33.990  -2.290  38.460  1.00  0.00    -0.327 N 
HETATM    4  C7  UNL     1      33.625  -1.434  39.447  1.00  0.00     0.184 A 
HETATM    5  N3  UNL     1      34.691  -1.115  40.203  1.00  0.00    -0.354 N 
ATOM      6  H3  UNL     1      34.695  -0.491  41.010  1.00  0.00     0.166 HD
ENDROOT
BRANCH   3   7
HETATM    7  C6  UNL     1      33.102  -2.846  37.456  1.00  0.00     0.359 C 
BRANCH   7   8
HETATM    8  N2  UNL     1      31.742  -2.976  37.975  1.00  0.00    -0.063 N 
ATOM      9  H23 UNL     1      31.334  -2.067  38.190  1.00  0.00     0.276 HD
ATOM     10  H22 UNL     1      31.090  -3.272  37.249  1.00  0.00     0.276 HD
ATOM     11  H21 UNL     1      31.717  -3.601  38.781  1.00  0.00     0.276 HD
ENDBRANCH   7   8
ENDBRANCH   3   7
BRANCH   1  12
HETATM   12  C3  UNL     1      37.140  -1.743  40.180  1.00  0.00     0.084 C 
BRANCH  12  13
HETATM   13  C2  UNL     1      37.977  -2.236  39.053  1.00  0.00    -0.031 C 
HETATM   14  C1  UNL     1      38.043  -1.550  37.932  1.00  0.00     0.007 C 
ENDBRANCH  12  13
ENDBRANCH   1  12
TORSDOF 4
ENDMDL
MODEL 5
REMARK VINA RESULT: -3.642790655      2.228      4.593
REMARK  4 active torsions:
REMARK  status: ('A' for Active; 'I' for Inactive)
REMARK    1  A    between atoms: C2_2  and  C3_3 
REMARK    2  A    between atoms: C3_3  and  C4_4 
REMARK    3  A    between atoms: N1_6  and  C6_7 
REMARK    4  A    between atoms: C6_7  and  N2_8 
ROOT
HETATM    1  C4  UNL     1      35.537  -1.560  39.024  1.00  0.00     0.029 A 
HETATM    2  C5  UNL     1      35.617  -1.844  40.370  1.00  0.00     0.118 A 
HETATM    3  N1  UNL     1      36.891  -2.163  40.660  1.00  0.00    -0.327 N 
HETATM    4  C7  UNL     1      37.573  -2.071  39.491  1.00  0.00     0.184 A 
HETATM    5  N3  UNL     1      36.744  -1.703  38.498  1.00  0.00    -0.354 N 
ATOM      6  H3  UNL     1      36.997  -1.561  37.520  1.00  0.00     0.166 HD
ENDROOT
BRANCH   3   7
HETATM    7  C6  UNL     1      37.462  -2.535  41.941  1.00  0.00     0.359 C 
BRANCH   7   8
HETATM    8  N2  UNL     1      38.823  -2.023  42.076  1.00  0.00    -0.063 N 
ATOM      9  H23 UNL     1      39.199  -1.715  41.179  1.00  0.00     0.276 HD
ATOM     10  H22 UNL     1      38.842  -1.129  42.566  1.00  0.00     0.276 HD
ATOM     11  H21 UNL     1      39.430  -2.710  42.522  1.00  0.00     0.276 HD
ENDBRANCH   7   8
ENDBRANCH   3   7
BRANCH   1  12
HETATM   12  C3  UNL     1      34.278  -1.166  38.345  1.00  0.00     0.084 C 
BRANCH  12  13
HETATM   13  C2  UNL     1      33.808  -2.362  37.595  1.00  0.00    -0.031 C 
HETATM   14  C1  UNL     1      32.830  -3.100  38.076  1.00  0.00     0.007 C 
ENDBRANCH  12  13
ENDBRANCH   1  12
TORSDOF 4
ENDMDL
