MODEL 1
REMARK VINA RESULT: -5.728853357      0.000      0.000
REMARK  3 active torsions:
REMARK  status: ('A' for Active; 'I' for Inactive)
REMARK    1  A    between atoms: C1_2  and  N1_3 
REMARK    2  A    between atoms: C2_5  and  N2_6 
REMARK    3  A    between atoms: N2_6  and  C3_8 
ROOT
HETATM    1  N2  UNL     1      36.418  -2.476  38.673  1.00  0.00    -0.375 N 
ATOM      2  H2  UNL     1      36.885  -3.351  38.910  1.00  0.00     0.161 HD
ENDROOT
BRANCH   1   3
HETATM    3  C2  UNL     1      35.209  -2.549  37.930  1.00  0.00     0.178 C 
HETATM    4  N1  UNL     1      34.128  -2.914  38.482  1.00  0.00    -0.331 N 
ATOM      5  H1  UNL     1      34.170  -3.148  39.474  1.00  0.00     0.168 HD
BRANCH   4   6
HETATM    6  C1  UNL     1      32.880  -3.024  37.852  1.00  0.00     0.353 C 
HETATM    7  O1  UNL     1      31.835  -2.753  38.504  1.00  0.00    -0.283 OA
ENDBRANCH   4   6
ENDBRANCH   1   3
BRANCH   1   8
HETATM    8  C3  UNL     1      37.022  -1.262  39.110  1.00  0.00     0.152 C 
HETATM    9  C4  UNL     1      36.147  -0.037  39.134  1.00  0.00     0.040 C 
HETATM   10  C5  UNL     1      36.484   0.095  40.603  1.00  0.00     0.083 C 
HETATM   11  C6  UNL     1      37.129  -1.244  40.596  1.00  0.00     0.149 C 
HETATM   12  O2  UNL     1      37.538  -1.946  41.499  1.00  0.00    -0.296 OA
ENDBRANCH   1   8
TORSDOF 3
ENDMDL
MODEL 2
REMARK VINA RESULT: -5.578921582      1.497      1.759
REMARK  3 active torsions:
REMARK  status: ('A' for Active; 'I' for Inactive)
REMARK    1  A    between atoms: C1_2  and  N1_3 
REMARK    2  A    between atoms: C2_5  and  N2_6 
REMARK    3  A    between atoms: N2_6  and  C3_8 
ROOT
HETATM    1  N2  UNL     1      34.977  -0.114  38.732  1.00  0.00    -0.375 N 
ATOM      2  H2  UNL     1      34.635   0.742  38.295  1.00  0.00     0.161 HD
ENDROOT
BRANCH   1   3
HETATM    3  C2  UNL     1      34.083  -1.217  38.817  1.00  0.00     0.178 C 
HETATM    4  N1  UNL     1      33.920  -1.998  37.833  1.00  0.00    -0.331 N 
ATOM      5  H1  UNL     1      34.456  -1.798  36.988  1.00  0.00     0.168 HD
BRANCH   4   6
HETATM    6  C1  UNL     1      33.069  -3.112  37.802  1.00  0.00     0.353 C 
HETATM    7  O1  UNL     1      31.890  -2.999  38.235  1.00  0.00    -0.283 OA
ENDBRANCH   4   6
ENDBRANCH   1   3
BRANCH   1   8
HETATM    8  C3  UNL     1      36.317  -0.124  39.215  1.00  0.00     0.152 C 
HETATM    9  C4  UNL     1      36.505   0.044  40.699  1.00  0.00     0.040 C 
HETATM   10  C5  UNL     1      37.251  -1.272  40.687  1.00  0.00     0.083 C 
HETATM   11  C6  UNL     1      36.831  -1.520  39.283  1.00  0.00     0.149 C 
HETATM   12  O2  UNL     1      36.922  -2.504  38.578  1.00  0.00    -0.296 OA
ENDBRANCH   1   8
TORSDOF 3
ENDMDL
MODEL 3
REMARK VINA RESULT: -5.460248941      1.727      2.122
REMARK  3 active torsions:
REMARK  status: ('A' for Active; 'I' for Inactive)
REMARK    1  A    between atoms: C1_2  and  N1_3 
REMARK    2  A    between atoms: C2_5  and  N2_6 
REMARK    3  A    between atoms: N2_6  and  C3_8 
ROOT
HETATM    1  N2  UNL     1      35.033  -1.533  40.459  1.00  0.00    -0.375 N 
ATOM      2  H2  UNL     1      34.708  -1.485  41.425  1.00  0.00     0.161 HD
ENDROOT
BRANCH   1   3
HETATM    3  C2  UNL     1      34.055  -1.682  39.438  1.00  0.00     0.178 C 
HETATM    4  N1  UNL     1      33.936  -2.776  38.809  1.00  0.00    -0.331 N 
ATOM      5  H1  UNL     1      34.568  -3.533  39.069  1.00  0.00     0.168 HD
BRANCH   4   6
HETATM    6  C1  UNL     1      33.013  -3.038  37.786  1.00  0.00     0.353 C 
HETATM    7  O1  UNL     1      31.781  -3.060  38.059  1.00  0.00    -0.283 OA
ENDBRANCH   4   6
ENDBRANCH   1   3
BRANCH   1   8
HETATM    8  C3  UNL     1      36.435  -1.446  40.226  1.00  0.00     0.152 C 
HETATM    9  C4  UNL     1      37.046  -2.510  39.353  1.00  0.00     0.040 C 
HETATM   10  C5  UNL     1      37.545  -1.396  38.458  1.00  0.00     0.083 C 
HETATM   11  C6  UNL     1      36.724  -0.405  39.201  1.00  0.00     0.149 C 
HETATM   12  O2  UNL     1      36.464   0.759  38.971  1.00  0.00    -0.296 OA
ENDBRANCH   1   8
TORSDOF 3
ENDMDL
MODEL 4
REMARK VINA RESULT: -4.990491822      1.931      2.315
REMARK  3 active torsions:
REMARK  status: ('A' for Active; 'I' for Inactive)
REMARK    1  A    between atoms: C1_2  and  N1_3 
REMARK    2  A    between atoms: C2_5  and  N2_6 
REMARK    3  A    between atoms: N2_6  and  C3_8 
ROOT
HETATM    1  N2  UNL     1      34.782  -1.164  40.223  1.00  0.00    -0.375 N 
ATOM      2  H2  UNL     1      34.458  -1.145  41.190  1.00  0.00     0.161 HD
ENDROOT
BRANCH   1   3
HETATM    3  C2  UNL     1      33.826  -1.446  39.209  1.00  0.00     0.178 C 
HETATM    4  N1  UNL     1      33.642  -2.631  38.802  1.00  0.00    -0.331 N 
ATOM      5  H1  UNL     1      34.207  -3.363  39.234  1.00  0.00     0.168 HD
BRANCH   4   6
HETATM    6  C1  UNL     1      32.731  -3.027  37.812  1.00  0.00     0.353 C 
HETATM    7  O1  UNL     1      33.105  -3.055  36.608  1.00  0.00    -0.283 OA
ENDBRANCH   4   6
ENDBRANCH   1   3
BRANCH   1   8
HETATM    8  C3  UNL     1      36.161  -0.906  39.980  1.00  0.00     0.152 C 
HETATM    9  C4  UNL     1      37.152  -1.633  40.849  1.00  0.00     0.040 C 
HETATM   10  C5  UNL     1      37.761  -2.186  39.579  1.00  0.00     0.083 C 
HETATM   11  C6  UNL     1      36.623  -1.659  38.781  1.00  0.00     0.149 C 
HETATM   12  O2  UNL     1      36.301  -1.837  37.624  1.00  0.00    -0.296 OA
ENDBRANCH   1   8
TORSDOF 3
ENDMDL
MODEL 5
REMARK VINA RESULT: -4.863065092      1.281      1.682
REMARK  3 active torsions:
REMARK  status: ('A' for Active; 'I' for Inactive)
REMARK    1  A    between atoms: C1_2  and  N1_3 
REMARK    2  A    between atoms: C2_5  and  N2_6 
REMARK    3  A    between atoms: N2_6  and  C3_8 
ROOT
HETATM    1  N2  UNL     1      36.051  -2.608  38.899  1.00  0.00    -0.375 N 
ATOM      2  H2  UNL     1      36.924  -3.051  38.614  1.00  0.00     0.161 HD
ENDROOT
BRANCH   1   3
HETATM    3  C2  UNL     1      34.962  -2.642  37.986  1.00  0.00     0.178 C 
HETATM    4  N1  UNL     1      33.798  -2.955  38.377  1.00  0.00    -0.331 N 
ATOM      5  H1  UNL     1      33.684  -3.177  39.366  1.00  0.00     0.168 HD
BRANCH   4   6
HETATM    6  C1  UNL     1      32.652  -3.023  37.571  1.00  0.00     0.353 C 
HETATM    7  O1  UNL     1      31.515  -2.926  38.108  1.00  0.00    -0.283 OA
ENDBRANCH   4   6
ENDBRANCH   1   3
BRANCH   1   8
HETATM    8  C3  UNL     1      36.006  -1.995  40.184  1.00  0.00     0.152 C 
HETATM    9  C4  UNL     1      37.005  -2.477  41.202  1.00  0.00     0.040 C 
HETATM   10  C5  UNL     1      37.479  -1.045  41.319  1.00  0.00     0.083 C 
HETATM   11  C6  UNL     1      36.659  -0.657  40.141  1.00  0.00     0.149 C 
HETATM   12  O2  UNL     1      36.621   0.366  39.489  1.00  0.00    -0.296 OA
ENDBRANCH   1   8
TORSDOF 3
ENDMDL
