MODEL 1
REMARK VINA RESULT: -5.198429064      0.000      0.000
REMARK  2 active torsions:
REMARK  status: ('A' for Active; 'I' for Inactive)
REMARK    1  A    between atoms: C1_4  and  N2_5 
REMARK    2  A    between atoms: N2_5  and  N3_7 
ROOT
HETATM    1  N2  UNL     1      34.782  -2.775  38.734  1.00  0.00    -0.316 N 
ATOM      2  H2  UNL     1      35.488  -3.506  38.644  1.00  0.00     0.181 HD
ENDROOT
BRANCH   1   3
HETATM    3  C1  UNL     1      33.659  -2.745  37.879  1.00  0.00     0.185 C 
HETATM    4  N1  UNL     1      32.490  -2.924  38.351  1.00  0.00    -0.395 N 
ATOM      5  H12 UNL     1      32.382  -3.088  39.352  1.00  0.00     0.156 HD
ATOM      6  H11 UNL     1      31.680  -2.901  37.732  1.00  0.00     0.156 HD
ENDBRANCH   1   3
BRANCH   1   7
HETATM    7  N3  UNL     1      34.903  -1.786  39.703  1.00  0.00    -0.231 NA
HETATM    8  C2  UNL     1      35.162  -0.506  39.091  1.00  0.00     0.113 C 
HETATM    9  C3  UNL     1      36.447   0.021  39.715  1.00  0.00     0.017 C 
HETATM   10  C4  UNL     1      37.135  -1.322  40.001  1.00  0.00     0.017 C 
HETATM   11  C5  UNL     1      35.962  -2.045  40.641  1.00  0.00     0.113 C 
ENDBRANCH   1   7
TORSDOF 2
ENDMDL
MODEL 2
REMARK VINA RESULT: -5.091742701      0.984      1.344
REMARK  2 active torsions:
REMARK  status: ('A' for Active; 'I' for Inactive)
REMARK    1  A    between atoms: C1_4  and  N2_5 
REMARK    2  A    between atoms: N2_5  and  N3_7 
ROOT
HETATM    1  N2  UNL     1      34.493  -2.949  38.729  1.00  0.00    -0.316 N 
ATOM      2  H2  UNL     1      34.658  -3.831  39.214  1.00  0.00     0.181 HD
ENDROOT
BRANCH   1   3
HETATM    3  C1  UNL     1      33.395  -2.800  37.853  1.00  0.00     0.185 C 
HETATM    4  N1  UNL     1      32.207  -2.949  38.285  1.00  0.00    -0.395 N 
ATOM      5  H12 UNL     1      32.065  -3.176  39.269  1.00  0.00     0.156 HD
ATOM      6  H11 UNL     1      31.414  -2.841  37.652  1.00  0.00     0.156 HD
ENDBRANCH   1   3
BRANCH   1   7
HETATM    7  N3  UNL     1      35.342  -1.865  38.915  1.00  0.00    -0.231 NA
HETATM    8  C2  UNL     1      36.695  -2.214  38.558  1.00  0.00     0.113 C 
HETATM    9  C3  UNL     1      37.556  -1.917  39.778  1.00  0.00     0.017 C 
HETATM   10  C4  UNL     1      36.508  -2.177  40.871  1.00  0.00     0.017 C 
HETATM   11  C5  UNL     1      35.356  -1.389  40.272  1.00  0.00     0.113 C 
ENDBRANCH   1   7
TORSDOF 2
ENDMDL
MODEL 3
REMARK VINA RESULT: -5.035414287      0.806      1.575
REMARK  2 active torsions:
REMARK  status: ('A' for Active; 'I' for Inactive)
REMARK    1  A    between atoms: C1_4  and  N2_5 
REMARK    2  A    between atoms: N2_5  and  N3_7 
ROOT
HETATM    1  N2  UNL     1      34.415  -2.059  39.153  1.00  0.00    -0.316 N 
ATOM      2  H2  UNL     1      33.894  -1.669  39.939  1.00  0.00     0.181 HD
ENDROOT
BRANCH   1   3
HETATM    3  C1  UNL     1      33.744  -2.530  38.003  1.00  0.00     0.185 C 
HETATM    4  N1  UNL     1      32.687  -3.229  38.121  1.00  0.00    -0.395 N 
ATOM      5  H12 UNL     1      32.337  -3.442  39.055  1.00  0.00     0.156 HD
ATOM      6  H11 UNL     1      32.202  -3.568  37.290  1.00  0.00     0.156 HD
ENDBRANCH   1   3
BRANCH   1   7
HETATM    7  N3  UNL     1      35.802  -2.141  39.189  1.00  0.00    -0.231 NA
HETATM    8  C2  UNL     1      36.256  -2.473  40.517  1.00  0.00     0.113 C 
HETATM    9  C3  UNL     1      37.233  -1.379  40.927  1.00  0.00     0.017 C 
HETATM   10  C4  UNL     1      36.623  -0.213  40.135  1.00  0.00     0.017 C 
HETATM   11  C5  UNL     1      36.446  -0.915  38.800  1.00  0.00     0.113 C 
ENDBRANCH   1   7
TORSDOF 2
ENDMDL
MODEL 4
REMARK VINA RESULT: -4.587554444      1.137      1.383
REMARK  2 active torsions:
REMARK  status: ('A' for Active; 'I' for Inactive)
REMARK    1  A    between atoms: C1_4  and  N2_5 
REMARK    2  A    between atoms: N2_5  and  N3_7 
ROOT
HETATM    1  N2  UNL     1      34.332  -1.475  40.192  1.00  0.00    -0.316 N 
ATOM      2  H2  UNL     1      33.781  -1.714  41.017  1.00  0.00     0.181 HD
ENDROOT
BRANCH   1   3
HETATM    3  C1  UNL     1      33.777  -1.578  38.897  1.00  0.00     0.185 C 
HETATM    4  N1  UNL     1      33.320  -2.691  38.483  1.00  0.00    -0.395 N 
ATOM      5  H12 UNL     1      33.362  -3.502  39.101  1.00  0.00     0.156 HD
ATOM      6  H11 UNL     1      32.918  -2.765  37.548  1.00  0.00     0.156 HD
ENDBRANCH   1   3
BRANCH   1   7
HETATM    7  N3  UNL     1      35.646  -1.041  40.315  1.00  0.00    -0.231 NA
HETATM    8  C2  UNL     1      36.091  -0.416  39.094  1.00  0.00     0.113 C 
HETATM    9  C3  UNL     1      37.349  -1.155  38.662  1.00  0.00     0.017 C 
HETATM   10  C4  UNL     1      37.015  -2.540  39.236  1.00  0.00     0.017 C 
HETATM   11  C5  UNL     1      36.563  -2.107  40.620  1.00  0.00     0.113 C 
ENDBRANCH   1   7
TORSDOF 2
ENDMDL
MODEL 5
REMARK VINA RESULT: -3.987458897      1.844      3.379
REMARK  2 active torsions:
REMARK  status: ('A' for Active; 'I' for Inactive)
REMARK    1  A    between atoms: C1_4  and  N2_5 
REMARK    2  A    between atoms: N2_5  and  N3_7 
ROOT
HETATM    1  N2  UNL     1      36.581  -2.728  39.782  1.00  0.00    -0.316 N 
ATOM      2  H2  UNL     1      36.694  -3.736  39.672  1.00  0.00     0.181 HD
ENDROOT
BRANCH   1   3
HETATM    3  C1  UNL     1      36.745  -2.115  41.044  1.00  0.00     0.185 C 
HETATM    4  N1  UNL     1      37.910  -1.969  41.537  1.00  0.00    -0.395 N 
ATOM      5  H12 UNL     1      38.715  -2.300  41.006  1.00  0.00     0.156 HD
ATOM      6  H11 UNL     1      38.028  -1.526  42.448  1.00  0.00     0.156 HD
ENDBRANCH   1   3
BRANCH   1   7
HETATM    7  N3  UNL     1      36.262  -1.925  38.693  1.00  0.00    -0.231 NA
HETATM    8  C2  UNL     1      36.140  -0.546  39.099  1.00  0.00     0.113 C 
HETATM    9  C3  UNL     1      34.754  -0.088  38.666  1.00  0.00     0.017 C 
HETATM   10  C4  UNL     1      34.018  -1.432  38.781  1.00  0.00     0.017 C 
HETATM   11  C5  UNL     1      35.029  -2.305  38.058  1.00  0.00     0.113 C 
ENDBRANCH   1   7
TORSDOF 2
ENDMDL
