MODEL 1
REMARK VINA RESULT: -6.096283394      0.000      0.000
REMARK  3 active torsions:
REMARK  status: ('A' for Active; 'I' for Inactive)
REMARK    1  A    between atoms: C2_2  and  C3_3 
REMARK    2  A    between atoms: C3_3  and  N1_4 
REMARK    3  A    between atoms: N1_4  and  C4_6 
ROOT
HETATM    1  C4  UNL     1      34.192  -1.096  38.840  1.00  0.00     0.117 A 
HETATM    2  C5  UNL     1      34.407  -2.054  37.874  1.00  0.00     0.068 A 
HETATM    3  C6  UNL     1      33.335  -2.951  37.922  1.00  0.00     0.111 A 
HETATM    4  N2  UNL     1      32.526  -2.512  38.900  1.00  0.00    -0.310 N 
ATOM      5  H2  UNL     1      31.653  -2.957  39.183  1.00  0.00     0.186 HD
HETATM    6  N3  UNL     1      33.040  -1.400  39.450  1.00  0.00    -0.286 N 
ATOM      7  H3  UNL     1      32.618  -0.871  40.213  1.00  0.00     0.188 HD
ENDROOT
BRANCH   1   8
HETATM    8  N1  UNL     1      34.948  -0.094  39.116  1.00  0.00    -0.372 N 
ATOM      9  H1  UNL     1      34.519   0.815  39.292  1.00  0.00     0.161 HD
BRANCH   8  10
HETATM   10  C3  UNL     1      36.391  -0.212  39.185  1.00  0.00     0.147 C 
BRANCH  10  11
HETATM   11  C2  UNL     1      36.724  -0.674  40.558  1.00  0.00    -0.018 C 
HETATM   12  C1  UNL     1      37.307  -1.846  40.778  1.00  0.00     0.008 C 
ENDBRANCH  10  11
ENDBRANCH   8  10
ENDBRANCH   1   8
TORSDOF 3
ENDMDL
MODEL 2
REMARK VINA RESULT: -5.238497925      0.994      1.430
REMARK  3 active torsions:
REMARK  status: ('A' for Active; 'I' for Inactive)
REMARK    1  A    between atoms: C2_2  and  C3_3 
REMARK    2  A    between atoms: C3_3  and  N1_4 
REMARK    3  A    between atoms: N1_4  and  C4_6 
ROOT
HETATM    1  C4  UNL     1      33.861  -1.923  39.157  1.00  0.00     0.117 A 
HETATM    2  C5  UNL     1      34.363  -2.323  37.938  1.00  0.00     0.068 A 
HETATM    3  C6  UNL     1      33.311  -2.900  37.218  1.00  0.00     0.111 A 
HETATM    4  N2  UNL     1      32.231  -2.830  38.015  1.00  0.00    -0.310 N 
ATOM      5  H2  UNL     1      31.301  -3.171  37.773  1.00  0.00     0.186 HD
HETATM    6  N3  UNL     1      32.562  -2.244  39.177  1.00  0.00    -0.286 N 
ATOM      7  H3  UNL     1      31.923  -2.072  39.953  1.00  0.00     0.188 HD
ENDROOT
BRANCH   1   8
HETATM    8  N1  UNL     1      34.509  -1.349  40.107  1.00  0.00    -0.372 N 
ATOM      9  H1  UNL     1      34.072  -0.571  40.603  1.00  0.00     0.161 HD
BRANCH   8  10
HETATM   10  C3  UNL     1      35.841  -1.769  40.497  1.00  0.00     0.147 C 
BRANCH  10  11
HETATM   11  C2  UNL     1      36.744  -0.607  40.282  1.00  0.00    -0.018 C 
HETATM   12  C1  UNL     1      36.272   0.600  39.997  1.00  0.00     0.008 C 
ENDBRANCH  10  11
ENDBRANCH   8  10
ENDBRANCH   1   8
TORSDOF 3
ENDMDL
MODEL 3
REMARK VINA RESULT: -4.970913088      1.863      3.903
REMARK  3 active torsions:
REMARK  status: ('A' for Active; 'I' for Inactive)
REMARK    1  A    between atoms: C2_2  and  C3_3 
REMARK    2  A    between atoms: C3_3  and  N1_4 
REMARK    3  A    between atoms: N1_4  and  C4_6 
ROOT
HETATM    1  C4  UNL     1      35.489  -1.486  40.247  1.00  0.00     0.117 A 
HETATM    2  C5  UNL     1      36.681  -0.796  40.229  1.00  0.00     0.068 A 
HETATM    3  C6  UNL     1      37.600  -1.521  40.995  1.00  0.00     0.111 A 
HETATM    4  N2  UNL     1      36.942  -2.603  41.442  1.00  0.00    -0.310 N 
ATOM      5  H2  UNL     1      37.342  -3.331  42.033  1.00  0.00     0.186 HD
HETATM    6  N3  UNL     1      35.677  -2.582  40.993  1.00  0.00    -0.286 N 
ATOM      7  H3  UNL     1      34.969  -3.290  41.190  1.00  0.00     0.188 HD
ENDROOT
BRANCH   1   8
HETATM    8  N1  UNL     1      34.394  -1.152  39.663  1.00  0.00    -0.372 N 
ATOM      9  H1  UNL     1      33.575  -0.938  40.233  1.00  0.00     0.161 HD
BRANCH   8  10
HETATM   10  C3  UNL     1      34.285  -1.068  38.220  1.00  0.00     0.147 C 
BRANCH  10  11
HETATM   11  C2  UNL     1      34.008  -2.443  37.725  1.00  0.00    -0.018 C 
HETATM   12  C1  UNL     1      32.909  -3.102  38.071  1.00  0.00     0.008 C 
ENDBRANCH  10  11
ENDBRANCH   8  10
ENDBRANCH   1   8
TORSDOF 3
ENDMDL
MODEL 4
REMARK VINA RESULT: -4.899706790      1.170      1.274
REMARK  3 active torsions:
REMARK  status: ('A' for Active; 'I' for Inactive)
REMARK    1  A    between atoms: C2_2  and  C3_3 
REMARK    2  A    between atoms: C3_3  and  N1_4 
REMARK    3  A    between atoms: N1_4  and  C4_6 
ROOT
HETATM    1  C4  UNL     1      34.255  -1.204  38.656  1.00  0.00     0.117 A 
HETATM    2  C5  UNL     1      33.136  -1.875  39.098  1.00  0.00     0.068 A 
HETATM    3  C6  UNL     1      32.870  -2.900  38.184  1.00  0.00     0.111 A 
HETATM    4  N2  UNL     1      33.820  -2.812  37.238  1.00  0.00    -0.310 N 
ATOM      5  H2  UNL     1      33.899  -3.424  36.427  1.00  0.00     0.186 HD
HETATM    6  N3  UNL     1      34.650  -1.795  37.522  1.00  0.00    -0.286 N 
ATOM      7  H3  UNL     1      35.455  -1.517  36.961  1.00  0.00     0.188 HD
ENDROOT
BRANCH   1   8
HETATM    8  N1  UNL     1      34.823  -0.196  39.218  1.00  0.00    -0.372 N 
ATOM      9  H1  UNL     1      34.241   0.522  39.649  1.00  0.00     0.161 HD
BRANCH   8  10
HETATM   10  C3  UNL     1      36.264  -0.047  39.257  1.00  0.00     0.147 C 
BRANCH  10  11
HETATM   11  C2  UNL     1      36.732  -0.671  40.524  1.00  0.00    -0.018 C 
HETATM   12  C1  UNL     1      37.301  -1.869  40.543  1.00  0.00     0.008 C 
ENDBRANCH  10  11
ENDBRANCH   8  10
ENDBRANCH   1   8
TORSDOF 3
ENDMDL
MODEL 5
REMARK VINA RESULT: -4.517866607      1.502      1.864
REMARK  3 active torsions:
REMARK  status: ('A' for Active; 'I' for Inactive)
REMARK    1  A    between atoms: C2_2  and  C3_3 
REMARK    2  A    between atoms: C3_3  and  N1_4 
REMARK    3  A    between atoms: N1_4  and  C4_6 
ROOT
HETATM    1  C4  UNL     1      34.091  -1.966  39.012  1.00  0.00     0.117 A 
HETATM    2  C5  UNL     1      32.829  -2.501  38.879  1.00  0.00     0.068 A 
HETATM    3  C6  UNL     1      32.700  -2.958  37.564  1.00  0.00     0.111 A 
HETATM    4  N2  UNL     1      33.868  -2.687  36.959  1.00  0.00    -0.310 N 
ATOM      5  H2  UNL     1      34.089  -2.900  35.986  1.00  0.00     0.186 HD
HETATM    6  N3  UNL     1      34.702  -2.092  37.828  1.00  0.00    -0.286 N 
ATOM      7  H3  UNL     1      35.651  -1.784  37.617  1.00  0.00     0.188 HD
ENDROOT
BRANCH   1   8
HETATM    8  N1  UNL     1      34.600  -1.440  40.069  1.00  0.00    -0.372 N 
ATOM      9  H1  UNL     1      34.068  -0.731  40.573  1.00  0.00     0.161 HD
BRANCH   8  10
HETATM   10  C3  UNL     1      35.906  -1.823  40.569  1.00  0.00     0.147 C 
BRANCH  10  11
HETATM   11  C2  UNL     1      36.813  -0.667  40.343  1.00  0.00    -0.018 C 
HETATM   12  C1  UNL     1      36.345   0.551  40.101  1.00  0.00     0.008 C 
ENDBRANCH  10  11
ENDBRANCH   8  10
ENDBRANCH   1   8
TORSDOF 3
ENDMDL
