MODEL 1
REMARK VINA RESULT: -5.543634840      0.000      0.000
REMARK  3 active torsions:
REMARK  status: ('A' for Active; 'I' for Inactive)
REMARK    1  A    between atoms: C3_3  and  N1_4 
REMARK    2  A    between atoms: N1_4  and  C4_7 
REMARK    3  A    between atoms: C4_7  and  C5_8 
ROOT
HETATM    1  C1  UNL     1      36.250   0.821  40.403  1.00  0.00     0.013 C 
HETATM    2  C2  UNL     1      36.651  -0.308  40.482  1.00  0.00    -0.090 C 
HETATM    3  C3  UNL     1      37.146  -1.700  40.551  1.00  0.00     0.324 C 
ENDROOT
BRANCH   3   4
HETATM    4  N1  UNL     1      37.535  -2.143  39.211  1.00  0.00    -0.065 N 
ATOM      5  H12 UNL     1      38.445  -1.774  38.934  1.00  0.00     0.278 HD
ATOM      6  H11 UNL     1      37.765  -3.137  39.188  1.00  0.00     0.278 HD
BRANCH   4   7
HETATM    7  C4  UNL     1      36.501  -1.804  38.262  1.00  0.00     0.240 C 
BRANCH   7   8
HETATM    8  C5  UNL     1      35.210  -2.482  38.505  1.00  0.00     0.050 A 
HETATM    9  C6  UNL     1      34.103  -2.590  37.541  1.00  0.00     0.050 A 
HETATM   10  C7  UNL     1      32.722  -2.973  38.021  1.00  0.00     0.239 C 
HETATM   11  C8  UNL     1      34.008  -1.525  38.559  1.00  0.00     0.198 A 
HETATM   12  N2  UNL     1      32.789  -2.022  39.125  1.00  0.00    -0.070 N 
ATOM     13  H22 UNL     1      32.009  -1.395  39.323  1.00  0.00     0.277 HD
ATOM     14  H21 UNL     1      32.754  -2.341  40.094  1.00  0.00     0.277 HD
ENDBRANCH   7   8
ENDBRANCH   4   7
ENDBRANCH   3   4
TORSDOF 3
ENDMDL
MODEL 2
REMARK VINA RESULT: -4.707229163      0.845      1.517
REMARK  3 active torsions:
REMARK  status: ('A' for Active; 'I' for Inactive)
REMARK    1  A    between atoms: C3_3  and  N1_4 
REMARK    2  A    between atoms: N1_4  and  C4_7 
REMARK    3  A    between atoms: C4_7  and  C5_8 
ROOT
HETATM    1  C1  UNL     1      38.549  -2.197  42.242  1.00  0.00     0.013 C 
HETATM    2  C2  UNL     1      37.818  -1.807  41.373  1.00  0.00    -0.090 C 
HETATM    3  C3  UNL     1      36.937  -1.334  40.284  1.00  0.00     0.324 C 
ENDROOT
BRANCH   3   4
HETATM    4  N1  UNL     1      37.509  -1.724  38.993  1.00  0.00    -0.065 N 
ATOM      5  H12 UNL     1      38.287  -1.123  38.722  1.00  0.00     0.278 HD
ATOM      6  H11 UNL     1      38.016  -2.607  39.050  1.00  0.00     0.278 HD
BRANCH   4   7
HETATM    7  C4  UNL     1      36.474  -1.757  37.986  1.00  0.00     0.240 C 
BRANCH   7   8
HETATM    8  C5  UNL     1      35.208  -2.371  38.440  1.00  0.00     0.050 A 
HETATM    9  C6  UNL     1      33.986  -2.514  37.633  1.00  0.00     0.050 A 
HETATM   10  C7  UNL     1      32.667  -2.812  38.309  1.00  0.00     0.239 C 
HETATM   11  C8  UNL     1      34.046  -1.372  38.568  1.00  0.00     0.198 A 
HETATM   12  N2  UNL     1      32.896  -1.784  39.319  1.00  0.00    -0.070 N 
ATOM     13  H22 UNL     1      32.164  -1.118  39.561  1.00  0.00     0.277 HD
ATOM     14  H21 UNL     1      32.976  -2.029  40.306  1.00  0.00     0.277 HD
ENDBRANCH   7   8
ENDBRANCH   4   7
ENDBRANCH   3   4
TORSDOF 3
ENDMDL
MODEL 3
REMARK VINA RESULT: -4.624218386      1.504      2.112
REMARK  3 active torsions:
REMARK  status: ('A' for Active; 'I' for Inactive)
REMARK    1  A    between atoms: C3_3  and  N1_4 
REMARK    2  A    between atoms: N1_4  and  C4_7 
REMARK    3  A    between atoms: C4_7  and  C5_8 
ROOT
HETATM    1  C1  UNL     1      37.997  -2.195  38.381  1.00  0.00     0.013 C 
HETATM    2  C2  UNL     1      37.561  -1.839  39.443  1.00  0.00    -0.090 C 
HETATM    3  C3  UNL     1      37.001  -1.392  40.736  1.00  0.00     0.324 C 
ENDROOT
BRANCH   3   4
HETATM    4  N1  UNL     1      35.606  -0.987  40.546  1.00  0.00    -0.065 N 
ATOM      5  H12 UNL     1      34.955  -1.739  40.770  1.00  0.00     0.278 HD
ATOM      6  H11 UNL     1      35.304  -0.315  41.251  1.00  0.00     0.278 HD
BRANCH   4   7
HETATM    7  C4  UNL     1      35.418  -0.487  39.204  1.00  0.00     0.240 C 
BRANCH   7   8
HETATM    8  C5  UNL     1      34.232  -1.036  38.515  1.00  0.00     0.050 A 
HETATM    9  C6  UNL     1      33.504  -2.256  38.900  1.00  0.00     0.050 A 
HETATM   10  C7  UNL     1      32.556  -2.908  37.920  1.00  0.00     0.239 C 
HETATM   11  C8  UNL     1      34.491  -2.378  37.809  1.00  0.00     0.198 A 
HETATM   12  N2  UNL     1      33.530  -2.813  36.839  1.00  0.00    -0.070 N 
ATOM     13  H22 UNL     1      33.721  -3.613  36.236  1.00  0.00     0.277 HD
ATOM     14  H21 UNL     1      33.336  -2.255  36.007  1.00  0.00     0.277 HD
ENDBRANCH   7   8
ENDBRANCH   4   7
ENDBRANCH   3   4
TORSDOF 3
ENDMDL
MODEL 4
REMARK VINA RESULT: -4.619892325      1.283      1.961
REMARK  3 active torsions:
REMARK  status: ('A' for Active; 'I' for Inactive)
REMARK    1  A    between atoms: C3_3  and  N1_4 
REMARK    2  A    between atoms: N1_4  and  C4_7 
REMARK    3  A    between atoms: C4_7  and  C5_8 
ROOT
HETATM    1  C1  UNL     1      38.301  -2.259  38.051  1.00  0.00     0.013 C 
HETATM    2  C2  UNL     1      37.798  -2.014  39.114  1.00  0.00    -0.090 C 
HETATM    3  C3  UNL     1      37.174  -1.686  40.414  1.00  0.00     0.324 C 
ENDROOT
BRANCH   3   4
HETATM    4  N1  UNL     1      36.628  -0.328  40.361  1.00  0.00    -0.065 N 
ATOM      5  H12 UNL     1      36.310  -0.007  41.275  1.00  0.00     0.278 HD
ATOM      6  H11 UNL     1      37.354   0.371  40.203  1.00  0.00     0.278 HD
BRANCH   4   7
HETATM    7  C4  UNL     1      35.583  -0.258  39.367  1.00  0.00     0.240 C 
BRANCH   7   8
HETATM    8  C5  UNL     1      34.814  -1.510  39.208  1.00  0.00     0.050 A 
HETATM    9  C6  UNL     1      34.277  -2.032  37.941  1.00  0.00     0.050 A 
HETATM   10  C7  UNL     1      33.212  -3.104  37.959  1.00  0.00     0.239 C 
HETATM   11  C8  UNL     1      33.344  -1.288  38.811  1.00  0.00     0.198 A 
HETATM   12  N2  UNL     1      32.441  -2.389  38.970  1.00  0.00    -0.070 N 
ATOM     13  H22 UNL     1      31.435  -2.260  38.866  1.00  0.00     0.277 HD
ATOM     14  H21 UNL     1      32.275  -2.801  39.889  1.00  0.00     0.277 HD
ENDBRANCH   7   8
ENDBRANCH   4   7
ENDBRANCH   3   4
TORSDOF 3
ENDMDL
MODEL 5
REMARK VINA RESULT: -4.572479304      1.567      2.198
REMARK  3 active torsions:
REMARK  status: ('A' for Active; 'I' for Inactive)
REMARK    1  A    between atoms: C3_3  and  N1_4 
REMARK    2  A    between atoms: N1_4  and  C4_7 
REMARK    3  A    between atoms: C4_7  and  C5_8 
ROOT
HETATM    1  C1  UNL     1      36.608  -2.851  41.380  1.00  0.00     0.013 C 
HETATM    2  C2  UNL     1      36.753  -1.727  40.981  1.00  0.00    -0.090 C 
HETATM    3  C3  UNL     1      36.904  -0.343  40.484  1.00  0.00     0.324 C 
ENDROOT
BRANCH   3   4
HETATM    4  N1  UNL     1      35.584   0.202  40.158  1.00  0.00    -0.065 N 
ATOM      5  H12 UNL     1      34.838  -0.272  40.665  1.00  0.00     0.278 HD
ATOM      6  H11 UNL     1      35.452   1.138  40.540  1.00  0.00     0.278 HD
BRANCH   4   7
HETATM    7  C4  UNL     1      35.377   0.165  38.729  1.00  0.00     0.240 C 
BRANCH   7   8
HETATM    8  C5  UNL     1      34.241  -0.679  38.304  1.00  0.00     0.050 A 
HETATM    9  C6  UNL     1      33.773  -1.895  38.988  1.00  0.00     0.050 A 
HETATM   10  C7  UNL     1      32.860  -2.861  38.267  1.00  0.00     0.239 C 
HETATM   11  C8  UNL     1      34.657  -2.079  37.820  1.00  0.00     0.198 A 
HETATM   12  N2  UNL     1      33.696  -2.835  37.072  1.00  0.00    -0.070 N 
ATOM     13  H22 UNL     1      33.963  -3.700  36.602  1.00  0.00     0.277 HD
ATOM     14  H21 UNL     1      33.332  -2.486  36.186  1.00  0.00     0.277 HD
ENDBRANCH   7   8
ENDBRANCH   4   7
ENDBRANCH   3   4
TORSDOF 3
ENDMDL
