MODEL 1
REMARK VINA RESULT: -4.397462941      0.000      0.000
REMARK  3 active torsions:
REMARK  status: ('A' for Active; 'I' for Inactive)
REMARK    1  A    between atoms: C2_2  and  C3_3 
REMARK    2  A    between atoms: C3_3  and  C4_4 
REMARK    3  A    between atoms: C4_4  and  N1_5 
ROOT
HETATM    1  N1  UNL     1      34.380  -1.201  38.726  1.00  0.00    -0.217 N 
HETATM    2  C5  UNL     1      34.784  -2.277  37.799  1.00  0.00     0.161 C 
HETATM    3  C6  UNL     1      33.561  -3.131  37.570  1.00  0.00     0.158 C 
HETATM    4  N2  UNL     1      32.572  -2.633  38.474  1.00  0.00    -0.225 N 
ATOM      5  H2  UNL     1      31.598  -2.934  38.511  1.00  0.00     0.177 HD
HETATM    6  C7  UNL     1      33.170  -1.644  39.320  1.00  0.00     0.669 C 
HETATM    7  N3  UNL     1      32.653  -1.240  40.421  1.00  0.00    -0.235 N 
ATOM      8  H31 UNL     1      31.783  -1.558  40.848  1.00  0.00     0.174 HD
ATOM      9  H32 UNL     1      33.079  -0.535  41.024  1.00  0.00     0.174 HD
ENDROOT
BRANCH   1  10
HETATM   10  C4  UNL     1      35.114  -0.001  38.896  1.00  0.00     0.145 C 
BRANCH  10  11
HETATM   11  C3  UNL     1      36.572  -0.147  39.189  1.00  0.00     0.047 C 
BRANCH  11  12
HETATM   12  C2  UNL     1      36.635  -0.704  40.580  1.00  0.00    -0.035 C 
HETATM   13  C1  UNL     1      37.322  -1.789  40.807  1.00  0.00     0.007 C 
ENDBRANCH  11  12
ENDBRANCH  10  11
ENDBRANCH   1  10
TORSDOF 3
ENDMDL
MODEL 2
REMARK VINA RESULT: -4.206499873      1.805      3.939
REMARK  3 active torsions:
REMARK  status: ('A' for Active; 'I' for Inactive)
REMARK    1  A    between atoms: C2_2  and  C3_3 
REMARK    2  A    between atoms: C3_3  and  C4_4 
REMARK    3  A    between atoms: C4_4  and  N1_5 
ROOT
HETATM    1  N1  UNL     1      35.616  -1.101  39.040  1.00  0.00    -0.217 N 
HETATM    2  C5  UNL     1      36.586  -2.150  38.671  1.00  0.00     0.161 C 
HETATM    3  C6  UNL     1      37.607  -2.205  39.780  1.00  0.00     0.158 C 
HETATM    4  N2  UNL     1      37.296  -1.106  40.641  1.00  0.00    -0.225 N 
ATOM      5  H2  UNL     1      37.742  -0.911  41.537  1.00  0.00     0.177 HD
HETATM    6  C7  UNL     1      36.257  -0.324  40.040  1.00  0.00     0.669 C 
HETATM    7  N3  UNL     1      35.974   0.876  40.392  1.00  0.00    -0.235 N 
ATOM      8  H31 UNL     1      36.434   1.434  41.110  1.00  0.00     0.174 HD
ATOM      9  H32 UNL     1      35.233   1.433  39.964  1.00  0.00     0.174 HD
ENDROOT
BRANCH   1  10
HETATM   10  C4  UNL     1      34.324  -0.994  38.467  1.00  0.00     0.145 C 
BRANCH  10  11
HETATM   11  C3  UNL     1      33.222  -1.720  39.168  1.00  0.00     0.047 C 
BRANCH  11  12
HETATM   12  C2  UNL     1      32.893  -2.881  38.276  1.00  0.00    -0.035 C 
HETATM   13  C1  UNL     1      33.334  -2.894  37.049  1.00  0.00     0.007 C 
ENDBRANCH  11  12
ENDBRANCH  10  11
ENDBRANCH   1  10
TORSDOF 3
ENDMDL
MODEL 3
REMARK VINA RESULT: -4.012422046      1.232      1.309
REMARK  3 active torsions:
REMARK  status: ('A' for Active; 'I' for Inactive)
REMARK    1  A    between atoms: C2_2  and  C3_3 
REMARK    2  A    between atoms: C3_3  and  C4_4 
REMARK    3  A    between atoms: C4_4  and  N1_5 
ROOT
HETATM    1  N1  UNL     1      34.987  -2.001  38.437  1.00  0.00    -0.217 N 
HETATM    2  C5  UNL     1      34.326  -2.963  37.534  1.00  0.00     0.161 C 
HETATM    3  C6  UNL     1      32.854  -2.923  37.863  1.00  0.00     0.158 C 
HETATM    4  N2  UNL     1      32.743  -2.090  39.020  1.00  0.00    -0.225 N 
ATOM      5  H2  UNL     1      31.869  -1.784  39.448  1.00  0.00     0.177 HD
HETATM    6  C7  UNL     1      34.058  -1.756  39.482  1.00  0.00     0.669 C 
HETATM    7  N3  UNL     1      34.308  -1.298  40.652  1.00  0.00    -0.235 N 
ATOM      8  H31 UNL     1      33.640  -1.122  41.402  1.00  0.00     0.174 HD
ATOM      9  H32 UNL     1      35.244  -1.060  40.981  1.00  0.00     0.174 HD
ENDROOT
BRANCH   1  10
HETATM   10  C4  UNL     1      36.282  -1.473  38.204  1.00  0.00     0.145 C 
BRANCH  10  11
HETATM   11  C3  UNL     1      37.408  -2.121  38.941  1.00  0.00     0.047 C 
BRANCH  11  12
HETATM   12  C2  UNL     1      37.477  -1.401  40.256  1.00  0.00    -0.035 C 
HETATM   13  C1  UNL     1      37.574  -2.088  41.360  1.00  0.00     0.007 C 
ENDBRANCH  11  12
ENDBRANCH  10  11
ENDBRANCH   1  10
TORSDOF 3
ENDMDL
MODEL 4
REMARK VINA RESULT: -3.607612583      1.738      4.018
REMARK  3 active torsions:
REMARK  status: ('A' for Active; 'I' for Inactive)
REMARK    1  A    between atoms: C2_2  and  C3_3 
REMARK    2  A    between atoms: C3_3  and  C4_4 
REMARK    3  A    between atoms: C4_4  and  N1_5 
ROOT
HETATM    1  N1  UNL     1      35.667  -1.520  39.048  1.00  0.00    -0.217 N 
HETATM    2  C5  UNL     1      35.408  -0.078  38.864  1.00  0.00     0.161 C 
HETATM    3  C6  UNL     1      36.204   0.642  39.924  1.00  0.00     0.158 C 
HETATM    4  N2  UNL     1      36.745  -0.384  40.761  1.00  0.00    -0.225 N 
ATOM      5  H2  UNL     1      37.407  -0.240  41.523  1.00  0.00     0.177 HD
HETATM    6  C7  UNL     1      36.205  -1.648  40.355  1.00  0.00     0.669 C 
HETATM    7  N3  UNL     1      36.238  -2.703  41.081  1.00  0.00    -0.235 N 
ATOM      8  H31 UNL     1      36.624  -2.795  42.020  1.00  0.00     0.174 HD
ATOM      9  H32 UNL     1      35.853  -3.603  40.792  1.00  0.00     0.174 HD
ENDROOT
BRANCH   1  10
HETATM   10  C4  UNL     1      35.415  -2.492  38.048  1.00  0.00     0.145 C 
BRANCH  10  11
HETATM   11  C3  UNL     1      34.158  -2.324  37.257  1.00  0.00     0.047 C 
BRANCH  11  12
HETATM   12  C2  UNL     1      33.102  -3.040  38.047  1.00  0.00    -0.035 C 
HETATM   13  C1  UNL     1      32.457  -2.401  38.984  1.00  0.00     0.007 C 
ENDBRANCH  11  12
ENDBRANCH  10  11
ENDBRANCH   1  10
TORSDOF 3
ENDMDL
MODEL 5
REMARK VINA RESULT: -3.556883881      1.171      2.177
REMARK  3 active torsions:
REMARK  status: ('A' for Active; 'I' for Inactive)
REMARK    1  A    between atoms: C2_2  and  C3_3 
REMARK    2  A    between atoms: C3_3  and  C4_4 
REMARK    3  A    between atoms: C4_4  and  N1_5 
ROOT
HETATM    1  N1  UNL     1      34.800  -1.998  38.325  1.00  0.00    -0.217 N 
HETATM    2  C5  UNL     1      34.343  -1.134  39.431  1.00  0.00     0.161 C 
HETATM    3  C6  UNL     1      32.922  -1.538  39.736  1.00  0.00     0.158 C 
HETATM    4  N2  UNL     1      32.563  -2.476  38.718  1.00  0.00    -0.225 N 
ATOM      5  H2  UNL     1      31.696  -3.011  38.684  1.00  0.00     0.177 HD
HETATM    6  C7  UNL     1      33.620  -2.542  37.753  1.00  0.00     0.669 C 
HETATM    7  N3  UNL     1      33.484  -3.036  36.578  1.00  0.00    -0.235 N 
ATOM      8  H31 UNL     1      32.636  -3.426  36.167  1.00  0.00     0.174 HD
ATOM      9  H32 UNL     1      34.237  -3.083  35.891  1.00  0.00     0.174 HD
ENDROOT
BRANCH   1  10
HETATM   10  C4  UNL     1      36.165  -2.194  37.999  1.00  0.00     0.145 C 
BRANCH  10  11
HETATM   11  C3  UNL     1      37.150  -1.321  38.706  1.00  0.00     0.047 C 
BRANCH  11  12
HETATM   12  C2  UNL     1      37.652  -2.149  39.853  1.00  0.00    -0.035 C 
HETATM   13  C1  UNL     1      37.420  -1.760  41.076  1.00  0.00     0.007 C 
ENDBRANCH  11  12
ENDBRANCH  10  11
ENDBRANCH   1  10
TORSDOF 3
ENDMDL
