MODEL 1
REMARK VINA RESULT: -8.238285123      0.000      0.000
REMARK  10 active torsions:
REMARK  status: ('A' for Active; 'I' for Inactive)
REMARK    1  A    between atoms: O1_1  and  N1_3 
REMARK    2  A    between atoms: C1_5  and  O2_6 
REMARK    3  A    between atoms: C1_5  and  C2_8 
REMARK    4  A    between atoms: C4_11  and  C5_12 
REMARK    5  A    between atoms: C5_12  and  C6_13 
REMARK    6  A    between atoms: C6_13  and  O4_14 
REMARK    7  A    between atoms: O4_14  and  C7_15 
REMARK    8  A    between atoms: C10_18  and  C11_19 
REMARK    9  A    between atoms: C16_29  and  O5_30 
REMARK   10  A    between atoms: C17_32  and  O6_33 
ROOT
HETATM    1  C2  UNL     1      34.261  51.524  48.511  1.00  0.00     0.229 C 
HETATM    2  O3  UNL     1      33.208  51.250  47.670  1.00  0.00    -0.368 OA
HETATM    3  C3  UNL     1      32.582  52.376  47.147  1.00  0.00     0.145 C 
HETATM    4  C4  UNL     1      31.130  52.156  46.882  1.00  0.00     0.090 C 
HETATM    5  C14 UNL     1      30.908  52.239  48.363  1.00  0.00     0.258 C 
HETATM    6  F4  UNL     1      29.700  52.812  48.751  1.00  0.00    -0.205 F 
HETATM    7  F5  UNL     1      31.287  51.172  49.090  1.00  0.00    -0.205 F 
HETATM    8  C15 UNL     1      32.083  53.277  48.279  1.00  0.00     0.119 C 
HETATM    9  C16 UNL     1      32.926  53.421  49.450  1.00  0.00     0.162 C 
HETATM   10  C17 UNL     1      33.960  52.389  49.688  1.00  0.00     0.184 C 
ENDROOT
BRANCH   4  11
HETATM   11  C5  UNL     1      30.674  51.016  46.079  1.00  0.00     0.040 C 
BRANCH  11  12
HETATM   12  C6  UNL     1      29.221  51.147  45.736  1.00  0.00     0.176 C 
BRANCH  12  13
HETATM   13  O4  UNL     1      28.311  50.460  46.575  1.00  0.00    -0.351 OA
BRANCH  13  14
HETATM   14  C7  UNL     1      28.051  49.110  46.155  1.00  0.00     0.068 A 
HETATM   15  C8  UNL     1      27.448  48.940  44.945  1.00  0.00     0.037 A 
HETATM   16  C9  UNL     1      27.188  47.616  44.492  1.00  0.00     0.019 A 
HETATM   17  C10 UNL     1      27.550  46.566  45.300  1.00  0.00     0.048 A 
HETATM   18  C12 UNL     1      28.146  46.724  46.515  1.00  0.00     0.019 A 
HETATM   19  C13 UNL     1      28.393  48.038  46.929  1.00  0.00     0.037 A 
BRANCH  17  20
HETATM   20  C11 UNL     1      27.341  45.139  44.821  1.00  0.00     0.417 C 
HETATM   21  F1  UNL     1      26.126  44.690  45.242  1.00  0.00    -0.166 F 
HETATM   22  F2  UNL     1      27.487  45.197  43.438  1.00  0.00    -0.166 F 
HETATM   23  F3  UNL     1      28.398  44.420  45.320  1.00  0.00    -0.166 F 
ENDBRANCH  17  20
ENDBRANCH  13  14
ENDBRANCH  12  13
ENDBRANCH  11  12
ENDBRANCH   4  11
BRANCH   1  24
HETATM   24  C1  UNL     1      35.501  51.922  47.817  1.00  0.00     0.167 C 
HETATM   25  N1  UNL     1      35.985  51.238  46.860  1.00  0.00    -0.249 N 
ATOM     26  H1  UNL     1      36.847  51.585  46.440  1.00  0.00     0.196 HD
BRANCH  25  27
HETATM   27  O1  UNL     1      35.469  50.086  46.336  1.00  0.00    -0.288 OA
ATOM     28  H1  UNL     1      35.916  49.471  45.766  1.00  0.00     0.244 HD
ENDBRANCH  25  27
BRANCH  24  29
HETATM   29  O2  UNL     1      36.145  53.073  48.240  1.00  0.00    -0.346 OA
ATOM     30  H2  UNL     1      35.783  53.925  48.028  1.00  0.00     0.219 HD
ENDBRANCH  24  29
ENDBRANCH   1  24
BRANCH   9  31
HETATM   31  O5  UNL     1      32.093  53.555  50.564  1.00  0.00    -0.392 OA
ATOM     32  H5  UNL     1      32.132  52.744  51.057  1.00  0.00     0.210 HD
ENDBRANCH   9  31
BRANCH  10  33
HETATM   33  O6  UNL     1      33.616  51.629  50.802  1.00  0.00    -0.390 OA
ATOM     34  H6  UNL     1      32.970  52.073  51.338  1.00  0.00     0.210 HD
ENDBRANCH  10  33
TORSDOF 10
ENDMDL
MODEL 2
REMARK VINA RESULT: -8.034435256      1.686      2.068
REMARK  10 active torsions:
REMARK  status: ('A' for Active; 'I' for Inactive)
REMARK    1  A    between atoms: O1_1  and  N1_3 
REMARK    2  A    between atoms: C1_5  and  O2_6 
REMARK    3  A    between atoms: C1_5  and  C2_8 
REMARK    4  A    between atoms: C4_11  and  C5_12 
REMARK    5  A    between atoms: C5_12  and  C6_13 
REMARK    6  A    between atoms: C6_13  and  O4_14 
REMARK    7  A    between atoms: O4_14  and  C7_15 
REMARK    8  A    between atoms: C10_18  and  C11_19 
REMARK    9  A    between atoms: C16_29  and  O5_30 
REMARK   10  A    between atoms: C17_32  and  O6_33 
ROOT
HETATM    1  C2  UNL     1      33.997  52.690  48.452  1.00  0.00     0.229 C 
HETATM    2  O3  UNL     1      32.712  52.389  48.067  1.00  0.00    -0.368 OA
HETATM    3  C3  UNL     1      32.512  52.375  46.691  1.00  0.00     0.145 C 
HETATM    4  C4  UNL     1      31.124  52.770  46.308  1.00  0.00     0.090 C 
HETATM    5  C14 UNL     1      31.501  54.185  46.634  1.00  0.00     0.258 C 
HETATM    6  F4  UNL     1      30.896  55.158  45.842  1.00  0.00    -0.205 F 
HETATM    7  F5  UNL     1      31.595  54.498  47.939  1.00  0.00    -0.205 F 
HETATM    8  C15 UNL     1      32.899  53.728  46.088  1.00  0.00     0.119 C 
HETATM    9  C16 UNL     1      34.071  54.396  46.622  1.00  0.00     0.162 C 
HETATM   10  C17 UNL     1      34.548  53.986  47.962  1.00  0.00     0.184 C 
ENDROOT
BRANCH   4  11
HETATM   11  C5  UNL     1      29.959  52.107  46.904  1.00  0.00     0.040 C 
BRANCH  11  12
HETATM   12  C6  UNL     1      29.358  51.117  45.953  1.00  0.00     0.176 C 
BRANCH  12  13
HETATM   13  O4  UNL     1      28.071  50.628  46.284  1.00  0.00    -0.351 OA
BRANCH  13  14
HETATM   14  C7  UNL     1      27.875  49.248  45.934  1.00  0.00     0.068 A 
HETATM   15  C8  UNL     1      27.338  48.985  44.711  1.00  0.00     0.037 A 
HETATM   16  C9  UNL     1      27.143  47.628  44.327  1.00  0.00     0.019 A 
HETATM   17  C10 UNL     1      27.499  46.642  45.213  1.00  0.00     0.048 A 
HETATM   18  C12 UNL     1      28.031  46.892  46.442  1.00  0.00     0.019 A 
HETATM   19  C13 UNL     1      28.215  48.236  46.787  1.00  0.00     0.037 A 
BRANCH  17  20
HETATM   20  C11 UNL     1      27.360  45.182  44.812  1.00  0.00     0.417 C 
HETATM   21  F1  UNL     1      26.171  44.697  45.263  1.00  0.00    -0.166 F 
HETATM   22  F2  UNL     1      27.500  45.173  43.428  1.00  0.00    -0.166 F 
HETATM   23  F3  UNL     1      28.453  44.544  45.343  1.00  0.00    -0.166 F 
ENDBRANCH  17  20
ENDBRANCH  13  14
ENDBRANCH  12  13
ENDBRANCH  11  12
ENDBRANCH   4  11
BRANCH   1  24
HETATM   24  C1  UNL     1      34.950  51.574  48.297  1.00  0.00     0.167 C 
HETATM   25  N1  UNL     1      34.673  50.394  48.683  1.00  0.00    -0.249 N 
ATOM     26  H1  UNL     1      35.392  49.685  48.541  1.00  0.00     0.196 HD
BRANCH  25  27
HETATM   27  O1  UNL     1      33.510  49.978  49.268  1.00  0.00    -0.288 OA
ATOM     28  H1  UNL     1      33.168  49.091  49.286  1.00  0.00     0.244 HD
ENDBRANCH  25  27
BRANCH  24  29
HETATM   29  O2  UNL     1      36.181  51.842  47.722  1.00  0.00    -0.346 OA
ATOM     30  H2  UNL     1      36.970  51.811  48.251  1.00  0.00     0.219 HD
ENDBRANCH  24  29
ENDBRANCH   1  24
BRANCH   9  31
HETATM   31  O5  UNL     1      33.837  55.772  46.578  1.00  0.00    -0.392 OA
ATOM     32  H5  UNL     1      34.178  56.099  45.754  1.00  0.00     0.210 HD
ENDBRANCH   9  31
BRANCH  10  33
HETATM   33  O6  UNL     1      34.320  55.011  48.875  1.00  0.00    -0.390 OA
ATOM     34  H6  UNL     1      34.503  55.862  48.493  1.00  0.00     0.210 HD
ENDBRANCH  10  33
TORSDOF 10
ENDMDL
MODEL 3
REMARK VINA RESULT: -8.033031102      1.984      2.513
REMARK  10 active torsions:
REMARK  status: ('A' for Active; 'I' for Inactive)
REMARK    1  A    between atoms: O1_1  and  N1_3 
REMARK    2  A    between atoms: C1_5  and  O2_6 
REMARK    3  A    between atoms: C1_5  and  C2_8 
REMARK    4  A    between atoms: C4_11  and  C5_12 
REMARK    5  A    between atoms: C5_12  and  C6_13 
REMARK    6  A    between atoms: C6_13  and  O4_14 
REMARK    7  A    between atoms: O4_14  and  C7_15 
REMARK    8  A    between atoms: C10_18  and  C11_19 
REMARK    9  A    between atoms: C16_29  and  O5_30 
REMARK   10  A    between atoms: C17_32  and  O6_33 
ROOT
HETATM    1  C2  UNL     1      34.327  51.624  48.619  1.00  0.00     0.229 C 
HETATM    2  O3  UNL     1      33.236  51.307  47.844  1.00  0.00    -0.368 OA
HETATM    3  C3  UNL     1      32.549  52.405  47.341  1.00  0.00     0.145 C 
HETATM    4  C4  UNL     1      31.091  52.140  47.165  1.00  0.00     0.090 C 
HETATM    5  C14 UNL     1      30.952  52.242  48.655  1.00  0.00     0.258 C 
HETATM    6  F4  UNL     1      29.752  52.786  49.104  1.00  0.00    -0.205 F 
HETATM    7  F5  UNL     1      31.403  51.198  49.374  1.00  0.00    -0.205 F 
HETATM    8  C15 UNL     1      32.089  53.310  48.488  1.00  0.00     0.119 C 
HETATM    9  C16 UNL     1      32.994  53.497  49.606  1.00  0.00     0.162 C 
HETATM   10  C17 UNL     1      34.069  52.499  49.798  1.00  0.00     0.184 C 
ENDROOT
BRANCH   4  11
HETATM   11  C5  UNL     1      30.622  50.974  46.407  1.00  0.00     0.040 C 
BRANCH  11  12
HETATM   12  C6  UNL     1      29.197  51.149  45.977  1.00  0.00     0.176 C 
BRANCH  12  13
HETATM   13  O4  UNL     1      28.207  50.867  46.949  1.00  0.00    -0.351 OA
BRANCH  13  14
HETATM   14  C7  UNL     1      28.425  49.629  47.646  1.00  0.00     0.068 A 
HETATM   15  C8  UNL     1      28.531  48.500  46.892  1.00  0.00     0.037 A 
HETATM   16  C9  UNL     1      28.760  47.258  47.549  1.00  0.00     0.019 A 
HETATM   17  C10 UNL     1      28.858  47.253  48.919  1.00  0.00     0.048 A 
HETATM   18  C12 UNL     1      28.747  48.374  49.684  1.00  0.00     0.019 A 
HETATM   19  C13 UNL     1      28.527  49.579  49.008  1.00  0.00     0.037 A 
BRANCH  17  20
HETATM   20  C11 UNL     1      29.162  45.954  49.648  1.00  0.00     0.417 C 
HETATM   21  F1  UNL     1      28.163  45.058  49.417  1.00  0.00    -0.166 F 
HETATM   22  F2  UNL     1      30.411  45.560  49.179  1.00  0.00    -0.166 F 
HETATM   23  F3  UNL     1      29.303  46.293  50.970  1.00  0.00    -0.166 F 
ENDBRANCH  17  20
ENDBRANCH  13  14
ENDBRANCH  12  13
ENDBRANCH  11  12
ENDBRANCH   4  11
BRANCH   1  24
HETATM   24  C1  UNL     1      35.513  52.046  47.847  1.00  0.00     0.167 C 
HETATM   25  N1  UNL     1      35.913  51.404  46.825  1.00  0.00    -0.249 N 
ATOM     26  H1  UNL     1      36.743  51.764  46.355  1.00  0.00     0.196 HD
BRANCH  25  27
HETATM   27  O1  UNL     1      35.345  50.281  46.291  1.00  0.00    -0.288 OA
ATOM     28  H1  UNL     1      35.799  49.502  45.992  1.00  0.00     0.244 HD
ENDBRANCH  25  27
BRANCH  24  29
HETATM   29  O2  UNL     1      36.200  53.171  48.271  1.00  0.00    -0.346 OA
ATOM     30  H2  UNL     1      35.732  53.885  48.687  1.00  0.00     0.219 HD
ENDBRANCH  24  29
ENDBRANCH   1  24
BRANCH   9  31
HETATM   31  O5  UNL     1      32.222  53.626  50.764  1.00  0.00    -0.392 OA
ATOM     32  H5  UNL     1      31.923  54.527  50.816  1.00  0.00     0.210 HD
ENDBRANCH   9  31
BRANCH  10  33
HETATM   33  O6  UNL     1      33.813  51.748  50.941  1.00  0.00    -0.390 OA
ATOM     34  H6  UNL     1      32.889  51.541  51.020  1.00  0.00     0.210 HD
ENDBRANCH  10  33
TORSDOF 10
ENDMDL
MODEL 4
REMARK VINA RESULT: -8.029558847      2.547      3.500
REMARK  10 active torsions:
REMARK  status: ('A' for Active; 'I' for Inactive)
REMARK    1  A    between atoms: O1_1  and  N1_3 
REMARK    2  A    between atoms: C1_5  and  O2_6 
REMARK    3  A    between atoms: C1_5  and  C2_8 
REMARK    4  A    between atoms: C4_11  and  C5_12 
REMARK    5  A    between atoms: C5_12  and  C6_13 
REMARK    6  A    between atoms: C6_13  and  O4_14 
REMARK    7  A    between atoms: O4_14  and  C7_15 
REMARK    8  A    between atoms: C10_18  and  C11_19 
REMARK    9  A    between atoms: C16_29  and  O5_30 
REMARK   10  A    between atoms: C17_32  and  O6_33 
ROOT
HETATM    1  C2  UNL     1      32.193  50.409  47.584  1.00  0.00     0.229 C 
HETATM    2  O3  UNL     1      31.227  50.173  46.635  1.00  0.00    -0.368 OA
HETATM    3  C3  UNL     1      29.952  50.594  46.995  1.00  0.00     0.145 C 
HETATM    4  C4  UNL     1      28.876  49.755  46.390  1.00  0.00     0.090 C 
HETATM    5  C14 UNL     1      29.230  48.689  47.384  1.00  0.00     0.258 C 
HETATM    6  F4  UNL     1      28.162  47.916  47.832  1.00  0.00    -0.205 F 
HETATM    7  F5  UNL     1      30.366  48.005  47.155  1.00  0.00    -0.205 F 
HETATM    8  C15 UNL     1      29.525  49.925  48.305  1.00  0.00     0.119 C 
HETATM    9  C16 UNL     1      30.530  49.760  49.337  1.00  0.00     0.162 C 
HETATM   10  C17 UNL     1      31.952  49.822  48.934  1.00  0.00     0.184 C 
ENDROOT
BRANCH   4  11
HETATM   11  C5  UNL     1      28.838  49.504  44.945  1.00  0.00     0.040 C 
BRANCH  11  12
HETATM   12  C6  UNL     1      27.462  49.107  44.504  1.00  0.00     0.176 C 
BRANCH  12  13
HETATM   13  O4  UNL     1      27.341  47.841  43.881  1.00  0.00    -0.351 OA
BRANCH  13  14
HETATM   14  C7  UNL     1      26.964  46.791  44.785  1.00  0.00     0.068 A 
HETATM   15  C8  UNL     1      25.889  47.017  45.590  1.00  0.00     0.037 A 
HETATM   16  C9  UNL     1      25.479  45.992  46.489  1.00  0.00     0.019 A 
HETATM   17  C10 UNL     1      26.193  44.819  46.511  1.00  0.00     0.048 A 
HETATM   18  C12 UNL     1      27.275  44.584  45.716  1.00  0.00     0.019 A 
HETATM   19  C13 UNL     1      27.648  45.609  44.840  1.00  0.00     0.037 A 
BRANCH  17  20
HETATM   20  C11 UNL     1      25.747  43.682  47.415  1.00  0.00     0.417 C 
HETATM   21  F1  UNL     1      25.261  44.191  48.581  1.00  0.00    -0.166 F 
HETATM   22  F2  UNL     1      24.819  42.967  46.665  1.00  0.00    -0.166 F 
HETATM   23  F3  UNL     1      26.851  42.884  47.580  1.00  0.00    -0.166 F 
ENDBRANCH  17  20
ENDBRANCH  13  14
ENDBRANCH  12  13
ENDBRANCH  11  12
ENDBRANCH   4  11
BRANCH   1  24
HETATM   24  C1  UNL     1      32.646  51.812  47.649  1.00  0.00     0.167 C 
HETATM   25  N1  UNL     1      33.270  52.362  46.686  1.00  0.00    -0.249 N 
ATOM     26  H1  UNL     1      33.550  53.334  46.819  1.00  0.00     0.196 HD
BRANCH  25  27
HETATM   27  O1  UNL     1      33.606  51.785  45.494  1.00  0.00    -0.288 OA
ATOM     28  H1  UNL     1      34.019  50.939  45.368  1.00  0.00     0.244 HD
ENDBRANCH  25  27
BRANCH  24  29
HETATM   29  O2  UNL     1      32.382  52.531  48.803  1.00  0.00    -0.346 OA
ATOM     30  H2  UNL     1      31.928  53.363  48.750  1.00  0.00     0.219 HD
ENDBRANCH  24  29
ENDBRANCH   1  24
BRANCH   9  31
HETATM   31  O5  UNL     1      30.256  48.568  50.013  1.00  0.00    -0.392 OA
ATOM     32  H5  UNL     1      30.504  48.685  50.923  1.00  0.00     0.210 HD
ENDBRANCH   9  31
BRANCH  10  33
HETATM   33  O6  UNL     1      32.527  48.560  49.048  1.00  0.00    -0.390 OA
ATOM     34  H6  UNL     1      32.078  47.924  48.504  1.00  0.00     0.210 HD
ENDBRANCH  10  33
TORSDOF 10
ENDMDL
MODEL 5
REMARK VINA RESULT: -8.021678986      2.603      3.463
REMARK  10 active torsions:
REMARK  status: ('A' for Active; 'I' for Inactive)
REMARK    1  A    between atoms: O1_1  and  N1_3 
REMARK    2  A    between atoms: C1_5  and  O2_6 
REMARK    3  A    between atoms: C1_5  and  C2_8 
REMARK    4  A    between atoms: C4_11  and  C5_12 
REMARK    5  A    between atoms: C5_12  and  C6_13 
REMARK    6  A    between atoms: C6_13  and  O4_14 
REMARK    7  A    between atoms: O4_14  and  C7_15 
REMARK    8  A    between atoms: C10_18  and  C11_19 
REMARK    9  A    between atoms: C16_29  and  O5_30 
REMARK   10  A    between atoms: C17_32  and  O6_33 
ROOT
HETATM    1  C2  UNL     1      34.003  52.698  48.440  1.00  0.00     0.229 C 
HETATM    2  O3  UNL     1      32.722  52.418  48.029  1.00  0.00    -0.368 OA
HETATM    3  C3  UNL     1      32.545  52.430  46.650  1.00  0.00     0.145 C 
HETATM    4  C4  UNL     1      31.169  52.846  46.250  1.00  0.00     0.090 C 
HETATM    5  C14 UNL     1      31.555  54.252  46.606  1.00  0.00     0.258 C 
HETATM    6  F4  UNL     1      30.974  55.244  45.820  1.00  0.00    -0.205 F 
HETATM    7  F5  UNL     1      31.630  54.541  47.918  1.00  0.00    -0.205 F 
HETATM    8  C15 UNL     1      32.957  53.788  46.077  1.00  0.00     0.119 C 
HETATM    9  C16 UNL     1      34.127  54.434  46.642  1.00  0.00     0.162 C 
HETATM   10  C17 UNL     1      34.577  53.997  47.982  1.00  0.00     0.184 C 
ENDROOT
BRANCH   4  11
HETATM   11  C5  UNL     1      29.986  52.187  46.815  1.00  0.00     0.040 C 
BRANCH  11  12
HETATM   12  C6  UNL     1      29.384  51.228  45.833  1.00  0.00     0.176 C 
BRANCH  12  13
HETATM   13  O4  UNL     1      30.082  50.012  45.632  1.00  0.00    -0.351 OA
BRANCH  13  14
HETATM   14  C7  UNL     1      29.848  49.040  46.665  1.00  0.00     0.068 A 
HETATM   15  C8  UNL     1      30.924  48.635  47.395  1.00  0.00     0.037 A 
HETATM   16  C9  UNL     1      30.726  47.684  48.435  1.00  0.00     0.019 A 
HETATM   17  C10 UNL     1      29.455  47.209  48.652  1.00  0.00     0.048 A 
HETATM   18  C12 UNL     1      28.373  47.601  47.923  1.00  0.00     0.019 A 
HETATM   19  C13 UNL     1      28.601  48.541  46.913  1.00  0.00     0.037 A 
BRANCH  17  20
HETATM   20  C11 UNL     1      29.199  46.238  49.792  1.00  0.00     0.417 C 
HETATM   21  F1  UNL     1      30.031  45.166  49.674  1.00  0.00    -0.166 F 
HETATM   22  F2  UNL     1      29.379  46.985  50.951  1.00  0.00    -0.166 F 
HETATM   23  F3  UNL     1      27.868  45.913  49.711  1.00  0.00    -0.166 F 
ENDBRANCH  17  20
ENDBRANCH  13  14
ENDBRANCH  12  13
ENDBRANCH  11  12
ENDBRANCH   4  11
BRANCH   1  24
HETATM   24  C1  UNL     1      34.947  51.574  48.283  1.00  0.00     0.167 C 
HETATM   25  N1  UNL     1      34.672  50.403  48.695  1.00  0.00    -0.249 N 
ATOM     26  H1  UNL     1      35.384  49.688  48.549  1.00  0.00     0.196 HD
BRANCH  25  27
HETATM   27  O1  UNL     1      33.521  50.003  49.314  1.00  0.00    -0.288 OA
ATOM     28  H1  UNL     1      33.206  50.283  50.165  1.00  0.00     0.244 HD
ENDBRANCH  25  27
BRANCH  24  29
HETATM   29  O2  UNL     1      36.165  51.826  47.675  1.00  0.00    -0.346 OA
ATOM     30  H2  UNL     1      36.652  52.612  47.893  1.00  0.00     0.219 HD
ENDBRANCH  24  29
ENDBRANCH   1  24
BRANCH   9  31
HETATM   31  O5  UNL     1      33.908  55.814  46.616  1.00  0.00    -0.392 OA
ATOM     32  H5  UNL     1      34.454  56.207  47.287  1.00  0.00     0.210 HD
ENDBRANCH   9  31
BRANCH  10  33
HETATM   33  O6  UNL     1      34.344  55.009  48.908  1.00  0.00    -0.390 OA
ATOM     34  H6  UNL     1      34.565  55.861  48.552  1.00  0.00     0.210 HD
ENDBRANCH  10  33
TORSDOF 10
ENDMDL
