MODEL 1
REMARK VINA RESULT: -7.533249636      0.000      0.000
REMARK  7 active torsions:
REMARK  status: ('A' for Active; 'I' for Inactive)
REMARK    1  A    between atoms: C2_7  and  C3_8 
REMARK    2  A    between atoms: C4_10  and  C5_11 
REMARK    3  A    between atoms: C4_10  and  C11_20 
REMARK    4  A    between atoms: C5_11  and  S1_12 
REMARK    5  A    between atoms: S1_12  and  C6_15 
REMARK    6  A    between atoms: C11_20  and  O3_21 
REMARK    7  A    between atoms: N3_23  and  O4_25 
ROOT
HETATM    1  N1  UNL     1      32.647  55.468  49.089  1.00  0.00    -0.386 N 
ATOM      2  H11 UNL     1      33.059  56.120  48.423  1.00  0.00     0.157 HD
ATOM      3  H12 UNL     1      32.395  55.738  50.040  1.00  0.00     0.157 HD
HETATM    4  C1  UNL     1      32.437  54.253  48.707  1.00  0.00     0.117 C 
HETATM    5  N2  UNL     1      31.870  53.356  49.625  1.00  0.00    -0.369 N 
ATOM      6  H2  UNL     1      31.911  53.542  50.627  1.00  0.00     0.161 HD
HETATM    7  C2  UNL     1      31.227  52.161  49.124  1.00  0.00     0.135 C 
HETATM    8  C4  UNL     1      32.069  51.564  48.056  1.00  0.00     0.131 C 
HETATM    9  C12 UNL     1      32.369  52.518  46.926  1.00  0.00     0.303 C 
HETATM   10  F2  UNL     1      33.382  51.943  46.165  1.00  0.00    -0.201 F 
HETATM   11  F3  UNL     1      31.279  52.594  46.044  1.00  0.00    -0.201 F 
HETATM   12  C13 UNL     1      32.800  53.865  47.335  1.00  0.00     0.236 C 
HETATM   13 CL1  UNL     1      34.579  54.067  47.192  1.00  0.00    -0.086 Cl
HETATM   14 CL2  UNL     1      32.076  55.081  46.233  1.00  0.00    -0.086 Cl
ENDROOT
BRANCH   8  15
HETATM   15  C5  UNL     1      31.430  50.364  47.402  1.00  0.00     0.167 C 
BRANCH  15  16
HETATM   16  S1  UNL     1      31.141  48.994  48.435  1.00  0.00     0.150 S 
HETATM   17  O1  UNL     1      31.394  49.193  49.878  1.00  0.00    -0.227 OA
HETATM   18  O2  UNL     1      31.943  47.775  48.005  1.00  0.00    -0.227 OA
BRANCH  16  19
HETATM   19  C6  UNL     1      29.423  48.482  48.281  1.00  0.00     0.108 C 
HETATM   20  C7  UNL     1      29.322  47.109  47.700  1.00  0.00     0.020 C 
HETATM   21  C8  UNL     1      28.413  46.352  48.649  1.00  0.00     0.001 C 
HETATM   22  C9  UNL     1      27.641  47.441  49.402  1.00  0.00     0.001 C 
HETATM   23  C10 UNL     1      28.730  48.479  49.599  1.00  0.00     0.020 C 
ENDBRANCH  16  19
ENDBRANCH  15  16
ENDBRANCH   8  15
BRANCH   8  24
HETATM   24  C11 UNL     1      33.368  51.130  48.638  1.00  0.00     0.153 C 
HETATM   25  N3  UNL     1      34.368  50.762  47.914  1.00  0.00    -0.250 N 
ATOM     26  H3  UNL     1      34.248  50.774  46.902  1.00  0.00     0.196 HD
BRANCH  24  27
HETATM   27  O3  UNL     1      33.546  51.109  50.012  1.00  0.00    -0.347 OA
ATOM     28  H3  UNL     1      32.854  50.793  50.580  1.00  0.00     0.219 HD
ENDBRANCH  24  27
BRANCH  25  29
HETATM   29  O4  UNL     1      35.563  50.362  48.396  1.00  0.00    -0.288 OA
ATOM     30  H4  UNL     1      36.258  49.978  47.875  1.00  0.00     0.244 HD
ENDBRANCH  25  29
ENDBRANCH   8  24
BRANCH   7  31
HETATM   31  C3  UNL     1      29.824  52.480  48.696  1.00  0.00     0.248 C 
HETATM   32  F1  UNL     1      28.891  51.749  49.397  1.00  0.00    -0.253 F 
ENDBRANCH   7  31
TORSDOF 7
ENDMDL
MODEL 2
REMARK VINA RESULT: -7.185664743      3.192      5.697
REMARK  7 active torsions:
REMARK  status: ('A' for Active; 'I' for Inactive)
REMARK    1  A    between atoms: C2_7  and  C3_8 
REMARK    2  A    between atoms: C4_10  and  C5_11 
REMARK    3  A    between atoms: C4_10  and  C11_20 
REMARK    4  A    between atoms: C5_11  and  S1_12 
REMARK    5  A    between atoms: S1_12  and  C6_15 
REMARK    6  A    between atoms: C11_20  and  O3_21 
REMARK    7  A    between atoms: N3_23  and  O4_25 
ROOT
HETATM    1  N1  UNL     1      28.746  49.634  45.079  1.00  0.00    -0.386 N 
ATOM      2  H11 UNL     1      27.746  49.488  45.218  1.00  0.00     0.157 HD
ATOM      3  H12 UNL     1      29.217  49.424  44.200  1.00  0.00     0.157 HD
HETATM    4  C1  UNL     1      29.437  50.106  46.062  1.00  0.00     0.117 C 
HETATM    5  N2  UNL     1      30.813  50.307  45.871  1.00  0.00    -0.369 N 
ATOM      6  H2  UNL     1      31.311  49.821  45.125  1.00  0.00     0.161 HD
HETATM    7  C2  UNL     1      31.512  51.217  46.751  1.00  0.00     0.135 C 
HETATM    8  C4  UNL     1      31.071  50.981  48.150  1.00  0.00     0.131 C 
HETATM    9  C12 UNL     1      29.578  51.105  48.335  1.00  0.00     0.303 C 
HETATM   10  F2  UNL     1      29.279  50.580  49.589  1.00  0.00    -0.201 F 
HETATM   11  F3  UNL     1      29.206  52.456  48.431  1.00  0.00    -0.201 F 
HETATM   12  C13 UNL     1      28.757  50.410  47.331  1.00  0.00     0.236 C 
HETATM   13 CL1  UNL     1      28.110  48.857  47.958  1.00  0.00    -0.086 Cl
HETATM   14 CL2  UNL     1      27.325  51.415  46.935  1.00  0.00    -0.086 Cl
ENDROOT
BRANCH   8  15
HETATM   15  C5  UNL     1      31.675  51.953  49.132  1.00  0.00     0.167 C 
BRANCH  15  16
HETATM   16  S1  UNL     1      33.394  51.832  49.369  1.00  0.00     0.150 S 
HETATM   17  O1  UNL     1      34.105  50.837  48.536  1.00  0.00    -0.227 OA
HETATM   18  O2  UNL     1      33.752  51.539  50.817  1.00  0.00    -0.227 OA
BRANCH  16  19
HETATM   19  C6  UNL     1      34.158  53.425  49.027  1.00  0.00     0.108 C 
HETATM   20  C7  UNL     1      35.112  53.328  47.881  1.00  0.00     0.020 C 
HETATM   21  C8  UNL     1      34.711  54.452  46.946  1.00  0.00     0.001 C 
HETATM   22  C9  UNL     1      33.923  55.429  47.826  1.00  0.00     0.001 C 
HETATM   23  C10 UNL     1      33.142  54.463  48.697  1.00  0.00     0.020 C 
ENDBRANCH  16  19
ENDBRANCH  15  16
ENDBRANCH   8  15
BRANCH   8  24
HETATM   24  C11 UNL     1      31.465  49.607  48.564  1.00  0.00     0.153 C 
HETATM   25  N3  UNL     1      32.010  48.764  47.756  1.00  0.00    -0.250 N 
ATOM     26  H3  UNL     1      32.171  49.068  46.796  1.00  0.00     0.196 HD
BRANCH  24  27
HETATM   27  O3  UNL     1      31.253  49.181  49.865  1.00  0.00    -0.347 OA
ATOM     28  H3  UNL     1      31.621  48.359  50.166  1.00  0.00     0.219 HD
ENDBRANCH  24  27
BRANCH  25  29
HETATM   29  O4  UNL     1      32.384  47.511  48.085  1.00  0.00    -0.288 OA
ATOM     30  H4  UNL     1      32.593  46.825  47.463  1.00  0.00     0.244 HD
ENDBRANCH  25  29
ENDBRANCH   8  24
BRANCH   7  31
HETATM   31  C3  UNL     1      31.325  52.629  46.277  1.00  0.00     0.248 C 
HETATM   32  F1  UNL     1      32.417  53.088  45.575  1.00  0.00    -0.253 F 
ENDBRANCH   7  31
TORSDOF 7
ENDMDL
MODEL 3
REMARK VINA RESULT: -7.107860885      2.005      2.589
REMARK  7 active torsions:
REMARK  status: ('A' for Active; 'I' for Inactive)
REMARK    1  A    between atoms: C2_7  and  C3_8 
REMARK    2  A    between atoms: C4_10  and  C5_11 
REMARK    3  A    between atoms: C4_10  and  C11_20 
REMARK    4  A    between atoms: C5_11  and  S1_12 
REMARK    5  A    between atoms: S1_12  and  C6_15 
REMARK    6  A    between atoms: C11_20  and  O3_21 
REMARK    7  A    between atoms: N3_23  and  O4_25 
ROOT
HETATM    1  N1  UNL     1      35.754  52.712  48.714  1.00  0.00    -0.386 N 
ATOM      2  H11 UNL     1      36.264  52.997  47.879  1.00  0.00     0.157 HD
ATOM      3  H12 UNL     1      36.171  52.722  49.645  1.00  0.00     0.157 HD
HETATM    4  C1  UNL     1      34.530  52.322  48.580  1.00  0.00     0.117 C 
HETATM    5  N2  UNL     1      33.829  51.929  49.731  1.00  0.00    -0.369 N 
ATOM      6  H2  UNL     1      34.329  51.655  50.576  1.00  0.00     0.161 HD
HETATM    7  C2  UNL     1      32.383  51.918  49.694  1.00  0.00     0.135 C 
HETATM    8  C4  UNL     1      31.931  51.320  48.411  1.00  0.00     0.131 C 
HETATM    9  C12 UNL     1      32.487  52.020  47.196  1.00  0.00     0.303 C 
HETATM   10  F2  UNL     1      32.232  51.199  46.101  1.00  0.00    -0.201 F 
HETATM   11  F3  UNL     1      31.757  53.189  46.924  1.00  0.00    -0.201 F 
HETATM   12  C13 UNL     1      33.929  52.307  47.237  1.00  0.00     0.236 C 
HETATM   13 CL1  UNL     1      34.872  51.131  46.260  1.00  0.00    -0.086 Cl
HETATM   14 CL2  UNL     1      34.238  53.915  46.503  1.00  0.00    -0.086 Cl
ENDROOT
BRANCH   8  15
HETATM   15  C5  UNL     1      30.433  51.356  48.239  1.00  0.00     0.167 C 
BRANCH  15  16
HETATM   16  S1  UNL     1      29.515  50.338  49.310  1.00  0.00     0.150 S 
HETATM   17  O1  UNL     1      28.718  51.024  50.349  1.00  0.00    -0.227 OA
HETATM   18  O2  UNL     1      30.392  49.319  50.020  1.00  0.00    -0.227 OA
BRANCH  16  19
HETATM   19  C6  UNL     1      28.360  49.348  48.349  1.00  0.00     0.108 C 
HETATM   20  C7  UNL     1      28.292  49.825  46.934  1.00  0.00     0.020 C 
HETATM   21  C8  UNL     1      28.497  48.578  46.095  1.00  0.00     0.001 C 
HETATM   22  C9  UNL     1      28.148  47.415  47.031  1.00  0.00     0.001 C 
HETATM   23  C10 UNL     1      28.747  47.910  48.334  1.00  0.00     0.020 C 
ENDBRANCH  16  19
ENDBRANCH  15  16
ENDBRANCH   8  15
BRANCH   8  24
HETATM   24  C11 UNL     1      32.364  49.898  48.352  1.00  0.00     0.153 C 
HETATM   25  N3  UNL     1      32.023  49.105  47.396  1.00  0.00    -0.250 N 
ATOM     26  H3  UNL     1      31.430  49.483  46.657  1.00  0.00     0.196 HD
BRANCH  24  27
HETATM   27  O3  UNL     1      33.168  49.370  49.348  1.00  0.00    -0.347 OA
ATOM     28  H3  UNL     1      33.654  48.568  49.197  1.00  0.00     0.219 HD
ENDBRANCH  24  27
BRANCH  25  29
HETATM   29  O4  UNL     1      32.390  47.810  47.299  1.00  0.00    -0.288 OA
ATOM     30  H4  UNL     1      33.221  47.458  47.595  1.00  0.00     0.244 HD
ENDBRANCH  25  29
ENDBRANCH   8  24
BRANCH   7  31
HETATM   31  C3  UNL     1      31.858  53.301  49.948  1.00  0.00     0.248 C 
HETATM   32  F1  UNL     1      32.668  54.014  50.803  1.00  0.00    -0.253 F 
ENDBRANCH   7  31
TORSDOF 7
ENDMDL
MODEL 4
REMARK VINA RESULT: -7.017348230      2.299      3.032
REMARK  7 active torsions:
REMARK  status: ('A' for Active; 'I' for Inactive)
REMARK    1  A    between atoms: C2_7  and  C3_8 
REMARK    2  A    between atoms: C4_10  and  C5_11 
REMARK    3  A    between atoms: C4_10  and  C11_20 
REMARK    4  A    between atoms: C5_11  and  S1_12 
REMARK    5  A    between atoms: S1_12  and  C6_15 
REMARK    6  A    between atoms: C11_20  and  O3_21 
REMARK    7  A    between atoms: N3_23  and  O4_25 
ROOT
HETATM    1  N1  UNL     1      35.790  52.749  48.540  1.00  0.00    -0.386 N 
ATOM      2  H11 UNL     1      36.221  53.060  47.670  1.00  0.00     0.157 HD
ATOM      3  H12 UNL     1      36.285  52.748  49.431  1.00  0.00     0.157 HD
HETATM    4  C1  UNL     1      34.565  52.341  48.504  1.00  0.00     0.117 C 
HETATM    5  N2  UNL     1      33.972  51.912  49.702  1.00  0.00    -0.369 N 
ATOM      6  H2  UNL     1      34.547  51.630  50.495  1.00  0.00     0.161 HD
HETATM    7  C2  UNL     1      32.529  51.877  49.789  1.00  0.00     0.135 C 
HETATM    8  C4  UNL     1      31.977  51.297  48.538  1.00  0.00     0.131 C 
HETATM    9  C12 UNL     1      32.414  52.031  47.294  1.00  0.00     0.303 C 
HETATM   10  F2  UNL     1      32.079  51.228  46.208  1.00  0.00    -0.201 F 
HETATM   11  F3  UNL     1      31.646  53.192  47.112  1.00  0.00    -0.201 F 
HETATM   12  C13 UNL     1      33.851  52.342  47.218  1.00  0.00     0.236 C 
HETATM   13 CL1  UNL     1      34.723  51.203  46.138  1.00  0.00    -0.086 Cl
HETATM   14 CL2  UNL     1      34.069  53.970  46.495  1.00  0.00    -0.086 Cl
ENDROOT
BRANCH   8  15
HETATM   15  C5  UNL     1      30.469  51.311  48.496  1.00  0.00     0.167 C 
BRANCH  15  16
HETATM   16  S1  UNL     1      29.671  49.977  49.276  1.00  0.00     0.150 S 
HETATM   17  O1  UNL     1      30.498  49.154  50.184  1.00  0.00    -0.227 OA
HETATM   18  O2  UNL     1      29.030  49.029  48.274  1.00  0.00    -0.227 OA
BRANCH  16  19
HETATM   19  C6  UNL     1      28.294  50.595  50.257  1.00  0.00     0.108 C 
HETATM   20  C7  UNL     1      28.130  52.070  50.081  1.00  0.00     0.020 C 
HETATM   21  C8  UNL     1      26.664  52.259  49.744  1.00  0.00     0.001 C 
HETATM   22  C9  UNL     1      25.978  50.986  50.252  1.00  0.00     0.001 C 
HETATM   23  C10 UNL     1      27.012  49.939  49.881  1.00  0.00     0.020 C 
ENDBRANCH  16  19
ENDBRANCH  15  16
ENDBRANCH   8  15
BRANCH   8  24
HETATM   24  C11 UNL     1      32.425  49.884  48.411  1.00  0.00     0.153 C 
HETATM   25  N3  UNL     1      32.055  49.120  47.442  1.00  0.00    -0.250 N 
ATOM     26  H3  UNL     1      31.428  49.516  46.741  1.00  0.00     0.196 HD
BRANCH  24  27
HETATM   27  O3  UNL     1      33.276  49.333  49.354  1.00  0.00    -0.347 OA
ATOM     28  H3  UNL     1      33.049  48.520  49.788  1.00  0.00     0.219 HD
ENDBRANCH  24  27
BRANCH  25  29
HETATM   29  O4  UNL     1      32.435  47.835  47.284  1.00  0.00    -0.288 OA
ATOM     30  H4  UNL     1      33.213  47.448  47.668  1.00  0.00     0.244 HD
ENDBRANCH  25  29
ENDBRANCH   8  24
BRANCH   7  31
HETATM   31  C3  UNL     1      32.006  53.245  50.117  1.00  0.00     0.248 C 
HETATM   32  F1  UNL     1      32.893  53.969  50.881  1.00  0.00    -0.253 F 
ENDBRANCH   7  31
TORSDOF 7
ENDMDL
MODEL 5
REMARK VINA RESULT: -6.990090067      2.756      3.290
REMARK  7 active torsions:
REMARK  status: ('A' for Active; 'I' for Inactive)
REMARK    1  A    between atoms: C2_7  and  C3_8 
REMARK    2  A    between atoms: C4_10  and  C5_11 
REMARK    3  A    between atoms: C4_10  and  C11_20 
REMARK    4  A    between atoms: C5_11  and  S1_12 
REMARK    5  A    between atoms: S1_12  and  C6_15 
REMARK    6  A    between atoms: C11_20  and  O3_21 
REMARK    7  A    between atoms: N3_23  and  O4_25 
ROOT
HETATM    1  N1  UNL     1      34.247  53.255  50.358  1.00  0.00    -0.386 N 
ATOM      2  H11 UNL     1      35.250  53.347  50.201  1.00  0.00     0.157 HD
ATOM      3  H12 UNL     1      33.795  53.546  51.225  1.00  0.00     0.157 HD
HETATM    4  C1  UNL     1      33.524  52.748  49.415  1.00  0.00     0.117 C 
HETATM    5  N2  UNL     1      32.143  52.621  49.632  1.00  0.00    -0.369 N 
ATOM      6  H2  UNL     1      31.763  52.623  50.578  1.00  0.00     0.161 HD
HETATM    7  C2  UNL     1      31.269  52.486  48.488  1.00  0.00     0.135 C 
HETATM    8  C4  UNL     1      31.873  51.534  47.521  1.00  0.00     0.131 C 
HETATM    9  C12 UNL     1      33.263  51.926  47.083  1.00  0.00     0.303 C 
HETATM   10  F2  UNL     1      33.810  50.825  46.430  1.00  0.00    -0.201 F 
HETATM   11  F3  UNL     1      33.205  52.918  46.091  1.00  0.00    -0.201 F 
HETATM   12  C13 UNL     1      34.176  52.327  48.165  1.00  0.00     0.236 C 
HETATM   13 CL1  UNL     1      35.321  51.012  48.594  1.00  0.00    -0.086 Cl
HETATM   14 CL2  UNL     1      35.189  53.701  47.611  1.00  0.00    -0.086 Cl
ENDROOT
BRANCH   8  15
HETATM   15  C5  UNL     1      31.078  51.403  46.245  1.00  0.00     0.167 C 
BRANCH  15  16
HETATM   16  S1  UNL     1      29.427  50.887  46.423  1.00  0.00     0.150 S 
HETATM   17  O1  UNL     1      28.409  51.956  46.510  1.00  0.00    -0.227 OA
HETATM   18  O2  UNL     1      29.237  49.989  47.636  1.00  0.00    -0.227 OA
BRANCH  16  19
HETATM   19  C6  UNL     1      28.969  49.855  45.021  1.00  0.00     0.108 C 
HETATM   20  C7  UNL     1      28.064  48.744  45.446  1.00  0.00     0.020 C 
HETATM   21  C8  UNL     1      26.888  48.816  44.491  1.00  0.00     0.001 C 
HETATM   22  C9  UNL     1      27.415  49.594  43.279  1.00  0.00     0.001 C 
HETATM   23  C10 UNL     1      28.273  50.641  43.965  1.00  0.00     0.020 C 
ENDBRANCH  16  19
ENDBRANCH  15  16
ENDBRANCH   8  15
BRANCH   8  24
HETATM   24  C11 UNL     1      31.960  50.186  48.146  1.00  0.00     0.153 C 
HETATM   25  N3  UNL     1      32.279  49.129  47.482  1.00  0.00    -0.250 N 
ATOM     26  H3  UNL     1      32.477  49.238  46.488  1.00  0.00     0.196 HD
BRANCH  24  27
HETATM   27  O3  UNL     1      31.693  50.023  49.495  1.00  0.00    -0.347 OA
ATOM     28  H3  UNL     1      31.229  49.253  49.802  1.00  0.00     0.219 HD
ENDBRANCH  24  27
BRANCH  25  29
HETATM   29  O4  UNL     1      32.370  47.888  48.005  1.00  0.00    -0.288 OA
ATOM     30  H4  UNL     1      31.652  47.413  48.404  1.00  0.00     0.244 HD
ENDBRANCH  25  29
ENDBRANCH   8  24
BRANCH   7  31
HETATM   31  C3  UNL     1      30.970  53.840  47.913  1.00  0.00     0.248 C 
HETATM   32  F1  UNL     1      31.121  54.842  48.845  1.00  0.00    -0.253 F 
ENDBRANCH   7  31
TORSDOF 7
ENDMDL
