MODEL 1
REMARK VINA RESULT: -4.963833686      0.000      0.000
REMARK  0 active torsions:
REMARK  status: ('A' for Active; 'I' for Inactive)
REMARK       I    between atoms: C1_4  and  N3_6 
ROOT
HETATM    1  N1  UNL     1      25.692  16.974  57.757  1.00  0.00    -0.374 N 
ATOM      2  H11 UNL     1      26.343  16.253  58.069  1.00  0.00     0.158 HD
ATOM      3  H12 UNL     1      26.038  17.864  57.398  1.00  0.00     0.158 HD
HETATM    4  C1  UNL     1      24.424  16.731  57.827  1.00  0.00     0.183 C 
HETATM    5  N2  UNL     1      23.524  17.729  57.396  1.00  0.00    -0.064 NA
HETATM    6  N3  UNL     1      23.942  15.489  58.328  1.00  0.00    -0.356 N 
HETATM    7  C2  UNL     1      22.832  15.297  59.241  1.00  0.00     0.125 C 
HETATM    8  C3  UNL     1      22.097  14.093  58.670  1.00  0.00     0.021 C 
HETATM    9  C4  UNL     1      23.144  13.365  57.868  1.00  0.00     0.021 C 
HETATM   10  C5  UNL     1      24.439  14.160  58.044  1.00  0.00     0.125 C 
ENDROOT
TORSDOF 0
ENDMDL
MODEL 2
REMARK VINA RESULT: -4.495311675      0.995      1.013
REMARK  0 active torsions:
REMARK  status: ('A' for Active; 'I' for Inactive)
REMARK       I    between atoms: C1_4  and  N3_6 
ROOT
HETATM    1  N1  UNL     1      25.163  16.340  58.273  1.00  0.00    -0.374 N 
ATOM      2  H11 UNL     1      25.866  15.607  58.363  1.00  0.00     0.158 HD
ATOM      3  H12 UNL     1      25.442  17.311  58.124  1.00  0.00     0.158 HD
HETATM    4  C1  UNL     1      23.916  16.010  58.352  1.00  0.00     0.183 C 
HETATM    5  N2  UNL     1      22.943  17.026  58.227  1.00  0.00    -0.064 NA
HETATM    6  N3  UNL     1      23.526  14.658  58.559  1.00  0.00    -0.356 N 
HETATM    7  C2  UNL     1      22.491  14.184  59.458  1.00  0.00     0.125 C 
HETATM    8  C3  UNL     1      21.775  13.111  58.652  1.00  0.00     0.021 C 
HETATM    9  C4  UNL     1      22.796  12.663  57.640  1.00  0.00     0.021 C 
HETATM   10  C5  UNL     1      24.063  13.470  57.933  1.00  0.00     0.125 C 
ENDROOT
TORSDOF 0
ENDMDL
MODEL 3
REMARK VINA RESULT: -4.367989532      2.134      3.897
REMARK  0 active torsions:
REMARK  status: ('A' for Active; 'I' for Inactive)
REMARK       I    between atoms: C1_4  and  N3_6 
ROOT
HETATM    1  N1  UNL     1      20.783  13.168  58.969  1.00  0.00    -0.374 N 
ATOM      2  H11 UNL     1      20.415  13.885  59.595  1.00  0.00     0.158 HD
ATOM      3  H12 UNL     1      20.246  12.322  58.777  1.00  0.00     0.158 HD
HETATM    4  C1  UNL     1      21.941  13.360  58.427  1.00  0.00     0.183 C 
HETATM    5  N2  UNL     1      22.450  12.368  57.561  1.00  0.00    -0.064 NA
HETATM    6  N3  UNL     1      22.689  14.540  58.694  1.00  0.00    -0.356 N 
HETATM    7  C2  UNL     1      24.113  14.620  58.961  1.00  0.00     0.125 C 
HETATM    8  C3  UNL     1      24.563  15.838  58.169  1.00  0.00     0.021 C 
HETATM    9  C4  UNL     1      23.312  16.664  58.016  1.00  0.00     0.021 C 
HETATM   10  C5  UNL     1      22.211  15.904  58.757  1.00  0.00     0.125 C 
ENDROOT
TORSDOF 0
ENDMDL
MODEL 4
REMARK VINA RESULT: -4.289593492      1.895      3.180
REMARK  0 active torsions:
REMARK  status: ('A' for Active; 'I' for Inactive)
REMARK       I    between atoms: C1_4  and  N3_6 
ROOT
HETATM    1  N1  UNL     1      25.761  12.992  57.705  1.00  0.00    -0.374 N 
ATOM      2  H11 UNL     1      25.754  13.477  56.808  1.00  0.00     0.158 HD
ATOM      3  H12 UNL     1      26.431  12.244  57.885  1.00  0.00     0.158 HD
HETATM    4  C1  UNL     1      24.904  13.350  58.605  1.00  0.00     0.183 C 
HETATM    5  N2  UNL     1      24.914  12.678  59.846  1.00  0.00    -0.064 NA
HETATM    6  N3  UNL     1      23.970  14.394  58.354  1.00  0.00    -0.356 N 
HETATM    7  C2  UNL     1      22.561  14.395  58.699  1.00  0.00     0.125 C 
HETATM    8  C3  UNL     1      22.318  15.802  59.226  1.00  0.00     0.021 C 
HETATM    9  C4  UNL     1      23.411  16.627  58.598  1.00  0.00     0.021 C 
HETATM   10  C5  UNL     1      24.208  15.667  57.711  1.00  0.00     0.125 C 
ENDROOT
TORSDOF 0
ENDMDL
MODEL 5
REMARK VINA RESULT: -4.181838309      1.940      2.975
REMARK  0 active torsions:
REMARK  status: ('A' for Active; 'I' for Inactive)
REMARK       I    between atoms: C1_4  and  N3_6 
ROOT
HETATM    1  N1  UNL     1      20.880  15.226  59.183  1.00  0.00    -0.374 N 
ATOM      2  H11 UNL     1      20.448  14.314  59.036  1.00  0.00     0.158 HD
ATOM      3  H12 UNL     1      20.307  16.042  59.399  1.00  0.00     0.158 HD
HETATM    4  C1  UNL     1      22.166  15.321  59.088  1.00  0.00     0.183 C 
HETATM    5  N2  UNL     1      22.763  16.584  59.291  1.00  0.00    -0.064 NA
HETATM    6  N3  UNL     1      22.965  14.183  58.786  1.00  0.00    -0.356 N 
HETATM    7  C2  UNL     1      24.082  14.131  57.863  1.00  0.00     0.125 C 
HETATM    8  C3  UNL     1      25.119  13.291  58.594  1.00  0.00     0.021 C 
HETATM    9  C4  UNL     1      24.312  12.469  59.565  1.00  0.00     0.021 C 
HETATM   10  C5  UNL     1      22.849  12.845  59.323  1.00  0.00     0.125 C 
ENDROOT
TORSDOF 0
ENDMDL
