MODEL 1
REMARK VINA RESULT: -4.251659051      0.000      0.000
REMARK  1 active torsions:
REMARK  status: ('A' for Active; 'I' for Inactive)
REMARK       I    between atoms: C2_2  and  N1_4 
REMARK    1  A    between atoms: N1_4  and  C3_5 
ROOT
HETATM    1  C3  UNL     1      22.037  14.942  59.431  1.00  0.00     0.175 A 
HETATM    2  C4  UNL     1      23.388  15.213  58.617  1.00  0.00     0.029 A 
HETATM    3  C5  UNL     1      23.493  16.652  58.057  1.00  0.00     0.016 A 
HETATM    4  C6  UNL     1      22.240  16.005  58.411  1.00  0.00     0.029 A 
ENDROOT
BRANCH   1   5
HETATM    5  N1  UNL     1      21.505  13.716  59.187  1.00  0.00    -0.409 NA
HETATM    6  C2  UNL     1      20.977  12.498  58.945  1.00  0.00     0.282 C 
HETATM    7  C1  UNL     1      21.411  11.696  57.706  1.00  0.00     0.134 C 
HETATM    8  O1  UNL     1      20.104  11.815  59.598  1.00  0.00    -0.258 OA
ENDBRANCH   1   5
TORSDOF 1
ENDMDL
MODEL 2
REMARK VINA RESULT: -4.102470140      1.177      1.386
REMARK  1 active torsions:
REMARK  status: ('A' for Active; 'I' for Inactive)
REMARK       I    between atoms: C2_2  and  N1_4 
REMARK    1  A    between atoms: N1_4  and  C3_5 
ROOT
HETATM    1  C3  UNL     1      23.125  15.820  58.931  1.00  0.00     0.175 A 
HETATM    2  C4  UNL     1      24.383  15.955  57.952  1.00  0.00     0.029 A 
HETATM    3  C5  UNL     1      24.514  17.354  57.304  1.00  0.00     0.016 A 
HETATM    4  C6  UNL     1      23.273  16.815  57.836  1.00  0.00     0.029 A 
ENDROOT
BRANCH   1   5
HETATM    5  N1  UNL     1      22.488  14.624  58.820  1.00  0.00    -0.409 NA
HETATM    6  C2  UNL     1      21.858  13.437  58.709  1.00  0.00     0.282 C 
HETATM    7  C1  UNL     1      22.402  12.353  57.762  1.00  0.00     0.134 C 
HETATM    8  O1  UNL     1      20.797  12.992  59.285  1.00  0.00    -0.258 OA
ENDBRANCH   1   5
TORSDOF 1
ENDMDL
MODEL 3
REMARK VINA RESULT: -4.038941094      2.564      4.330
REMARK  1 active torsions:
REMARK  status: ('A' for Active; 'I' for Inactive)
REMARK       I    between atoms: C2_2  and  N1_4 
REMARK    1  A    between atoms: N1_4  and  C3_5 
ROOT
HETATM    1  C3  UNL     1      23.109  13.603  58.117  1.00  0.00     0.175 A 
HETATM    2  C4  UNL     1      22.819  12.865  59.506  1.00  0.00     0.029 A 
HETATM    3  C5  UNL     1      21.749  11.752  59.403  1.00  0.00     0.016 A 
HETATM    4  C6  UNL     1      21.872  12.854  58.463  1.00  0.00     0.029 A 
ENDROOT
BRANCH   1   5
HETATM    5  N1  UNL     1      23.274  14.945  58.250  1.00  0.00    -0.409 NA
HETATM    6  C2  UNL     1      23.438  16.277  58.381  1.00  0.00     0.282 C 
HETATM    7  C1  UNL     1      24.359  17.046  57.416  1.00  0.00     0.134 C 
HETATM    8  O1  UNL     1      22.937  17.107  59.227  1.00  0.00    -0.258 OA
ENDBRANCH   1   5
TORSDOF 1
ENDMDL
MODEL 4
REMARK VINA RESULT: -3.960994029      1.836      2.399
REMARK  1 active torsions:
REMARK  status: ('A' for Active; 'I' for Inactive)
REMARK       I    between atoms: C2_2  and  N1_4 
REMARK    1  A    between atoms: N1_4  and  C3_5 
ROOT
HETATM    1  C3  UNL     1      23.782  16.457  58.656  1.00  0.00     0.175 A 
HETATM    2  C4  UNL     1      24.776  16.028  57.478  1.00  0.00     0.029 A 
HETATM    3  C5  UNL     1      25.307  17.224  56.652  1.00  0.00     0.016 A 
HETATM    4  C6  UNL     1      24.084  17.255  57.438  1.00  0.00     0.029 A 
ENDROOT
BRANCH   1   5
HETATM    5  N1  UNL     1      22.725  15.612  58.795  1.00  0.00    -0.409 NA
HETATM    6  C2  UNL     1      21.679  14.774  58.933  1.00  0.00     0.282 C 
HETATM    7  C1  UNL     1      21.830  13.279  58.601  1.00  0.00     0.134 C 
HETATM    8  O1  UNL     1      20.471  14.993  59.319  1.00  0.00    -0.258 OA
ENDBRANCH   1   5
TORSDOF 1
ENDMDL
MODEL 5
REMARK VINA RESULT: -3.951704672      2.790      4.328
REMARK  1 active torsions:
REMARK  status: ('A' for Active; 'I' for Inactive)
REMARK       I    between atoms: C2_2  and  N1_4 
REMARK    1  A    between atoms: N1_4  and  C3_5 
ROOT
HETATM    1  C3  UNL     1      22.050  14.723  59.331  1.00  0.00     0.175 A 
HETATM    2  C4  UNL     1      21.889  13.381  58.475  1.00  0.00     0.029 A 
HETATM    3  C5  UNL     1      22.252  12.099  59.263  1.00  0.00     0.016 A 
HETATM    4  C6  UNL     1      22.729  13.429  59.605  1.00  0.00     0.029 A 
ENDROOT
BRANCH   1   5
HETATM    5  N1  UNL     1      22.582  15.749  58.617  1.00  0.00    -0.409 NA
HETATM    6  C2  UNL     1      23.111  16.767  57.908  1.00  0.00     0.282 C 
HETATM    7  C1  UNL     1      24.591  16.735  57.487  1.00  0.00     0.134 C 
HETATM    8  O1  UNL     1      22.580  17.858  57.478  1.00  0.00    -0.258 OA
ENDBRANCH   1   5
TORSDOF 1
ENDMDL
