MODEL 1
REMARK VINA RESULT: -4.447485444      0.000      0.000
REMARK  3 active torsions:
REMARK  status: ('A' for Active; 'I' for Inactive)
REMARK    1  A    between atoms: C2_2  and  N1_3 
REMARK    2  A    between atoms: N1_3  and  C3_4 
REMARK    3  A    between atoms: N1_3  and  C4_6 
ROOT
HETATM    1  C4  UNL     1      23.427  14.185  58.116  1.00  0.00     0.065 C 
HETATM    2  C5  UNL     1      22.081  13.573  58.523  1.00  0.00     0.020 C 
HETATM    3  C6  UNL     1      22.554  12.141  58.807  1.00  0.00     0.002 C 
HETATM    4  C7  UNL     1      23.830  12.392  59.574  1.00  0.00     0.002 C 
HETATM    5  C8  UNL     1      24.300  13.777  59.240  1.00  0.00     0.020 C 
ENDROOT
BRANCH   1   6
HETATM    6  N1  UNL     1      23.339  15.581  57.858  1.00  0.00    -0.257 NA
BRANCH   6   7
HETATM    7  C2  UNL     1      24.652  16.140  57.887  1.00  0.00     0.093 C 
HETATM    8  C1  UNL     1      24.814  17.353  57.002  1.00  0.00     0.021 C 
ENDBRANCH   6   7
BRANCH   6   9
HETATM    9  C3  UNL     1      22.383  16.274  58.602  1.00  0.00     0.324 C 
HETATM   10  O1  UNL     1      22.617  16.927  59.609  1.00  0.00    -0.289 OA
ENDBRANCH   6   9
ENDBRANCH   1   6
TORSDOF 3
ENDMDL
MODEL 2
REMARK VINA RESULT: -4.371079780      1.920      3.745
REMARK  3 active torsions:
REMARK  status: ('A' for Active; 'I' for Inactive)
REMARK    1  A    between atoms: C2_2  and  N1_3 
REMARK    2  A    between atoms: N1_3  and  C3_4 
REMARK    3  A    between atoms: N1_3  and  C4_6 
ROOT
HETATM    1  C4  UNL     1      23.348  15.136  59.229  1.00  0.00     0.065 C 
HETATM    2  C5  UNL     1      22.075  15.401  58.415  1.00  0.00     0.020 C 
HETATM    3  C6  UNL     1      22.331  16.870  58.055  1.00  0.00     0.002 C 
HETATM    4  C7  UNL     1      23.793  16.838  57.677  1.00  0.00     0.002 C 
HETATM    5  C8  UNL     1      24.404  15.624  58.313  1.00  0.00     0.020 C 
ENDROOT
BRANCH   1   6
HETATM    6  N1  UNL     1      23.456  13.783  59.654  1.00  0.00    -0.257 NA
BRANCH   6   7
HETATM    7  C2  UNL     1      24.650  13.221  59.112  1.00  0.00     0.093 C 
HETATM    8  C1  UNL     1      25.345  12.259  60.045  1.00  0.00     0.021 C 
ENDBRANCH   6   7
BRANCH   6   9
HETATM    9  C3  UNL     1      22.309  13.006  59.493  1.00  0.00     0.324 C 
HETATM   10  O1  UNL     1      21.627  12.563  60.407  1.00  0.00    -0.289 OA
ENDBRANCH   6   9
ENDBRANCH   1   6
TORSDOF 3
ENDMDL
MODEL 3
REMARK VINA RESULT: -4.329337333      2.130      4.200
REMARK  3 active torsions:
REMARK  status: ('A' for Active; 'I' for Inactive)
REMARK    1  A    between atoms: C2_2  and  N1_3 
REMARK    2  A    between atoms: N1_3  and  C3_4 
REMARK    3  A    between atoms: N1_3  and  C4_6 
ROOT
HETATM    1  C4  UNL     1      22.634  14.394  58.525  1.00  0.00     0.065 C 
HETATM    2  C5  UNL     1      23.961  15.038  58.946  1.00  0.00     0.020 C 
HETATM    3  C6  UNL     1      23.936  16.254  58.011  1.00  0.00     0.002 C 
HETATM    4  C7  UNL     1      22.500  16.705  58.142  1.00  0.00     0.002 C 
HETATM    5  C8  UNL     1      21.696  15.535  58.627  1.00  0.00     0.020 C 
ENDROOT
BRANCH   1   6
HETATM    6  N1  UNL     1      22.315  13.242  59.296  1.00  0.00    -0.257 NA
BRANCH   6   7
HETATM    7  C2  UNL     1      23.524  12.575  59.654  1.00  0.00     0.093 C 
HETATM    8  C1  UNL     1      23.413  11.069  59.640  1.00  0.00     0.021 C 
ENDBRANCH   6   7
BRANCH   6   9
HETATM    9  C3  UNL     1      21.318  12.420  58.769  1.00  0.00     0.324 C 
HETATM   10  O1  UNL     1      20.194  12.294  59.235  1.00  0.00    -0.289 OA
ENDBRANCH   6   9
ENDBRANCH   1   6
TORSDOF 3
ENDMDL
MODEL 4
REMARK VINA RESULT: -4.256125555      2.332      4.040
REMARK  3 active torsions:
REMARK  status: ('A' for Active; 'I' for Inactive)
REMARK    1  A    between atoms: C2_2  and  N1_3 
REMARK    2  A    between atoms: N1_3  and  C3_4 
REMARK    3  A    between atoms: N1_3  and  C4_6 
ROOT
HETATM    1  C4  UNL     1      22.342  14.211  58.415  1.00  0.00     0.065 C 
HETATM    2  C5  UNL     1      23.782  14.649  58.119  1.00  0.00     0.020 C 
HETATM    3  C6  UNL     1      23.560  16.166  58.074  1.00  0.00     0.002 C 
HETATM    4  C7  UNL     1      22.659  16.375  59.268  1.00  0.00     0.002 C 
HETATM    5  C8  UNL     1      21.997  15.064  59.576  1.00  0.00     0.020 C 
ENDROOT
BRANCH   1   6
HETATM    6  N1  UNL     1      22.223  12.807  58.604  1.00  0.00    -0.257 NA
BRANCH   6   7
HETATM    7  C2  UNL     1      23.186  12.146  57.785  1.00  0.00     0.093 C 
HETATM    8  C1  UNL     1      22.588  11.453  56.584  1.00  0.00     0.021 C 
ENDBRANCH   6   7
BRANCH   6   9
HETATM    9  C3  UNL     1      20.927  12.296  58.526  1.00  0.00     0.324 C 
HETATM   10  O1  UNL     1      20.237  11.984  59.486  1.00  0.00    -0.289 OA
ENDBRANCH   6   9
ENDBRANCH   1   6
TORSDOF 3
ENDMDL
MODEL 5
REMARK VINA RESULT: -4.241846175      1.885      3.992
REMARK  3 active torsions:
REMARK  status: ('A' for Active; 'I' for Inactive)
REMARK    1  A    between atoms: C2_2  and  N1_3 
REMARK    2  A    between atoms: N1_3  and  C3_4 
REMARK    3  A    between atoms: N1_3  and  C4_6 
ROOT
HETATM    1  C4  UNL     1      23.231  14.753  58.610  1.00  0.00     0.065 C 
HETATM    2  C5  UNL     1      24.357  15.791  58.675  1.00  0.00     0.020 C 
HETATM    3  C6  UNL     1      23.814  16.789  57.643  1.00  0.00     0.002 C 
HETATM    4  C7  UNL     1      22.353  16.848  58.022  1.00  0.00     0.002 C 
HETATM    5  C8  UNL     1      22.027  15.598  58.784  1.00  0.00     0.020 C 
ENDROOT
BRANCH   1   6
HETATM    6  N1  UNL     1      23.402  13.697  59.547  1.00  0.00    -0.257 NA
BRANCH   6   7
HETATM    7  C2  UNL     1      24.740  13.208  59.454  1.00  0.00     0.093 C 
HETATM    8  C1  UNL     1      24.887  11.764  59.866  1.00  0.00     0.021 C 
ENDBRANCH   6   7
BRANCH   6   9
HETATM    9  C3  UNL     1      22.410  12.716  59.539  1.00  0.00     0.324 C 
HETATM   10  O1  UNL     1      21.533  12.599  60.384  1.00  0.00    -0.289 OA
ENDBRANCH   6   9
ENDBRANCH   1   6
TORSDOF 3
ENDMDL
