MODEL 1
REMARK VINA RESULT: -4.069650662      0.000      0.000
REMARK  5 active torsions:
REMARK  status: ('A' for Active; 'I' for Inactive)
REMARK    1  A    between atoms: C3_3  and  C4_4 
REMARK    2  A    between atoms: C4_4  and  C5_5 
REMARK    3  A    between atoms: C5_5  and  C6_6 
REMARK    4  A    between atoms: C6_6  and  O1_7 
REMARK    5  A    between atoms: O1_7  and  C7_8 
ROOT
HETATM    1  C1  UNL     1      24.573  17.271  57.257  1.00  0.00     0.112 C 
HETATM    2  C2  UNL     1      23.458  16.562  57.887  1.00  0.00    -0.110 C 
HETATM    3  C3  UNL     1      22.537  15.950  58.413  1.00  0.00    -0.096 C 
ENDROOT
BRANCH   3   4
HETATM    4  C4  UNL     1      21.461  15.257  59.000  1.00  0.00     0.175 C 
BRANCH   4   5
HETATM    5  C5  UNL     1      21.509  13.950  58.962  1.00  0.00    -0.145 C 
BRANCH   5   6
HETATM    6  C6  UNL     1      21.475  12.631  59.026  1.00  0.00     0.248 C 
BRANCH   6   7
HETATM    7  O1  UNL     1      20.249  12.072  58.851  1.00  0.00    -0.375 OA
BRANCH   7   8
HETATM    8  C7  UNL     1      20.032  10.872  58.159  1.00  0.00     0.122 A 
HETATM    9  C8  UNL     1      20.785  10.566  56.911  1.00  0.00     0.034 A 
HETATM   10  C9  UNL     1      19.303  10.877  56.862  1.00  0.00     0.034 A 
ENDBRANCH   7   8
ENDBRANCH   6   7
ENDBRANCH   5   6
ENDBRANCH   4   5
ENDBRANCH   3   4
TORSDOF 5
ENDMDL
MODEL 2
REMARK VINA RESULT: -4.032323126      1.597      5.766
REMARK  5 active torsions:
REMARK  status: ('A' for Active; 'I' for Inactive)
REMARK    1  A    between atoms: C3_3  and  C4_4 
REMARK    2  A    between atoms: C4_4  and  C5_5 
REMARK    3  A    between atoms: C5_5  and  C6_6 
REMARK    4  A    between atoms: C6_6  and  O1_7 
REMARK    5  A    between atoms: O1_7  and  C7_8 
ROOT
HETATM    1  C1  UNL     1      18.955  10.120  56.841  1.00  0.00     0.112 C 
HETATM    2  C2  UNL     1      20.082  10.951  57.265  1.00  0.00    -0.110 C 
HETATM    3  C3  UNL     1      21.016  11.664  57.611  1.00  0.00    -0.096 C 
ENDROOT
BRANCH   3   4
HETATM    4  C4  UNL     1      22.106  12.466  57.998  1.00  0.00     0.175 C 
BRANCH   4   5
HETATM    5  C5  UNL     1      21.825  13.625  58.537  1.00  0.00    -0.145 C 
BRANCH   5   6
HETATM    6  C6  UNL     1      21.527  14.841  58.959  1.00  0.00     0.248 C 
BRANCH   6   7
HETATM    7  O1  UNL     1      22.016  15.856  58.201  1.00  0.00    -0.375 OA
BRANCH   7   8
HETATM    8  C7  UNL     1      23.179  16.573  58.516  1.00  0.00     0.122 A 
HETATM    9  C8  UNL     1      23.985  17.224  57.447  1.00  0.00     0.034 A 
HETATM   10  C9  UNL     1      24.517  16.012  58.185  1.00  0.00     0.034 A 
ENDBRANCH   7   8
ENDBRANCH   6   7
ENDBRANCH   5   6
ENDBRANCH   4   5
ENDBRANCH   3   4
TORSDOF 5
ENDMDL
MODEL 3
REMARK VINA RESULT: -3.972467844      2.661      5.051
REMARK  5 active torsions:
REMARK  status: ('A' for Active; 'I' for Inactive)
REMARK    1  A    between atoms: C3_3  and  C4_4 
REMARK    2  A    between atoms: C4_4  and  C5_5 
REMARK    3  A    between atoms: C5_5  and  C6_6 
REMARK    4  A    between atoms: C6_6  and  O1_7 
REMARK    5  A    between atoms: O1_7  and  C7_8 
ROOT
HETATM    1  C1  UNL     1      26.292  12.071  59.213  1.00  0.00     0.112 C 
HETATM    2  C2  UNL     1      24.866  12.355  59.384  1.00  0.00    -0.110 C 
HETATM    3  C3  UNL     1      23.678  12.613  59.533  1.00  0.00    -0.096 C 
ENDROOT
BRANCH   3   4
HETATM    4  C4  UNL     1      22.309  12.886  59.719  1.00  0.00     0.175 C 
BRANCH   4   5
HETATM    5  C5  UNL     1      21.901  14.092  59.413  1.00  0.00    -0.145 C 
BRANCH   5   6
HETATM    6  C6  UNL     1      21.371  15.255  59.083  1.00  0.00     0.248 C 
BRANCH   6   7
HETATM    7  O1  UNL     1      22.083  15.985  58.186  1.00  0.00    -0.375 OA
BRANCH   7   8
HETATM    8  C7  UNL     1      23.368  16.488  58.437  1.00  0.00     0.122 A 
HETATM    9  C8  UNL     1      24.090  17.280  57.404  1.00  0.00     0.034 A 
HETATM   10  C9  UNL     1      24.552  15.884  57.768  1.00  0.00     0.034 A 
ENDBRANCH   7   8
ENDBRANCH   6   7
ENDBRANCH   5   6
ENDBRANCH   4   5
ENDBRANCH   3   4
TORSDOF 5
ENDMDL
MODEL 4
REMARK VINA RESULT: -3.903178871      2.073      5.659
REMARK  5 active torsions:
REMARK  status: ('A' for Active; 'I' for Inactive)
REMARK    1  A    between atoms: C3_3  and  C4_4 
REMARK    2  A    between atoms: C4_4  and  C5_5 
REMARK    3  A    between atoms: C5_5  and  C6_6 
REMARK    4  A    between atoms: C6_6  and  O1_7 
REMARK    5  A    between atoms: O1_7  and  C7_8 
ROOT
HETATM    1  C1  UNL     1      19.545  10.817  57.223  1.00  0.00     0.112 C 
HETATM    2  C2  UNL     1      20.532  11.530  58.035  1.00  0.00    -0.110 C 
HETATM    3  C3  UNL     1      21.373  12.121  58.700  1.00  0.00    -0.096 C 
ENDROOT
BRANCH   3   4
HETATM    4  C4  UNL     1      22.331  12.788  59.488  1.00  0.00     0.175 C 
BRANCH   4   5
HETATM    5  C5  UNL     1      23.455  13.114  58.901  1.00  0.00    -0.145 C 
BRANCH   5   6
HETATM    6  C6  UNL     1      24.523  13.541  58.252  1.00  0.00     0.248 C 
BRANCH   6   7
HETATM    7  O1  UNL     1      24.353  14.686  57.541  1.00  0.00    -0.375 OA
BRANCH   7   8
HETATM    8  C7  UNL     1      24.331  15.964  58.117  1.00  0.00     0.122 A 
HETATM    9  C8  UNL     1      23.116  16.819  58.026  1.00  0.00     0.034 A 
HETATM   10  C9  UNL     1      24.369  17.175  57.253  1.00  0.00     0.034 A 
ENDBRANCH   7   8
ENDBRANCH   6   7
ENDBRANCH   5   6
ENDBRANCH   4   5
ENDBRANCH   3   4
TORSDOF 5
ENDMDL
MODEL 5
REMARK VINA RESULT: -3.901586702      1.676      5.727
REMARK  5 active torsions:
REMARK  status: ('A' for Active; 'I' for Inactive)
REMARK    1  A    between atoms: C3_3  and  C4_4 
REMARK    2  A    between atoms: C4_4  and  C5_5 
REMARK    3  A    between atoms: C5_5  and  C6_6 
REMARK    4  A    between atoms: C6_6  and  O1_7 
REMARK    5  A    between atoms: O1_7  and  C7_8 
ROOT
HETATM    1  C1  UNL     1      18.620   9.433  56.531  1.00  0.00     0.112 C 
HETATM    2  C2  UNL     1      19.421  10.373  57.317  1.00  0.00    -0.110 C 
HETATM    3  C3  UNL     1      20.097  11.169  57.957  1.00  0.00    -0.096 C 
ENDROOT
BRANCH   3   4
HETATM    4  C4  UNL     1      20.885  12.063  58.706  1.00  0.00     0.175 C 
BRANCH   4   5
HETATM    5  C5  UNL     1      22.009  12.457  58.163  1.00  0.00    -0.145 C 
BRANCH   5   6
HETATM    6  C6  UNL     1      23.183  12.730  57.623  1.00  0.00     0.248 C 
BRANCH   6   7
HETATM    7  O1  UNL     1      23.507  14.048  57.572  1.00  0.00    -0.375 OA
BRANCH   7   8
HETATM    8  C7  UNL     1      23.186  14.969  58.579  1.00  0.00     0.122 A 
HETATM    9  C8  UNL     1      22.143  16.007  58.356  1.00  0.00     0.034 A 
HETATM   10  C9  UNL     1      23.605  16.391  58.454  1.00  0.00     0.034 A 
ENDBRANCH   7   8
ENDBRANCH   6   7
ENDBRANCH   5   6
ENDBRANCH   4   5
ENDBRANCH   3   4
TORSDOF 5
ENDMDL
