MODEL 1
REMARK VINA RESULT: -4.088455656      0.000      0.000
REMARK  3 active torsions:
REMARK  status: ('A' for Active; 'I' for Inactive)
REMARK    1  A    between atoms: C3_3  and  C4_4 
REMARK    2  A    between atoms: C4_4  and  N1_5 
REMARK    3  A    between atoms: C5_7  and  C6_8 
ROOT
HETATM    1  N1  UNL     1      21.013  14.274  59.088  1.00  0.00    -0.398 N 
ATOM      2  H1  UNL     1      20.003  14.366  58.979  1.00  0.00     0.158 HD
HETATM    3  C5  UNL     1      21.607  13.169  58.831  1.00  0.00     0.059 C 
ENDROOT
BRANCH   1   4
HETATM    4  C4  UNL     1      21.814  15.378  59.534  1.00  0.00     0.145 C 
BRANCH   4   5
HETATM    5  C3  UNL     1      22.386  16.109  58.385  1.00  0.00    -0.012 C 
HETATM    6  C2  UNL     1      23.655  16.478  58.424  1.00  0.00    -0.033 C 
HETATM    7  C1  UNL     1      24.270  17.216  57.286  1.00  0.00     0.036 C 
ENDBRANCH   4   5
ENDBRANCH   1   4
BRANCH   3   8
HETATM    8  C6  UNL     1      20.801  12.021  58.372  1.00  0.00     0.015 C 
HETATM    9  C7  UNL     1      21.548  11.356  57.214  1.00  0.00     0.015 C 
HETATM   10  C8  UNL     1      20.588  10.977  59.437  1.00  0.00     0.015 C 
ENDBRANCH   3   8
TORSDOF 3
ENDMDL
MODEL 2
REMARK VINA RESULT: -4.028929389      1.128      1.305
REMARK  3 active torsions:
REMARK  status: ('A' for Active; 'I' for Inactive)
REMARK    1  A    between atoms: C3_3  and  C4_4 
REMARK    2  A    between atoms: C4_4  and  N1_5 
REMARK    3  A    between atoms: C5_7  and  C6_8 
ROOT
HETATM    1  N1  UNL     1      21.202  14.168  59.006  1.00  0.00    -0.398 N 
ATOM      2  H1  UNL     1      20.281  13.790  58.785  1.00  0.00     0.158 HD
HETATM    3  C5  UNL     1      22.108  13.435  59.536  1.00  0.00     0.059 C 
ENDROOT
BRANCH   1   4
HETATM    4  C4  UNL     1      21.524  15.541  58.736  1.00  0.00     0.145 C 
BRANCH   4   5
HETATM    5  C3  UNL     1      22.925  15.671  58.284  1.00  0.00    -0.012 C 
HETATM    6  C2  UNL     1      23.345  16.834  57.819  1.00  0.00    -0.033 C 
HETATM    7  C1  UNL     1      24.749  17.008  57.355  1.00  0.00     0.036 C 
ENDBRANCH   4   5
ENDBRANCH   1   4
BRANCH   3   8
HETATM    8  C6  UNL     1      21.795  12.020  59.822  1.00  0.00     0.015 C 
HETATM    9  C7  UNL     1      20.672  11.587  58.877  1.00  0.00     0.015 C 
HETATM   10  C8  UNL     1      22.963  11.094  59.598  1.00  0.00     0.015 C 
ENDBRANCH   3   8
TORSDOF 3
ENDMDL
MODEL 3
REMARK VINA RESULT: -3.983457854      0.729      1.359
REMARK  3 active torsions:
REMARK  status: ('A' for Active; 'I' for Inactive)
REMARK    1  A    between atoms: C3_3  and  C4_4 
REMARK    2  A    between atoms: C4_4  and  N1_5 
REMARK    3  A    between atoms: C5_7  and  C6_8 
ROOT
HETATM    1  N1  UNL     1      21.213  13.931  58.761  1.00  0.00    -0.398 N 
ATOM      2  H1  UNL     1      20.284  13.557  58.951  1.00  0.00     0.158 HD
HETATM    3  C5  UNL     1      22.151  13.179  58.322  1.00  0.00     0.059 C 
ENDROOT
BRANCH   1   4
HETATM    4  C4  UNL     1      21.512  15.319  58.978  1.00  0.00     0.145 C 
BRANCH   4   5
HETATM    5  C3  UNL     1      22.836  15.663  58.423  1.00  0.00    -0.012 C 
HETATM    6  C2  UNL     1      23.025  16.864  57.904  1.00  0.00    -0.033 C 
HETATM    7  C1  UNL     1      24.345  17.251  57.335  1.00  0.00     0.036 C 
ENDBRANCH   4   5
ENDBRANCH   1   4
BRANCH   3   8
HETATM    8  C6  UNL     1      21.864  11.750  58.092  1.00  0.00     0.015 C 
HETATM    9  C7  UNL     1      20.393  11.505  58.440  1.00  0.00     0.015 C 
HETATM   10  C8  UNL     1      22.071  11.321  56.663  1.00  0.00     0.015 C 
ENDBRANCH   3   8
TORSDOF 3
ENDMDL
MODEL 4
REMARK VINA RESULT: -3.895283479      2.075      5.062
REMARK  3 active torsions:
REMARK  status: ('A' for Active; 'I' for Inactive)
REMARK    1  A    between atoms: C3_3  and  C4_4 
REMARK    2  A    between atoms: C4_4  and  N1_5 
REMARK    3  A    between atoms: C5_7  and  C6_8 
ROOT
HETATM    1  N1  UNL     1      24.604  14.440  57.819  1.00  0.00    -0.398 N 
ATOM      2  H1  UNL     1      24.624  14.786  56.860  1.00  0.00     0.158 HD
HETATM    3  C5  UNL     1      24.202  15.183  58.781  1.00  0.00     0.059 C 
ENDROOT
BRANCH   1   4
HETATM    4  C4  UNL     1      25.026  13.105  58.134  1.00  0.00     0.145 C 
BRANCH   4   5
HETATM    5  C3  UNL     1      23.869  12.189  58.191  1.00  0.00    -0.012 C 
HETATM    6  C2  UNL     1      23.007  12.177  57.189  1.00  0.00    -0.033 C 
HETATM    7  C1  UNL     1      21.828  11.269  57.207  1.00  0.00     0.036 C 
ENDBRANCH   4   5
ENDBRANCH   1   4
BRANCH   3   8
HETATM    8  C6  UNL     1      23.765  16.560  58.478  1.00  0.00     0.015 C 
HETATM    9  C7  UNL     1      24.605  17.072  57.305  1.00  0.00     0.015 C 
HETATM   10  C8  UNL     1      22.316  16.649  58.073  1.00  0.00     0.015 C 
ENDBRANCH   3   8
TORSDOF 3
ENDMDL
MODEL 5
REMARK VINA RESULT: -3.880376983      1.491      5.121
REMARK  3 active torsions:
REMARK  status: ('A' for Active; 'I' for Inactive)
REMARK    1  A    between atoms: C3_3  and  C4_4 
REMARK    2  A    between atoms: C4_4  and  N1_5 
REMARK    3  A    between atoms: C5_7  and  C6_8 
ROOT
HETATM    1  N1  UNL     1      23.305  14.093  57.970  1.00  0.00    -0.398 N 
ATOM      2  H1  UNL     1      22.311  14.280  58.106  1.00  0.00     0.158 HD
HETATM    3  C5  UNL     1      24.167  15.038  58.016  1.00  0.00     0.059 C 
ENDROOT
BRANCH   1   4
HETATM    4  C4  UNL     1      23.781  12.763  57.720  1.00  0.00     0.145 C 
BRANCH   4   5
HETATM    5  C3  UNL     1      22.722  11.932  57.113  1.00  0.00    -0.012 C 
HETATM    6  C2  UNL     1      21.519  11.921  57.660  1.00  0.00    -0.033 C 
HETATM    7  C1  UNL     1      20.423  11.097  57.079  1.00  0.00     0.036 C 
ENDBRANCH   4   5
ENDBRANCH   1   4
BRANCH   3   8
HETATM    8  C6  UNL     1      23.696  16.414  58.272  1.00  0.00     0.015 C 
HETATM    9  C7  UNL     1      24.386  17.341  57.268  1.00  0.00     0.015 C 
HETATM   10  C8  UNL     1      22.208  16.578  58.095  1.00  0.00     0.015 C 
ENDBRANCH   3   8
TORSDOF 3
ENDMDL
