MODEL 1
REMARK VINA RESULT: -5.607413861      0.000      0.000
REMARK  2 active torsions:
REMARK  status: ('A' for Active; 'I' for Inactive)
REMARK    1  A    between atoms: C5_5  and  C6_6 
REMARK    2  A    between atoms: N1_7  and  N2_9 
ROOT
HETATM    1  C6  UNL     1      23.685  16.355  58.460  1.00  0.00     0.086 C 
HETATM    2  N1  UNL     1      23.226  17.465  58.008  1.00  0.00    -0.301 N 
ATOM      3  H1  UNL     1      23.771  18.316  58.144  1.00  0.00     0.187 HD
ENDROOT
BRANCH   1   4
HETATM    4  C5  UNL     1      22.926  15.128  58.278  1.00  0.00     0.026 C 
HETATM    5  C4  UNL     1      22.205  14.675  59.540  1.00  0.00     0.010 C 
HETATM    6  C3  UNL     1      21.656  13.351  59.037  1.00  0.00     0.005 C 
HETATM    7  C2  UNL     1      22.849  12.773  58.316  1.00  0.00    -0.018 C 
HETATM    8  C1  UNL     1      23.502  11.715  59.178  1.00  0.00     0.010 C 
HETATM    9  C7  UNL     1      23.792  13.909  58.032  1.00  0.00     0.014 C 
ENDBRANCH   1   4
BRANCH   2  10
HETATM   10  N2  UNL     1      22.003  17.544  57.333  1.00  0.00    -0.250 N 
HETATM   11  N3  UNL     1      21.606  18.680  56.919  1.00  0.00    -0.331 N 
ATOM     12  H32 UNL     1      22.180  19.507  57.084  1.00  0.00     0.178 HD
ATOM     13  H31 UNL     1      20.714  18.739  56.428  1.00  0.00     0.178 HD
ATOM     14  H2  UNL     1      21.440  16.708  57.176  1.00  0.00     0.207 HD
ENDBRANCH   2  10
TORSDOF 2
ENDMDL
MODEL 2
REMARK VINA RESULT: -5.428306333      1.301      2.295
REMARK  2 active torsions:
REMARK  status: ('A' for Active; 'I' for Inactive)
REMARK    1  A    between atoms: C5_5  and  C6_6 
REMARK    2  A    between atoms: N1_7  and  N2_9 
ROOT
HETATM    1  C6  UNL     1      22.506  16.925  57.784  1.00  0.00     0.086 C 
HETATM    2  N1  UNL     1      23.358  17.787  57.362  1.00  0.00    -0.301 N 
ATOM      3  H1  UNL     1      23.046  18.519  56.723  1.00  0.00     0.187 HD
ENDROOT
BRANCH   1   4
HETATM    4  C5  UNL     1      22.927  15.873  58.693  1.00  0.00     0.026 C 
HETATM    5  C4  UNL     1      23.652  14.730  57.995  1.00  0.00     0.010 C 
HETATM    6  C3  UNL     1      23.814  13.793  59.180  1.00  0.00     0.005 C 
HETATM    7  C2  UNL     1      22.448  13.858  59.816  1.00  0.00    -0.018 C 
HETATM    8  C1  UNL     1      21.659  12.618  59.457  1.00  0.00     0.010 C 
HETATM    9  C7  UNL     1      21.776  15.102  59.307  1.00  0.00     0.014 C 
ENDBRANCH   1   4
BRANCH   2  10
HETATM   10  N2  UNL     1      24.702  17.755  57.749  1.00  0.00    -0.250 N 
HETATM   11  N3  UNL     1      25.578  17.420  56.888  1.00  0.00    -0.331 N 
ATOM     12  H32 UNL     1      25.289  17.183  55.939  1.00  0.00     0.178 HD
ATOM     13  H31 UNL     1      26.558  17.396  57.170  1.00  0.00     0.178 HD
ATOM     14  H2  UNL     1      24.975  17.995  58.702  1.00  0.00     0.207 HD
ENDBRANCH   2  10
TORSDOF 2
ENDMDL
MODEL 3
REMARK VINA RESULT: -5.352497917      1.270      1.637
REMARK  2 active torsions:
REMARK  status: ('A' for Active; 'I' for Inactive)
REMARK    1  A    between atoms: C5_5  and  C6_6 
REMARK    2  A    between atoms: N1_7  and  N2_9 
ROOT
HETATM    1  C6  UNL     1      22.520  16.078  59.045  1.00  0.00     0.086 C 
HETATM    2  N1  UNL     1      22.725  17.258  58.583  1.00  0.00    -0.301 N 
ATOM      3  H1  UNL     1      22.310  18.056  59.064  1.00  0.00     0.187 HD
ENDROOT
BRANCH   1   4
HETATM    4  C5  UNL     1      23.100  14.925  58.377  1.00  0.00     0.026 C 
HETATM    5  C4  UNL     1      22.189  13.705  58.385  1.00  0.00     0.010 C 
HETATM    6  C3  UNL     1      23.135  12.699  57.751  1.00  0.00     0.005 C 
HETATM    7  C2  UNL     1      24.423  12.978  58.486  1.00  0.00    -0.018 C 
HETATM    8  C1  UNL     1      24.647  11.918  59.542  1.00  0.00     0.010 C 
HETATM    9  C7  UNL     1      24.301  14.346  59.098  1.00  0.00     0.014 C 
ENDBRANCH   1   4
BRANCH   2  10
HETATM   10  N2  UNL     1      23.499  17.484  57.440  1.00  0.00    -0.250 N 
HETATM   11  N3  UNL     1      24.622  18.068  57.568  1.00  0.00    -0.331 N 
ATOM     12  H32 UNL     1      24.937  18.359  58.493  1.00  0.00     0.178 HD
ATOM     13  H31 UNL     1      25.187  18.233  56.735  1.00  0.00     0.178 HD
ATOM     14  H2  UNL     1      23.170  17.186  56.521  1.00  0.00     0.207 HD
ENDBRANCH   2  10
TORSDOF 2
ENDMDL
MODEL 4
REMARK VINA RESULT: -5.217961622      1.236      1.989
REMARK  2 active torsions:
REMARK  status: ('A' for Active; 'I' for Inactive)
REMARK    1  A    between atoms: C5_5  and  C6_6 
REMARK    2  A    between atoms: N1_7  and  N2_9 
ROOT
HETATM    1  C6  UNL     1      22.136  15.882  58.380  1.00  0.00     0.086 C 
HETATM    2  N1  UNL     1      22.640  17.036  58.131  1.00  0.00    -0.301 N 
ATOM      3  H1  UNL     1      22.041  17.763  57.738  1.00  0.00     0.187 HD
ENDROOT
BRANCH   1   4
HETATM    4  C5  UNL     1      22.970  14.831  58.939  1.00  0.00     0.026 C 
HETATM    5  C4  UNL     1      23.651  13.978  57.878  1.00  0.00     0.010 C 
HETATM    6  C3  UNL     1      24.298  12.944  58.785  1.00  0.00     0.005 C 
HETATM    7  C2  UNL     1      23.177  12.626  59.743  1.00  0.00    -0.018 C 
HETATM    8  C1  UNL     1      22.542  11.306  59.365  1.00  0.00     0.010 C 
HETATM    9  C7  UNL     1      22.187  13.755  59.664  1.00  0.00     0.014 C 
ENDBRANCH   1   4
BRANCH   2  10
HETATM   10  N2  UNL     1      23.985  17.329  58.380  1.00  0.00    -0.250 N 
HETATM   11  N3  UNL     1      24.596  18.116  57.587  1.00  0.00    -0.331 N 
ATOM     12  H32 UNL     1      24.100  18.516  56.791  1.00  0.00     0.178 HD
ATOM     13  H31 UNL     1      25.577  18.330  57.769  1.00  0.00     0.178 HD
ATOM     14  H2  UNL     1      24.467  16.921  59.181  1.00  0.00     0.207 HD
ENDBRANCH   2  10
TORSDOF 2
ENDMDL
MODEL 5
REMARK VINA RESULT: -5.015104597      1.475      1.624
REMARK  2 active torsions:
REMARK  status: ('A' for Active; 'I' for Inactive)
REMARK    1  A    between atoms: C5_5  and  C6_6 
REMARK    2  A    between atoms: N1_7  and  N2_9 
ROOT
HETATM    1  C6  UNL     1      24.669  14.953  58.708  1.00  0.00     0.086 C 
HETATM    2  N1  UNL     1      24.873  16.217  58.621  1.00  0.00    -0.301 N 
ATOM      3  H1  UNL     1      25.793  16.587  58.864  1.00  0.00     0.187 HD
ENDROOT
BRANCH   1   4
HETATM    4  C5  UNL     1      23.366  14.404  58.367  1.00  0.00     0.026 C 
HETATM    5  C4  UNL     1      22.538  14.025  59.587  1.00  0.00     0.010 C 
HETATM    6  C3  UNL     1      21.353  13.387  58.880  1.00  0.00     0.005 C 
HETATM    7  C2  UNL     1      22.036  12.532  57.841  1.00  0.00    -0.018 C 
HETATM    8  C1  UNL     1      22.032  11.087  58.288  1.00  0.00     0.010 C 
HETATM    9  C7  UNL     1      23.437  13.054  57.682  1.00  0.00     0.014 C 
ENDBRANCH   1   4
BRANCH   2  10
HETATM   10  N2  UNL     1      23.876  17.105  58.204  1.00  0.00    -0.250 N 
HETATM   11  N3  UNL     1      24.222  18.198  57.651  1.00  0.00    -0.331 N 
ATOM     12  H32 UNL     1      25.212  18.407  57.522  1.00  0.00     0.178 HD
ATOM     13  H31 UNL     1      23.495  18.846  57.347  1.00  0.00     0.178 HD
ATOM     14  H2  UNL     1      22.890  16.881  58.340  1.00  0.00     0.207 HD
ENDBRANCH   2  10
TORSDOF 2
ENDMDL
