MODEL 1
REMARK VINA RESULT: -4.276912428      0.000      0.000
REMARK  2 active torsions:
REMARK  status: ('A' for Active; 'I' for Inactive)
REMARK    1  A    between atoms: N1_2  and  C4_5 
REMARK    2  A    between atoms: C5_6  and  C6_7 
ROOT
HETATM    1  C4  UNL     1      93.766  78.747 -17.450  1.00  0.00     0.199 C 
HETATM    2  C5  UNL     1      94.203  79.040 -16.240  1.00  0.00     0.032 C 
ENDROOT
BRANCH   2   3
HETATM    3  C6  UNL     1      94.857  80.340 -15.912  1.00  0.00     0.235 A 
HETATM    4  C7  UNL     1      94.843  80.680 -14.435  1.00  0.00     0.270 A 
HETATM    5  N2  UNL     1      96.058  80.370 -15.133  1.00  0.00    -0.064 N 
ATOM      6  H22 UNL     1      96.796  79.685 -14.971  1.00  0.00     0.278 HD
ATOM      7  H21 UNL     1      96.942  80.868 -15.241  1.00  0.00     0.278 HD
ENDBRANCH   2   3
BRANCH   1   8
HETATM    8  N1  UNL     1      93.156  77.484 -17.669  1.00  0.00    -0.059 N 
HETATM    9  C1  UNL     1      92.571  76.984 -16.442  1.00  0.00     0.277 C 
HETATM   10  C2  UNL     1      94.148  76.518 -18.160  1.00  0.00     0.277 C 
HETATM   11  C3  UNL     1      92.164  77.618 -18.715  1.00  0.00     0.277 C 
ENDBRANCH   1   8
TORSDOF 2
ENDMDL
MODEL 2
REMARK VINA RESULT: -4.264645333      0.120      1.382
REMARK  2 active torsions:
REMARK  status: ('A' for Active; 'I' for Inactive)
REMARK    1  A    between atoms: N1_2  and  C4_5 
REMARK    2  A    between atoms: C5_6  and  C6_7 
ROOT
HETATM    1  C4  UNL     1      93.818  78.812 -17.503  1.00  0.00     0.199 C 
HETATM    2  C5  UNL     1      94.246  79.066 -16.282  1.00  0.00     0.032 C 
ENDROOT
BRANCH   2   3
HETATM    3  C6  UNL     1      94.843  80.376 -15.893  1.00  0.00     0.235 A 
HETATM    4  C7  UNL     1      94.846  80.630 -14.398  1.00  0.00     0.270 A 
HETATM    5  N2  UNL     1      96.059  80.422 -15.138  1.00  0.00    -0.064 N 
ATOM      6  H22 UNL     1      96.833  79.767 -15.030  1.00  0.00     0.278 HD
ATOM      7  H21 UNL     1      96.914  80.969 -15.234  1.00  0.00     0.278 HD
ENDBRANCH   2   3
BRANCH   1   8
HETATM    8  N1  UNL     1      93.263  77.535 -17.782  1.00  0.00    -0.059 N 
HETATM    9  C1  UNL     1      94.284  76.639 -18.288  1.00  0.00     0.277 C 
HETATM   10  C2  UNL     1      92.189  77.653 -18.777  1.00  0.00     0.277 C 
HETATM   11  C3  UNL     1      92.650  77.016 -16.578  1.00  0.00     0.277 C 
ENDBRANCH   1   8
TORSDOF 2
ENDMDL
MODEL 3
REMARK VINA RESULT: -4.260650672      0.042      1.375
REMARK  2 active torsions:
REMARK  status: ('A' for Active; 'I' for Inactive)
REMARK    1  A    between atoms: N1_2  and  C4_5 
REMARK    2  A    between atoms: C5_6  and  C6_7 
ROOT
HETATM    1  C4  UNL     1      93.779  78.745 -17.480  1.00  0.00     0.199 C 
HETATM    2  C5  UNL     1      94.196  79.044 -16.264  1.00  0.00     0.032 C 
ENDROOT
BRANCH   2   3
HETATM    3  C6  UNL     1      94.872  80.333 -15.938  1.00  0.00     0.235 A 
HETATM    4  C7  UNL     1      94.828  80.694 -14.466  1.00  0.00     0.270 A 
HETATM    5  N2  UNL     1      96.053  80.346 -15.129  1.00  0.00    -0.064 N 
ATOM      6  H22 UNL     1      96.771  79.647 -14.938  1.00  0.00     0.278 HD
ATOM      7  H21 UNL     1      96.951  80.822 -15.221  1.00  0.00     0.278 HD
ENDBRANCH   2   3
BRANCH   1   8
HETATM    8  N1  UNL     1      93.145  77.493 -17.698  1.00  0.00    -0.059 N 
HETATM    9  C1  UNL     1      92.113  77.617 -18.707  1.00  0.00     0.277 C 
HETATM   10  C2  UNL     1      92.545  77.003 -16.450  1.00  0.00     0.277 C 
HETATM   11  C3  UNL     1      94.148  76.520 -18.078  1.00  0.00     0.277 C 
ENDBRANCH   1   8
TORSDOF 2
ENDMDL
MODEL 4
REMARK VINA RESULT: -4.059149879      1.407      1.997
REMARK  2 active torsions:
REMARK  status: ('A' for Active; 'I' for Inactive)
REMARK    1  A    between atoms: N1_2  and  C4_5 
REMARK    2  A    between atoms: C5_6  and  C6_7 
ROOT
HETATM    1  C4  UNL     1      93.925  77.623 -16.918  1.00  0.00     0.199 C 
HETATM    2  C5  UNL     1      93.816  78.769 -16.272  1.00  0.00     0.032 C 
ENDROOT
BRANCH   2   3
HETATM    3  C6  UNL     1      94.167  78.917 -14.830  1.00  0.00     0.235 A 
HETATM    4  C7  UNL     1      94.551  80.329 -14.434  1.00  0.00     0.270 A 
HETATM    5  N2  UNL     1      93.346  79.707 -13.963  1.00  0.00    -0.064 N 
ATOM      6  H22 UNL     1      92.364  79.981 -13.998  1.00  0.00     0.278 HD
ATOM      7  H21 UNL     1      92.969  79.546 -13.029  1.00  0.00     0.278 HD
ENDBRANCH   2   3
BRANCH   1   8
HETATM    8  N1  UNL     1      93.567  77.576 -18.292  1.00  0.00    -0.059 N 
HETATM    9  C1  UNL     1      93.482  78.914 -18.840  1.00  0.00     0.277 C 
HETATM   10  C2  UNL     1      92.272  76.903 -18.457  1.00  0.00     0.277 C 
HETATM   11  C3  UNL     1      94.539  76.771 -19.002  1.00  0.00     0.277 C 
ENDBRANCH   1   8
TORSDOF 2
ENDMDL
MODEL 5
REMARK VINA RESULT: -4.057007042      1.377      1.584
REMARK  2 active torsions:
REMARK  status: ('A' for Active; 'I' for Inactive)
REMARK    1  A    between atoms: N1_2  and  C4_5 
REMARK    2  A    between atoms: C5_6  and  C6_7 
ROOT
HETATM    1  C4  UNL     1      93.983  77.659 -16.893  1.00  0.00     0.199 C 
HETATM    2  C5  UNL     1      93.879  78.819 -16.274  1.00  0.00     0.032 C 
ENDROOT
BRANCH   2   3
HETATM    3  C6  UNL     1      94.258  79.006 -14.843  1.00  0.00     0.235 A 
HETATM    4  C7  UNL     1      94.646  80.429 -14.492  1.00  0.00     0.270 A 
HETATM    5  N2  UNL     1      93.452  79.817 -13.982  1.00  0.00    -0.064 N 
ATOM      6  H22 UNL     1      92.469  80.089 -14.005  1.00  0.00     0.278 HD
ATOM      7  H21 UNL     1      93.092  79.680 -13.037  1.00  0.00     0.278 HD
ENDBRANCH   2   3
BRANCH   1   8
HETATM    8  N1  UNL     1      93.599  77.574 -18.258  1.00  0.00    -0.059 N 
HETATM    9  C1  UNL     1      92.319  76.908 -18.383  1.00  0.00     0.277 C 
HETATM   10  C2  UNL     1      94.607  76.830 -19.024  1.00  0.00     0.277 C 
HETATM   11  C3  UNL     1      93.562  78.908 -18.818  1.00  0.00     0.277 C 
ENDBRANCH   1   8
TORSDOF 2
ENDMDL
