MODEL 1
REMARK VINA RESULT: -4.225215584      0.000      0.000
REMARK  2 active torsions:
REMARK  status: ('A' for Active; 'I' for Inactive)
REMARK    1  A    between atoms: N1_2  and  C4_5 
REMARK    2  A    between atoms: C7_8  and  N2_9 
ROOT
HETATM    1  C4  UNL     1      93.782  78.744 -16.822  1.00  0.00     0.219 C 
HETATM    2  C5  UNL     1      92.980  77.966 -15.767  1.00  0.00     0.037 C 
HETATM    3  C6  UNL     1      94.075  78.350 -14.784  1.00  0.00     0.037 C 
HETATM    4  C7  UNL     1      94.987  78.522 -16.010  1.00  0.00     0.214 C 
ENDROOT
BRANCH   1   5
HETATM    5  N1  UNL     1      93.632  78.192 -18.097  1.00  0.00    -0.072 N 
HETATM    6  C1  UNL     1      94.829  77.387 -18.393  1.00  0.00     0.272 C 
HETATM    7  C2  UNL     1      92.530  77.219 -18.059  1.00  0.00     0.272 C 
HETATM    8  C3  UNL     1      93.414  79.055 -19.195  1.00  0.00     0.272 C 
ENDBRANCH   1   5
BRANCH   4   9
HETATM    9  N2  UNL     1      95.841  79.681 -15.762  1.00  0.00    -0.073 N 
ATOM     10  H23 UNL     1      96.722  79.570 -16.265  1.00  0.00     0.274 HD
ATOM     11  H22 UNL     1      95.454  80.497 -16.236  1.00  0.00     0.274 HD
ATOM     12  H21 UNL     1      96.033  79.914 -14.787  1.00  0.00     0.274 HD
ENDBRANCH   4   9
TORSDOF 2
ENDMDL
MODEL 2
REMARK VINA RESULT: -4.220105689      0.113      1.348
REMARK  2 active torsions:
REMARK  status: ('A' for Active; 'I' for Inactive)
REMARK    1  A    between atoms: N1_2  and  C4_5 
REMARK    2  A    between atoms: C7_8  and  N2_9 
ROOT
HETATM    1  C4  UNL     1      93.824  78.714 -16.855  1.00  0.00     0.219 C 
HETATM    2  C5  UNL     1      92.949  78.049 -15.781  1.00  0.00     0.037 C 
HETATM    3  C6  UNL     1      93.995  78.506 -14.777  1.00  0.00     0.037 C 
HETATM    4  C7  UNL     1      94.977  78.550 -15.959  1.00  0.00     0.214 C 
ENDROOT
BRANCH   1   5
HETATM    5  N1  UNL     1      93.735  78.049 -18.081  1.00  0.00    -0.072 N 
HETATM    6  C1  UNL     1      92.552  77.173 -18.044  1.00  0.00     0.272 C 
HETATM    7  C2  UNL     1      93.433  79.037 -19.128  1.00  0.00     0.272 C 
HETATM    8  C3  UNL     1      94.831  77.271 -18.518  1.00  0.00     0.272 C 
ENDBRANCH   1   5
BRANCH   4   9
HETATM    9  N2  UNL     1      95.840  79.714 -15.769  1.00  0.00    -0.073 N 
ATOM     10  H23 UNL     1      96.463  79.811 -16.571  1.00  0.00     0.274 HD
ATOM     11  H22 UNL     1      95.286  80.566 -15.856  1.00  0.00     0.274 HD
ATOM     12  H21 UNL     1      96.386  79.750 -14.908  1.00  0.00     0.274 HD
ENDBRANCH   4   9
TORSDOF 2
ENDMDL
MODEL 3
REMARK VINA RESULT: -4.177078957      0.738      1.080
REMARK  2 active torsions:
REMARK  status: ('A' for Active; 'I' for Inactive)
REMARK    1  A    between atoms: N1_2  and  C4_5 
REMARK    2  A    between atoms: C7_8  and  N2_9 
ROOT
HETATM    1  C4  UNL     1      94.094  79.066 -16.962  1.00  0.00     0.219 C 
HETATM    2  C5  UNL     1      93.180  78.192 -16.091  1.00  0.00     0.037 C 
HETATM    3  C6  UNL     1      94.140  78.487 -14.949  1.00  0.00     0.037 C 
HETATM    4  C7  UNL     1      95.193  78.773 -16.031  1.00  0.00     0.214 C 
ENDROOT
BRANCH   1   5
HETATM    5  N1  UNL     1      94.111  78.634 -18.291  1.00  0.00    -0.072 N 
HETATM    6  C1  UNL     1      95.131  79.411 -19.015  1.00  0.00     0.272 C 
HETATM    7  C2  UNL     1      94.605  77.249 -18.327  1.00  0.00     0.272 C 
HETATM    8  C3  UNL     1      92.916  78.689 -19.044  1.00  0.00     0.272 C 
ENDBRANCH   1   5
BRANCH   4   9
HETATM    9  N2  UNL     1      95.994  79.907 -15.574  1.00  0.00    -0.073 N 
ATOM     10  H23 UNL     1      96.550  80.266 -16.350  1.00  0.00     0.274 HD
ATOM     11  H22 UNL     1      95.384  80.704 -15.394  1.00  0.00     0.274 HD
ATOM     12  H21 UNL     1      96.597  79.751 -14.766  1.00  0.00     0.274 HD
ENDBRANCH   4   9
TORSDOF 2
ENDMDL
MODEL 4
REMARK VINA RESULT: -4.053049549      1.552      2.401
REMARK  2 active torsions:
REMARK  status: ('A' for Active; 'I' for Inactive)
REMARK    1  A    between atoms: N1_2  and  C4_5 
REMARK    2  A    between atoms: C7_8  and  N2_9 
ROOT
HETATM    1  C4  UNL     1      94.123  77.278 -17.028  1.00  0.00     0.219 C 
HETATM    2  C5  UNL     1      94.778  78.282 -16.068  1.00  0.00     0.037 C 
HETATM    3  C6  UNL     1      93.571  78.068 -15.167  1.00  0.00     0.037 C 
HETATM    4  C7  UNL     1      92.823  77.618 -16.433  1.00  0.00     0.214 C 
ENDROOT
BRANCH   1   5
HETATM    5  N1  UNL     1      94.427  77.564 -18.362  1.00  0.00    -0.072 N 
HETATM    6  C1  UNL     1      93.942  76.449 -19.193  1.00  0.00     0.272 C 
HETATM    7  C2  UNL     1      93.625  78.721 -18.787  1.00  0.00     0.272 C 
HETATM    8  C3  UNL     1      95.772  77.812 -18.719  1.00  0.00     0.272 C 
ENDBRANCH   1   5
BRANCH   4   9
HETATM    9  N2  UNL     1      91.955  76.504 -16.056  1.00  0.00    -0.073 N 
ATOM     10  H23 UNL     1      92.156  75.700 -16.651  1.00  0.00     0.274 HD
ATOM     11  H22 UNL     1      92.242  76.142 -15.147  1.00  0.00     0.274 HD
ATOM     12  H21 UNL     1      90.951  76.682 -16.051  1.00  0.00     0.274 HD
ENDBRANCH   4   9
TORSDOF 2
ENDMDL
MODEL 5
REMARK VINA RESULT: -4.035420874      1.519      2.199
REMARK  2 active torsions:
REMARK  status: ('A' for Active; 'I' for Inactive)
REMARK    1  A    between atoms: N1_2  and  C4_5 
REMARK    2  A    between atoms: C7_8  and  N2_9 
ROOT
HETATM    1  C4  UNL     1      94.582  77.486 -17.108  1.00  0.00     0.219 C 
HETATM    2  C5  UNL     1      94.937  78.607 -16.120  1.00  0.00     0.037 C 
HETATM    3  C6  UNL     1      94.211  77.784 -15.067  1.00  0.00     0.037 C 
HETATM    4  C7  UNL     1      93.456  77.128 -16.234  1.00  0.00     0.214 C 
ENDROOT
BRANCH   1   5
HETATM    5  N1  UNL     1      94.391  77.977 -18.402  1.00  0.00    -0.072 N 
HETATM    6  C1  UNL     1      95.504  78.888 -18.718  1.00  0.00     0.272 C 
HETATM    7  C2  UNL     1      94.541  76.864 -19.352  1.00  0.00     0.272 C 
HETATM    8  C3  UNL     1      93.186  78.650 -18.708  1.00  0.00     0.272 C 
ENDBRANCH   1   5
BRANCH   4   9
HETATM    9  N2  UNL     1      93.294  75.712 -15.910  1.00  0.00    -0.073 N 
ATOM     10  H23 UNL     1      92.943  75.618 -14.956  1.00  0.00     0.274 HD
ATOM     11  H22 UNL     1      92.510  75.329 -16.438  1.00  0.00     0.274 HD
ATOM     12  H21 UNL     1      94.111  75.113 -16.032  1.00  0.00     0.274 HD
ENDBRANCH   4   9
TORSDOF 2
ENDMDL
