MODEL 1
REMARK VINA RESULT: -4.179652946      0.000      0.000
REMARK  2 active torsions:
REMARK  status: ('A' for Active; 'I' for Inactive)
REMARK    1  A    between atoms: N1_2  and  C2_4 
REMARK    2  A    between atoms: C4_6  and  N2_7 
ROOT
HETATM    1  C2  UNL     1      94.065  78.427 -15.679  1.00  0.00     0.024 C 
HETATM    2  C3  UNL     1      92.692  77.906 -15.569  1.00  0.00     0.069 C 
HETATM    3  C4  UNL     1      94.757  78.400 -16.804  1.00  0.00     0.226 C 
ENDROOT
BRANCH   1   4
HETATM    4  N1  UNL     1      94.685  78.989 -14.531  1.00  0.00    -0.397 N 
HETATM    5  C1  UNL     1      94.682  80.424 -14.363  1.00  0.00     0.146 C 
ATOM      6  H1  UNL     1      95.126  78.388 -13.835  1.00  0.00     0.158 HD
ENDBRANCH   1   4
BRANCH   3   7
HETATM    7  N2  UNL     1      94.148  77.838 -17.966  1.00  0.00    -0.046 N 
HETATM    8  C5  UNL     1      93.242  78.721 -18.684  1.00  0.00     0.278 C 
HETATM    9  C6  UNL     1      93.988  76.416 -18.059  1.00  0.00     0.271 A 
HETATM   10  C7  UNL     1      95.026  77.097 -18.873  1.00  0.00     0.271 A 
ENDBRANCH   3   7
TORSDOF 2
ENDMDL
MODEL 2
REMARK VINA RESULT: -4.050398777      1.633      3.572
REMARK  2 active torsions:
REMARK  status: ('A' for Active; 'I' for Inactive)
REMARK    1  A    between atoms: N1_2  and  C2_4 
REMARK    2  A    between atoms: C4_6  and  N2_7 
ROOT
HETATM    1  C2  UNL     1      94.482  79.198 -18.282  1.00  0.00     0.024 C 
HETATM    2  C3  UNL     1      93.152  78.947 -18.864  1.00  0.00     0.069 C 
HETATM    3  C4  UNL     1      94.888  78.649 -17.151  1.00  0.00     0.226 C 
ENDROOT
BRANCH   1   4
HETATM    4  N1  UNL     1      95.379  80.068 -18.959  1.00  0.00    -0.397 N 
HETATM    5  C1  UNL     1      95.799  79.737 -20.301  1.00  0.00     0.146 C 
ATOM      6  H1  UNL     1      95.721  80.914 -18.504  1.00  0.00     0.158 HD
ENDBRANCH   1   4
BRANCH   3   7
HETATM    7  N2  UNL     1      93.998  77.773 -16.460  1.00  0.00    -0.046 N 
HETATM    8  C5  UNL     1      93.776  76.484 -17.093  1.00  0.00     0.278 C 
HETATM    9  C6  UNL     1      93.003  78.327 -15.589  1.00  0.00     0.271 A 
HETATM   10  C7  UNL     1      94.192  77.650 -15.015  1.00  0.00     0.271 A 
ENDBRANCH   3   7
TORSDOF 2
ENDMDL
MODEL 3
REMARK VINA RESULT: -4.048801415      1.757      4.079
REMARK  2 active torsions:
REMARK  status: ('A' for Active; 'I' for Inactive)
REMARK    1  A    between atoms: N1_2  and  C2_4 
REMARK    2  A    between atoms: C4_6  and  N2_7 
ROOT
HETATM    1  C2  UNL     1      92.788  76.974 -17.690  1.00  0.00     0.024 C 
HETATM    2  C3  UNL     1      94.118  76.473 -18.079  1.00  0.00     0.069 C 
HETATM    3  C4  UNL     1      92.614  77.941 -16.807  1.00  0.00     0.226 C 
ENDROOT
BRANCH   1   4
HETATM    4  N1  UNL     1      91.633  76.400 -18.285  1.00  0.00    -0.397 N 
HETATM    5  C1  UNL     1      91.529  76.366 -19.725  1.00  0.00     0.146 C 
ATOM      6  H1  UNL     1      90.888  76.017 -17.703  1.00  0.00     0.158 HD
ENDBRANCH   1   4
BRANCH   3   7
HETATM    7  N2  UNL     1      93.765  78.527 -16.200  1.00  0.00    -0.046 N 
HETATM    8  C5  UNL     1      94.520  79.437 -17.047  1.00  0.00     0.278 C 
HETATM    9  C6  UNL     1      94.415  77.845 -15.120  1.00  0.00     0.271 A 
HETATM   10  C7  UNL     1      93.596  79.051 -14.844  1.00  0.00     0.271 A 
ENDBRANCH   3   7
TORSDOF 2
ENDMDL
MODEL 4
REMARK VINA RESULT: -3.982984105      0.980      1.163
REMARK  2 active torsions:
REMARK  status: ('A' for Active; 'I' for Inactive)
REMARK    1  A    between atoms: N1_2  and  C2_4 
REMARK    2  A    between atoms: C4_6  and  N2_7 
ROOT
HETATM    1  C2  UNL     1      94.371  78.607 -15.768  1.00  0.00     0.024 C 
HETATM    2  C3  UNL     1      93.802  77.251 -15.858  1.00  0.00     0.069 C 
HETATM    3  C4  UNL     1      94.744  79.303 -16.827  1.00  0.00     0.226 C 
ENDROOT
BRANCH   1   4
HETATM    4  N1  UNL     1      94.529  79.206 -14.489  1.00  0.00    -0.397 N 
HETATM    5  C1  UNL     1      94.826  80.617 -14.407  1.00  0.00     0.146 C 
ATOM      6  H1  UNL     1      94.434  78.647 -13.641  1.00  0.00     0.158 HD
ENDBRANCH   1   4
BRANCH   3   7
HETATM    7  N2  UNL     1      94.592  78.715 -18.118  1.00  0.00    -0.046 N 
HETATM    8  C5  UNL     1      93.248  78.766 -18.671  1.00  0.00     0.278 C 
HETATM    9  C6  UNL     1      95.501  77.688 -18.535  1.00  0.00     0.271 A 
HETATM   10  C7  UNL     1      95.609  79.050 -19.115  1.00  0.00     0.271 A 
ENDBRANCH   3   7
TORSDOF 2
ENDMDL
MODEL 5
REMARK VINA RESULT: -3.831695528      1.639      4.130
REMARK  2 active torsions:
REMARK  status: ('A' for Active; 'I' for Inactive)
REMARK    1  A    between atoms: N1_2  and  C2_4 
REMARK    2  A    between atoms: C4_6  and  N2_7 
ROOT
HETATM    1  C2  UNL     1      93.043  76.838 -18.273  1.00  0.00     0.024 C 
HETATM    2  C3  UNL     1      92.222  77.963 -18.753  1.00  0.00     0.069 C 
HETATM    3  C4  UNL     1      93.861  76.933 -17.241  1.00  0.00     0.226 C 
ENDROOT
BRANCH   1   4
HETATM    4  N1  UNL     1      92.960  75.588 -18.943  1.00  0.00    -0.397 N 
HETATM    5  C1  UNL     1      92.011  75.430 -20.020  1.00  0.00     0.146 C 
ATOM      6  H1  UNL     1      93.563  74.812 -18.667  1.00  0.00     0.158 HD
ENDBRANCH   1   4
BRANCH   3   7
HETATM    7  N2  UNL     1      93.956  78.183 -16.558  1.00  0.00    -0.046 N 
HETATM    8  C5  UNL     1      93.044  78.352 -15.438  1.00  0.00     0.278 C 
HETATM    9  C6  UNL     1      94.453  79.331 -17.259  1.00  0.00     0.271 A 
HETATM   10  C7  UNL     1      95.304  78.659 -16.246  1.00  0.00     0.271 A 
ENDBRANCH   3   7
TORSDOF 2
ENDMDL
