MODEL 1
REMARK VINA RESULT: -3.630707091      0.000      0.000
REMARK  2 active torsions:
REMARK  status: ('A' for Active; 'I' for Inactive)
REMARK    1  A    between atoms: C2_2  and  C4_4 
REMARK    2  A    between atoms: N1_5  and  C5_7 
ROOT
HETATM    1  C4  UNL     1      93.905  78.702 -16.260  1.00  0.00     0.059 C 
HETATM    2  N1  UNL     1      93.020  77.865 -16.574  1.00  0.00    -0.398 N 
ATOM      3  H1  UNL     1      92.465  77.462 -15.819  1.00  0.00     0.159 HD
ENDROOT
BRANCH   2   4
HETATM    4  C5  UNL     1      92.731  77.435 -17.907  1.00  0.00     0.072 C 
HETATM    5  C6  UNL     1      93.713  76.328 -18.245  1.00  0.00     0.031 C 
HETATM    6  C7  UNL     1      92.913  78.527 -18.925  1.00  0.00     0.031 C 
ENDBRANCH   2   4
BRANCH   1   7
HETATM    7  C2  UNL     1      94.109  79.067 -14.848  1.00  0.00     0.015 C 
HETATM    8  C1  UNL     1      92.759  79.031 -14.162  1.00  0.00     0.015 C 
HETATM    9  C3  UNL     1      94.687  80.458 -14.688  1.00  0.00     0.015 C 
ENDBRANCH   1   7
TORSDOF 2
ENDMDL
MODEL 2
REMARK VINA RESULT: -3.607598662      0.639      4.024
REMARK  2 active torsions:
REMARK  status: ('A' for Active; 'I' for Inactive)
REMARK    1  A    between atoms: C2_2  and  C4_4 
REMARK    2  A    between atoms: N1_5  and  C5_7 
ROOT
HETATM    1  C4  UNL     1      92.965  77.778 -16.593  1.00  0.00     0.059 C 
HETATM    2  N1  UNL     1      93.809  78.647 -16.257  1.00  0.00    -0.398 N 
ATOM      3  H1  UNL     1      94.329  79.110 -17.002  1.00  0.00     0.159 HD
ENDROOT
BRANCH   2   4
HETATM    4  C5  UNL     1      94.098  79.037 -14.911  1.00  0.00     0.072 C 
HETATM    5  C6  UNL     1      92.783  79.041 -14.154  1.00  0.00     0.031 C 
HETATM    6  C7  UNL     1      94.679  80.420 -14.817  1.00  0.00     0.031 C 
ENDBRANCH   2   4
BRANCH   1   7
HETATM    7  C2  UNL     1      92.755  77.461 -18.016  1.00  0.00     0.015 C 
HETATM    8  C1  UNL     1      93.746  76.383 -18.400  1.00  0.00     0.015 C 
HETATM    9  C3  UNL     1      92.982  78.659 -18.914  1.00  0.00     0.015 C 
ENDBRANCH   1   7
TORSDOF 2
ENDMDL
MODEL 3
REMARK VINA RESULT: -3.581803696      1.327      4.243
REMARK  2 active torsions:
REMARK  status: ('A' for Active; 'I' for Inactive)
REMARK    1  A    between atoms: C2_2  and  C4_4 
REMARK    2  A    between atoms: N1_5  and  C5_7 
ROOT
HETATM    1  C4  UNL     1      93.816  77.035 -16.981  1.00  0.00     0.059 C 
HETATM    2  N1  UNL     1      94.634  77.880 -16.539  1.00  0.00    -0.398 N 
ATOM      3  H1  UNL     1      95.485  78.038 -17.078  1.00  0.00     0.159 HD
ENDROOT
BRANCH   2   4
HETATM    4  C5  UNL     1      94.464  78.638 -15.337  1.00  0.00     0.072 C 
HETATM    5  C6  UNL     1      92.997  78.558 -14.960  1.00  0.00     0.031 C 
HETATM    6  C7  UNL     1      94.810  80.091 -15.510  1.00  0.00     0.031 C 
ENDBRANCH   2   4
BRANCH   1   7
HETATM    7  C2  UNL     1      94.101  76.316 -18.235  1.00  0.00     0.015 C 
HETATM    8  C1  UNL     1      95.122  77.124 -19.008  1.00  0.00     0.015 C 
HETATM    9  C3  UNL     1      92.870  76.151 -19.101  1.00  0.00     0.015 C 
ENDBRANCH   1   7
TORSDOF 2
ENDMDL
MODEL 4
REMARK VINA RESULT: -3.568673689      1.768      2.095
REMARK  2 active torsions:
REMARK  status: ('A' for Active; 'I' for Inactive)
REMARK    1  A    between atoms: C2_2  and  C4_4 
REMARK    2  A    between atoms: N1_5  and  C5_7 
ROOT
HETATM    1  C4  UNL     1      95.184  78.622 -16.389  1.00  0.00     0.059 C 
HETATM    2  N1  UNL     1      94.879  77.770 -17.262  1.00  0.00    -0.398 N 
ATOM      3  H1  UNL     1      94.109  77.136 -17.052  1.00  0.00     0.159 HD
ENDROOT
BRANCH   2   4
HETATM    4  C5  UNL     1      95.528  77.623 -18.528  1.00  0.00     0.072 C 
HETATM    5  C6  UNL     1      95.618  79.004 -19.150  1.00  0.00     0.031 C 
HETATM    6  C7  UNL     1      94.761  76.746 -19.479  1.00  0.00     0.031 C 
ENDBRANCH   2   4
BRANCH   1   7
HETATM    7  C2  UNL     1      94.438  78.678 -15.119  1.00  0.00     0.015 C 
HETATM    8  C1  UNL     1      93.006  78.278 -15.407  1.00  0.00     0.015 C 
HETATM    9  C3  UNL     1      94.432  80.065 -14.513  1.00  0.00     0.015 C 
ENDBRANCH   1   7
TORSDOF 2
ENDMDL
MODEL 5
REMARK VINA RESULT: -3.558952978      1.223      1.690
REMARK  2 active torsions:
REMARK  status: ('A' for Active; 'I' for Inactive)
REMARK    1  A    between atoms: C2_2  and  C4_4 
REMARK    2  A    between atoms: N1_5  and  C5_7 
ROOT
HETATM    1  C4  UNL     1      93.360  78.300 -17.134  1.00  0.00     0.059 C 
HETATM    2  N1  UNL     1      92.430  77.490 -17.377  1.00  0.00    -0.398 N 
ATOM      3  H1  UNL     1      91.865  77.172 -16.589  1.00  0.00     0.159 HD
ENDROOT
BRANCH   2   4
HETATM    4  C5  UNL     1      92.102  76.978 -18.672  1.00  0.00     0.072 C 
HETATM    5  C6  UNL     1      93.340  76.281 -19.205  1.00  0.00     0.031 C 
HETATM    6  C7  UNL     1      91.733  78.059 -19.650  1.00  0.00     0.031 C 
ENDBRANCH   2   4
BRANCH   1   7
HETATM    7  C2  UNL     1      93.600  78.758 -15.755  1.00  0.00     0.015 C 
HETATM    8  C1  UNL     1      94.598  79.895 -15.814  1.00  0.00     0.015 C 
HETATM    9  C3  UNL     1      94.173  77.667 -14.874  1.00  0.00     0.015 C 
ENDBRANCH   1   7
TORSDOF 2
ENDMDL
