MODEL 1
REMARK VINA RESULT: -3.990864848      0.000      0.000
REMARK  2 active torsions:
REMARK  status: ('A' for Active; 'I' for Inactive)
REMARK    1  A    between atoms: C2_2  and  C3_3 
REMARK    2  A    between atoms: C3_3  and  N1_4 
ROOT
HETATM    1  C3  UNL     1      94.211  78.469 -16.074  1.00  0.00     0.145 A 
HETATM    2  C7  UNL     1      94.112  77.505 -14.893  1.00  0.00     0.046 A 
HETATM    3  C8  UNL     1      92.980  78.365 -15.292  1.00  0.00     0.046 A 
ENDROOT
BRANCH   1   4
HETATM    4  C2  UNL     1      95.193  79.572 -15.832  1.00  0.00     0.002 C 
HETATM    5  C1  UNL     1      94.889  80.708 -15.268  1.00  0.00     0.009 C 
ENDBRANCH   1   4
BRANCH   1   6
HETATM    6  N1  UNL     1      94.223  77.939 -17.395  1.00  0.00    -0.066 N 
HETATM    7  C4  UNL     1      93.351  78.724 -18.266  1.00  0.00     0.272 C 
HETATM    8  C5  UNL     1      95.530  77.946 -18.019  1.00  0.00     0.272 C 
HETATM    9  C6  UNL     1      93.750  76.560 -17.466  1.00  0.00     0.272 C 
ENDBRANCH   1   6
TORSDOF 2
ENDMDL
MODEL 2
REMARK VINA RESULT: -3.982499408      0.036      1.342
REMARK  2 active torsions:
REMARK  status: ('A' for Active; 'I' for Inactive)
REMARK    1  A    between atoms: C2_2  and  C3_3 
REMARK    2  A    between atoms: C3_3  and  N1_4 
ROOT
HETATM    1  C3  UNL     1      94.190  78.476 -16.067  1.00  0.00     0.145 A 
HETATM    2  C7  UNL     1      94.105  77.509 -14.888  1.00  0.00     0.046 A 
HETATM    3  C8  UNL     1      92.971  78.378 -15.264  1.00  0.00     0.046 A 
ENDROOT
BRANCH   1   4
HETATM    4  C2  UNL     1      95.183  79.573 -15.839  1.00  0.00     0.002 C 
HETATM    5  C1  UNL     1      94.895  80.709 -15.266  1.00  0.00     0.009 C 
ENDBRANCH   1   4
BRANCH   1   6
HETATM    6  N1  UNL     1      94.175  77.951 -17.390  1.00  0.00    -0.066 N 
HETATM    7  C4  UNL     1      95.518  77.985 -17.966  1.00  0.00     0.272 C 
HETATM    8  C5  UNL     1      93.736  76.573 -17.470  1.00  0.00     0.272 C 
HETATM    9  C6  UNL     1      93.314  78.702 -18.298  1.00  0.00     0.272 C 
ENDBRANCH   1   6
TORSDOF 2
ENDMDL
MODEL 3
REMARK VINA RESULT: -3.882327221      0.034      1.346
REMARK  2 active torsions:
REMARK  status: ('A' for Active; 'I' for Inactive)
REMARK    1  A    between atoms: C2_2  and  C3_3 
REMARK    2  A    between atoms: C3_3  and  N1_4 
ROOT
HETATM    1  C3  UNL     1      94.201  78.486 -16.073  1.00  0.00     0.145 A 
HETATM    2  C7  UNL     1      94.109  77.502 -14.909  1.00  0.00     0.046 A 
HETATM    3  C8  UNL     1      92.977  78.374 -15.281  1.00  0.00     0.046 A 
ENDROOT
BRANCH   1   4
HETATM    4  C2  UNL     1      95.191  79.580 -15.823  1.00  0.00     0.002 C 
HETATM    5  C1  UNL     1      94.890  80.721 -15.265  1.00  0.00     0.009 C 
ENDBRANCH   1   4
BRANCH   1   6
HETATM    6  N1  UNL     1      94.197  77.979 -17.404  1.00  0.00    -0.066 N 
HETATM    7  C4  UNL     1      93.724  76.596 -17.421  1.00  0.00     0.272 C 
HETATM    8  C5  UNL     1      93.336  78.712 -18.309  1.00  0.00     0.272 C 
HETATM    9  C6  UNL     1      95.520  77.973 -18.021  1.00  0.00     0.272 C 
ENDBRANCH   1   6
TORSDOF 2
ENDMDL
MODEL 4
REMARK VINA RESULT: -3.555625479      1.262      1.402
REMARK  2 active torsions:
REMARK  status: ('A' for Active; 'I' for Inactive)
REMARK    1  A    between atoms: C2_2  and  C3_3 
REMARK    2  A    between atoms: C3_3  and  N1_4 
ROOT
HETATM    1  C3  UNL     1      93.777  77.708 -16.893  1.00  0.00     0.145 A 
HETATM    2  C7  UNL     1      93.435  76.553 -15.955  1.00  0.00     0.046 A 
HETATM    3  C8  UNL     1      92.661  77.810 -15.954  1.00  0.00     0.046 A 
ENDROOT
BRANCH   1   4
HETATM    4  C2  UNL     1      95.107  78.322 -16.587  1.00  0.00     0.002 C 
HETATM    5  C1  UNL     1      95.261  79.443 -15.937  1.00  0.00     0.009 C 
ENDBRANCH   1   4
BRANCH   1   6
HETATM    6  N1  UNL     1      93.486  77.577 -18.281  1.00  0.00    -0.066 N 
HETATM    7  C4  UNL     1      93.340  78.894 -18.898  1.00  0.00     0.272 C 
HETATM    8  C5  UNL     1      94.516  76.890 -19.034  1.00  0.00     0.272 C 
HETATM    9  C6  UNL     1      92.245  76.855 -18.543  1.00  0.00     0.272 C 
ENDBRANCH   1   6
TORSDOF 2
ENDMDL
MODEL 5
REMARK VINA RESULT: -3.495315559      1.301      3.077
REMARK  2 active torsions:
REMARK  status: ('A' for Active; 'I' for Inactive)
REMARK    1  A    between atoms: C2_2  and  C3_3 
REMARK    2  A    between atoms: C3_3  and  N1_4 
ROOT
HETATM    1  C3  UNL     1      93.388  77.676 -17.240  1.00  0.00     0.145 A 
HETATM    2  C7  UNL     1      92.751  77.852 -15.864  1.00  0.00     0.046 A 
HETATM    3  C8  UNL     1      93.402  76.588 -16.263  1.00  0.00     0.046 A 
ENDROOT
BRANCH   1   4
HETATM    4  C2  UNL     1      92.382  77.712 -18.348  1.00  0.00     0.002 C 
HETATM    5  C1  UNL     1      91.994  76.660 -19.015  1.00  0.00     0.009 C 
ENDBRANCH   1   4
BRANCH   1   6
HETATM    6  N1  UNL     1      94.611  78.349 -17.524  1.00  0.00    -0.066 N 
HETATM    7  C4  UNL     1      95.493  77.491 -18.312  1.00  0.00     0.272 C 
HETATM    8  C5  UNL     1      94.446  79.568 -18.287  1.00  0.00     0.272 C 
HETATM    9  C6  UNL     1      95.355  78.720 -16.325  1.00  0.00     0.272 C 
ENDBRANCH   1   6
TORSDOF 2
ENDMDL
