MODEL 1
REMARK VINA RESULT: -4.217988649      0.000      0.000
REMARK  1 active torsions:
REMARK  status: ('A' for Active; 'I' for Inactive)
REMARK       I    between atoms: N1_2  and  C2_3 
REMARK    1  A    between atoms: N1_2  and  C3_6 
ROOT
HETATM    1  C1  UNL     1      28.808  13.249  15.874  1.00  0.00     0.154 C 
HETATM    2  N1  UNL     1      28.443  14.428  16.612  1.00  0.00    -0.336 N 
HETATM    3  C2  UNL     1      28.651  15.697  16.050  1.00  0.00     0.330 C 
HETATM    4  N2  UNL     1      28.287  16.843  16.786  1.00  0.00    -0.040 NA
HETATM    5  O1  UNL     1      29.152  15.823  14.913  1.00  0.00    -0.251 OA
ENDROOT
BRANCH   2   6
HETATM    6  C3  UNL     1      27.861  14.326  17.930  1.00  0.00     0.088 A 
HETATM    7  C4  UNL     1      27.789  13.012  18.610  1.00  0.00     0.027 A 
HETATM    8  C5  UNL     1      28.894  13.946  19.001  1.00  0.00     0.027 A 
ENDBRANCH   2   6
TORSDOF 1
ENDMDL
MODEL 2
REMARK VINA RESULT: -4.064977909      1.932      2.607
REMARK  1 active torsions:
REMARK  status: ('A' for Active; 'I' for Inactive)
REMARK       I    between atoms: N1_2  and  C2_3 
REMARK    1  A    between atoms: N1_2  and  C3_6 
ROOT
HETATM    1  C1  UNL     1      27.510  15.491  18.348  1.00  0.00     0.154 C 
HETATM    2  N1  UNL     1      28.146  15.907  17.127  1.00  0.00    -0.336 N 
HETATM    3  C2  UNL     1      27.628  16.994  16.404  1.00  0.00     0.330 C 
HETATM    4  N2  UNL     1      28.264  17.389  15.210  1.00  0.00    -0.040 NA
HETATM    5  O1  UNL     1      26.618  17.610  16.804  1.00  0.00    -0.251 OA
ENDROOT
BRANCH   2   6
HETATM    6  C3  UNL     1      29.315  15.221  16.630  1.00  0.00     0.088 A 
HETATM    7  C4  UNL     1      29.771  13.968  17.276  1.00  0.00     0.027 A 
HETATM    8  C5  UNL     1      28.978  13.857  16.009  1.00  0.00     0.027 A 
ENDBRANCH   2   6
TORSDOF 1
ENDMDL
MODEL 3
REMARK VINA RESULT: -3.873471037      2.255      3.292
REMARK  1 active torsions:
REMARK  status: ('A' for Active; 'I' for Inactive)
REMARK       I    between atoms: N1_2  and  C2_3 
REMARK    1  A    between atoms: N1_2  and  C3_6 
ROOT
HETATM    1  C1  UNL     1      28.447  13.206  16.456  1.00  0.00     0.154 C 
HETATM    2  N1  UNL     1      28.669  14.313  17.347  1.00  0.00    -0.336 N 
HETATM    3  C2  UNL     1      28.373  14.182  18.713  1.00  0.00     0.330 C 
HETATM    4  N2  UNL     1      28.598  15.276  19.573  1.00  0.00    -0.040 NA
HETATM    5  O1  UNL     1      27.915  13.115  19.172  1.00  0.00    -0.251 OA
ENDROOT
BRANCH   2   6
HETATM    6  C3  UNL     1      29.197  15.565  16.856  1.00  0.00     0.088 A 
HETATM    7  C4  UNL     1      29.074  15.909  15.420  1.00  0.00     0.027 A 
HETATM    8  C5  UNL     1      28.094  16.519  16.375  1.00  0.00     0.027 A 
ENDBRANCH   2   6
TORSDOF 1
ENDMDL
MODEL 4
REMARK VINA RESULT: -3.842348593      2.663      3.866
REMARK  1 active torsions:
REMARK  status: ('A' for Active; 'I' for Inactive)
REMARK       I    between atoms: N1_2  and  C2_3 
REMARK    1  A    between atoms: N1_2  and  C3_6 
ROOT
HETATM    1  C1  UNL     1      27.578  15.290  18.466  1.00  0.00     0.154 C 
HETATM    2  N1  UNL     1      27.740  13.974  17.909  1.00  0.00    -0.336 N 
HETATM    3  C2  UNL     1      27.247  12.857  18.601  1.00  0.00     0.330 C 
HETATM    4  N2  UNL     1      27.413  11.574  18.040  1.00  0.00    -0.040 NA
HETATM    5  O1  UNL     1      26.669  12.984  19.700  1.00  0.00    -0.251 OA
ENDROOT
BRANCH   2   6
HETATM    6  C3  UNL     1      28.403  13.783  16.640  1.00  0.00     0.088 A 
HETATM    7  C4  UNL     1      28.933  14.950  15.897  1.00  0.00     0.027 A 
HETATM    8  C5  UNL     1      29.898  14.132  16.700  1.00  0.00     0.027 A 
ENDBRANCH   2   6
TORSDOF 1
ENDMDL
MODEL 5
REMARK VINA RESULT: -3.825104491      2.557      3.422
REMARK  1 active torsions:
REMARK  status: ('A' for Active; 'I' for Inactive)
REMARK       I    between atoms: N1_2  and  C2_3 
REMARK    1  A    between atoms: N1_2  and  C3_6 
ROOT
HETATM    1  C1  UNL     1      28.561  13.139  16.206  1.00  0.00     0.154 C 
HETATM    2  N1  UNL     1      28.106  13.504  17.521  1.00  0.00    -0.336 N 
HETATM    3  C2  UNL     1      27.292  12.623  18.248  1.00  0.00     0.330 C 
HETATM    4  N2  UNL     1      26.855  12.996  19.536  1.00  0.00    -0.040 NA
HETATM    5  O1  UNL     1      26.951  11.520  17.772  1.00  0.00    -0.251 OA
ENDROOT
BRANCH   2   6
HETATM    6  C3  UNL     1      28.478  14.770  18.107  1.00  0.00     0.088 A 
HETATM    7  C4  UNL     1      29.121  15.813  17.274  1.00  0.00     0.027 A 
HETATM    8  C5  UNL     1      27.654  15.941  17.549  1.00  0.00     0.027 A 
ENDBRANCH   2   6
TORSDOF 1
ENDMDL
