MODEL 1
REMARK VINA RESULT: -4.158742316      0.000      0.000
REMARK  0 active torsions:
REMARK  status: ('A' for Active; 'I' for Inactive)
ROOT
HETATM    1  C1  UNL     1      28.047  16.065  16.853  1.00  0.00     0.031 C 
HETATM    2  C2  UNL     1      29.197  15.258  16.307  1.00  0.00     0.031 C 
HETATM    3  C3  UNL     1      29.605  14.376  17.454  1.00  0.00     0.260 C 
HETATM    4  N1  UNL     1      28.335  14.148  18.142  1.00  0.00     0.012 N 
HETATM    5  C4  UNL     1      27.776  15.450  18.206  1.00  0.00     0.260 C 
HETATM    6  C5  UNL     1      27.542  13.078  17.658  1.00  0.00     0.278 C 
HETATM    7  C6  UNL     1      27.473  12.521  19.050  1.00  0.00     0.172 C 
HETATM    8  N2  UNL     1      28.547  13.464  19.315  1.00  0.00    -0.045 NA
ENDROOT
TORSDOF 0
ENDMDL
MODEL 2
REMARK VINA RESULT: -3.989902650      1.045      1.724
REMARK  0 active torsions:
REMARK  status: ('A' for Active; 'I' for Inactive)
ROOT
HETATM    1  C1  UNL     1      29.553  15.217  16.335  1.00  0.00     0.031 C 
HETATM    2  C2  UNL     1      28.894  16.237  17.228  1.00  0.00     0.031 C 
HETATM    3  C3  UNL     1      27.705  15.514  17.797  1.00  0.00     0.260 C 
HETATM    4  N1  UNL     1      28.183  14.134  17.875  1.00  0.00     0.012 N 
HETATM    5  C4  UNL     1      28.790  13.941  16.609  1.00  0.00     0.260 C 
HETATM    6  C5  UNL     1      28.901  13.785  19.047  1.00  0.00     0.278 C 
HETATM    7  C6  UNL     1      27.972  12.624  19.250  1.00  0.00     0.172 C 
HETATM    8  N2  UNL     1      27.159  13.297  18.250  1.00  0.00    -0.045 NA
ENDROOT
TORSDOF 0
ENDMDL
MODEL 3
REMARK VINA RESULT: -3.891996290      1.186      3.126
REMARK  0 active torsions:
REMARK  status: ('A' for Active; 'I' for Inactive)
ROOT
HETATM    1  C1  UNL     1      27.340  12.498  17.612  1.00  0.00     0.031 C 
HETATM    2  C2  UNL     1      27.751  13.058  18.950  1.00  0.00     0.031 C 
HETATM    3  C3  UNL     1      28.966  13.888  18.644  1.00  0.00     0.260 C 
HETATM    4  N1  UNL     1      28.685  14.371  17.293  1.00  0.00     0.012 N 
HETATM    5  C4  UNL     1      28.246  13.200  16.627  1.00  0.00     0.260 C 
HETATM    6  C5  UNL     1      27.908  15.554  17.198  1.00  0.00     0.278 C 
HETATM    7  C6  UNL     1      28.968  16.161  16.327  1.00  0.00     0.172 C 
HETATM    8  N2  UNL     1      29.775  15.045  16.794  1.00  0.00    -0.045 NA
ENDROOT
TORSDOF 0
ENDMDL
MODEL 4
REMARK VINA RESULT: -3.585683471      1.594      2.488
REMARK  0 active torsions:
REMARK  status: ('A' for Active; 'I' for Inactive)
ROOT
HETATM    1  C1  UNL     1      28.690  16.284  17.612  1.00  0.00     0.031 C 
HETATM    2  C2  UNL     1      28.679  15.305  18.758  1.00  0.00     0.031 C 
HETATM    3  C3  UNL     1      28.081  14.057  18.171  1.00  0.00     0.260 C 
HETATM    4  N1  UNL     1      28.535  14.114  16.782  1.00  0.00     0.012 N 
HETATM    5  C4  UNL     1      28.265  15.458  16.420  1.00  0.00     0.260 C 
HETATM    6  C5  UNL     1      29.818  13.570  16.518  1.00  0.00     0.278 C 
HETATM    7  C6  UNL     1      29.216  12.715  15.442  1.00  0.00     0.172 C 
HETATM    8  N2  UNL     1      27.955  13.105  16.051  1.00  0.00    -0.045 NA
ENDROOT
TORSDOF 0
ENDMDL
MODEL 5
REMARK VINA RESULT: -3.465970706      1.615      2.376
REMARK  0 active torsions:
REMARK  status: ('A' for Active; 'I' for Inactive)
ROOT
HETATM    1  C1  UNL     1      27.564  15.353  18.418  1.00  0.00     0.031 C 
HETATM    2  C2  UNL     1      27.731  16.280  17.241  1.00  0.00     0.031 C 
HETATM    3  C3  UNL     1      29.068  15.904  16.665  1.00  0.00     0.260 C 
HETATM    4  N1  UNL     1      29.144  14.473  16.952  1.00  0.00     0.012 N 
HETATM    5  C4  UNL     1      28.735  14.404  18.308  1.00  0.00     0.260 C 
HETATM    6  C5  UNL     1      28.541  13.609  16.003  1.00  0.00     0.278 C 
HETATM    7  C6  UNL     1      29.827  12.840  15.912  1.00  0.00     0.172 C 
HETATM    8  N2  UNL     1      30.383  13.986  16.612  1.00  0.00    -0.045 NA
ENDROOT
TORSDOF 0
ENDMDL
