MODEL 1
REMARK VINA RESULT: -4.400340991      0.000      0.000
REMARK  2 active torsions:
REMARK  status: ('A' for Active; 'I' for Inactive)
REMARK    1  A    between atoms: N1_2  and  N2_4 
REMARK    2  A    between atoms: N1_2  and  C3_7 
ROOT
HETATM    1  C1  UNL     1      43.745  22.593  50.153  1.00  0.00     0.302 C 
HETATM    2  N1  UNL     1      44.443  21.383  49.874  1.00  0.00     0.003 N 
HETATM    3  C2  UNL     1      45.656  21.657  49.113  1.00  0.00     0.302 C 
ENDROOT
BRANCH   2   4
HETATM    4  N2  UNL     1      43.638  20.584  49.018  1.00  0.00    -0.261 N 
ATOM      5  H22 UNL     1      42.685  20.811  48.733  1.00  0.00     0.183 HD
ATOM      6  H21 UNL     1      44.173  19.760  48.745  1.00  0.00     0.183 HD
ENDBRANCH   2   4
BRANCH   2   7
HETATM    7  C3  UNL     1      44.788  20.598  50.996  1.00  0.00     0.214 C 
HETATM    8  C4  UNL     1      46.237  20.609  51.368  1.00  0.00     0.036 C 
HETATM    9  C5  UNL     1      46.209  19.604  52.532  1.00  0.00     0.002 C 
HETATM   10  C6  UNL     1      45.336  18.512  51.969  1.00  0.00     0.002 C 
HETATM   11  C7  UNL     1      44.483  19.138  50.889  1.00  0.00     0.036 C 
ENDBRANCH   2   7
TORSDOF 2
ENDMDL
MODEL 2
REMARK VINA RESULT: -4.317788960      1.027      1.648
REMARK  2 active torsions:
REMARK  status: ('A' for Active; 'I' for Inactive)
REMARK    1  A    between atoms: N1_2  and  N2_4 
REMARK    2  A    between atoms: N1_2  and  C3_7 
ROOT
HETATM    1  C1  UNL     1      43.989  21.774  49.852  1.00  0.00     0.302 C 
HETATM    2  N1  UNL     1      45.330  21.294  49.817  1.00  0.00     0.003 N 
HETATM    3  C2  UNL     1      46.267  22.372  50.109  1.00  0.00     0.302 C 
ENDROOT
BRANCH   2   4
HETATM    4  N2  UNL     1      45.629  20.889  48.488  1.00  0.00    -0.261 N 
ATOM      5  H22 UNL     1      45.724  21.520  47.692  1.00  0.00     0.183 HD
ATOM      6  H21 UNL     1      45.731  19.874  48.474  1.00  0.00     0.183 HD
ENDBRANCH   2   4
BRANCH   2   7
HETATM    7  C3  UNL     1      45.618  20.208  50.672  1.00  0.00     0.214 C 
HETATM    8  C4  UNL     1      44.507  19.223  50.858  1.00  0.00     0.036 C 
HETATM    9  C5  UNL     1      45.165  18.287  51.885  1.00  0.00     0.002 C 
HETATM   10  C6  UNL     1      45.787  19.272  52.839  1.00  0.00     0.002 C 
HETATM   11  C7  UNL     1      45.984  20.564  52.077  1.00  0.00     0.036 C 
ENDBRANCH   2   7
TORSDOF 2
ENDMDL
MODEL 3
REMARK VINA RESULT: -4.262348833      0.894      1.489
REMARK  2 active torsions:
REMARK  status: ('A' for Active; 'I' for Inactive)
REMARK    1  A    between atoms: N1_2  and  N2_4 
REMARK    2  A    between atoms: N1_2  and  C3_7 
ROOT
HETATM    1  C1  UNL     1      43.791  22.948  51.045  1.00  0.00     0.302 C 
HETATM    2  N1  UNL     1      44.406  22.089  50.089  1.00  0.00     0.003 N 
HETATM    3  C2  UNL     1      45.302  22.847  49.224  1.00  0.00     0.302 C 
ENDROOT
BRANCH   2   4
HETATM    4  N2  UNL     1      43.398  21.579  49.227  1.00  0.00    -0.261 N 
ATOM      5  H22 UNL     1      43.457  20.698  48.716  1.00  0.00     0.183 HD
ATOM      6  H21 UNL     1      42.620  22.238  49.212  1.00  0.00     0.183 HD
ENDBRANCH   2   4
BRANCH   2   7
HETATM    7  C3  UNL     1      45.118  20.990  50.616  1.00  0.00     0.214 C 
HETATM    8  C4  UNL     1      44.447  19.661  50.473  1.00  0.00     0.036 C 
HETATM    9  C5  UNL     1      45.462  18.781  51.222  1.00  0.00     0.002 C 
HETATM   10  C6  UNL     1      45.752  19.621  52.438  1.00  0.00     0.002 C 
HETATM   11  C7  UNL     1      45.424  21.053  52.078  1.00  0.00     0.036 C 
ENDBRANCH   2   7
TORSDOF 2
ENDMDL
MODEL 4
REMARK VINA RESULT: -4.152126744      0.872      1.029
REMARK  2 active torsions:
REMARK  status: ('A' for Active; 'I' for Inactive)
REMARK    1  A    between atoms: N1_2  and  N2_4 
REMARK    2  A    between atoms: N1_2  and  C3_7 
ROOT
HETATM    1  C1  UNL     1      45.721  22.127  49.593  1.00  0.00     0.302 C 
HETATM    2  N1  UNL     1      44.894  20.977  49.740  1.00  0.00     0.003 N 
HETATM    3  C2  UNL     1      45.185  20.001  48.696  1.00  0.00     0.302 C 
ENDROOT
BRANCH   2   4
HETATM    4  N2  UNL     1      43.543  21.363  49.525  1.00  0.00    -0.261 N 
ATOM      5  H22 UNL     1      42.944  21.808  50.220  1.00  0.00     0.183 HD
ATOM      6  H21 UNL     1      43.285  21.119  48.568  1.00  0.00     0.183 HD
ENDBRANCH   2   4
BRANCH   2   7
HETATM    7  C3  UNL     1      44.961  20.326  50.991  1.00  0.00     0.214 C 
HETATM    8  C4  UNL     1      46.292  20.377  51.672  1.00  0.00     0.036 C 
HETATM    9  C5  UNL     1      45.980  19.513  52.905  1.00  0.00     0.002 C 
HETATM   10  C6  UNL     1      45.224  18.365  52.289  1.00  0.00     0.002 C 
HETATM   11  C7  UNL     1      44.647  18.864  50.983  1.00  0.00     0.036 C 
ENDBRANCH   2   7
TORSDOF 2
ENDMDL
MODEL 5
REMARK VINA RESULT: -4.109391118      2.107      2.932
REMARK  2 active torsions:
REMARK  status: ('A' for Active; 'I' for Inactive)
REMARK    1  A    between atoms: N1_2  and  N2_4 
REMARK    2  A    between atoms: N1_2  and  C3_7 
ROOT
HETATM    1  C1  UNL     1      47.179  22.435  51.710  1.00  0.00     0.302 C 
HETATM    2  N1  UNL     1      45.956  22.031  52.318  1.00  0.00     0.003 N 
HETATM    3  C2  UNL     1      44.927  23.044  52.115  1.00  0.00     0.302 C 
ENDROOT
BRANCH   2   4
HETATM    4  N2  UNL     1      46.149  21.972  53.725  1.00  0.00    -0.261 N 
ATOM      5  H22 UNL     1      45.504  22.346  54.420  1.00  0.00     0.183 HD
ATOM      6  H21 UNL     1      47.033  21.496  53.910  1.00  0.00     0.183 HD
ENDBRANCH   2   4
BRANCH   2   7
HETATM    7  C3  UNL     1      45.442  20.784  51.901  1.00  0.00     0.214 C 
HETATM    8  C4  UNL     1      45.879  19.605  52.713  1.00  0.00     0.036 C 
HETATM    9  C5  UNL     1      45.203  18.480  51.912  1.00  0.00     0.002 C 
HETATM   10  C6  UNL     1      45.521  18.883  50.495  1.00  0.00     0.002 C 
HETATM   11  C7  UNL     1      45.784  20.372  50.506  1.00  0.00     0.036 C 
ENDBRANCH   2   7
TORSDOF 2
ENDMDL
