MODEL 1
REMARK VINA RESULT: -4.596866121      0.000      0.000
REMARK  2 active torsions:
REMARK  status: ('A' for Active; 'I' for Inactive)
REMARK    1  A    between atoms: C4_4  and  C5_5 
REMARK    2  A    between atoms: C5_5  and  N1_7 
REMARK       I    between atoms: N1_7  and  C7_9 
ROOT
HETATM    1  C1  UNL     1      41.534  24.375  49.665  1.00  0.00     0.017 C 
HETATM    2  C2  UNL     1      42.558  23.780  49.892  1.00  0.00    -0.090 C 
HETATM    3  C3  UNL     1      43.800  23.060  50.140  1.00  0.00     0.061 C 
HETATM    4  C4  UNL     1      43.854  21.749  50.014  1.00  0.00     0.007 C 
ENDROOT
BRANCH   4   5
HETATM    5  C5  UNL     1      45.136  21.067  50.277  1.00  0.00     0.103 C 
HETATM    6  C6  UNL     1      46.215  22.143  50.283  1.00  0.00     0.036 C 
BRANCH   5   7
HETATM    7  N1  UNL     1      45.110  20.332  51.517  1.00  0.00    -0.354 N 
HETATM    8  C7  UNL     1      45.454  18.957  51.501  1.00  0.00     0.214 C 
HETATM    9  C8  UNL     1      45.427  18.196  52.781  1.00  0.00     0.117 C 
HETATM   10  O1  UNL     1      45.780  18.383  50.407  1.00  0.00    -0.274 OA
ATOM     11  H1  UNL     1      44.849  20.792  52.389  1.00  0.00     0.163 HD
ENDBRANCH   5   7
ENDBRANCH   4   5
TORSDOF 2
ENDMDL
MODEL 2
REMARK VINA RESULT: -4.489888844      0.988      1.020
REMARK  2 active torsions:
REMARK  status: ('A' for Active; 'I' for Inactive)
REMARK    1  A    between atoms: C4_4  and  C5_5 
REMARK    2  A    between atoms: C5_5  and  N1_7 
REMARK       I    between atoms: N1_7  and  C7_9 
ROOT
HETATM    1  C1  UNL     1      42.092  24.013  49.939  1.00  0.00     0.017 C 
HETATM    2  C2  UNL     1      43.082  23.331  50.027  1.00  0.00    -0.090 C 
HETATM    3  C3  UNL     1      44.263  22.485  50.128  1.00  0.00     0.061 C 
HETATM    4  C4  UNL     1      44.533  21.839  51.246  1.00  0.00     0.007 C 
ENDROOT
BRANCH   4   5
HETATM    5  C5  UNL     1      45.743  20.995  51.298  1.00  0.00     0.103 C 
HETATM    6  C6  UNL     1      46.940  21.933  51.193  1.00  0.00     0.036 C 
BRANCH   5   7
HETATM    7  N1  UNL     1      45.793  20.199  52.499  1.00  0.00    -0.354 N 
HETATM    8  C7  UNL     1      45.589  18.801  52.398  1.00  0.00     0.214 C 
HETATM    9  C8  UNL     1      45.641  17.977  53.638  1.00  0.00     0.117 C 
HETATM   10  O1  UNL     1      45.365  18.258  51.263  1.00  0.00    -0.274 OA
ATOM     11  H1  UNL     1      45.972  20.635  53.404  1.00  0.00     0.163 HD
ENDBRANCH   5   7
ENDBRANCH   4   5
TORSDOF 2
ENDMDL
MODEL 3
REMARK VINA RESULT: -4.477344565      2.165      5.220
REMARK  2 active torsions:
REMARK  status: ('A' for Active; 'I' for Inactive)
REMARK    1  A    between atoms: C4_4  and  C5_5 
REMARK    2  A    between atoms: C5_5  and  N1_7 
REMARK       I    between atoms: N1_7  and  C7_9 
ROOT
HETATM    1  C1  UNL     1      45.854  18.060  53.671  1.00  0.00     0.017 C 
HETATM    2  C2  UNL     1      45.454  18.589  52.664  1.00  0.00    -0.090 C 
HETATM    3  C3  UNL     1      44.996  19.231  51.439  1.00  0.00     0.061 C 
HETATM    4  C4  UNL     1      44.949  20.546  51.347  1.00  0.00     0.007 C 
ENDROOT
BRANCH   4   5
HETATM    5  C5  UNL     1      44.476  21.148  50.085  1.00  0.00     0.103 C 
HETATM    6  C6  UNL     1      44.057  19.998  49.178  1.00  0.00     0.036 C 
BRANCH   5   7
HETATM    7  N1  UNL     1      43.394  22.076  50.304  1.00  0.00    -0.354 N 
HETATM    8  C7  UNL     1      43.285  23.206  49.456  1.00  0.00     0.214 C 
HETATM    9  C8  UNL     1      42.167  24.165  49.681  1.00  0.00     0.117 C 
HETATM   10  O1  UNL     1      44.130  23.396  48.517  1.00  0.00    -0.274 OA
ATOM     11  H1  UNL     1      42.721  21.921  51.054  1.00  0.00     0.163 HD
ENDBRANCH   5   7
ENDBRANCH   4   5
TORSDOF 2
ENDMDL
MODEL 4
REMARK VINA RESULT: -4.443708950      1.703      1.783
REMARK  2 active torsions:
REMARK  status: ('A' for Active; 'I' for Inactive)
REMARK    1  A    between atoms: C4_4  and  C5_5 
REMARK    2  A    between atoms: C5_5  and  N1_7 
REMARK       I    between atoms: N1_7  and  C7_9 
ROOT
HETATM    1  C1  UNL     1      42.444  24.378  52.179  1.00  0.00     0.017 C 
HETATM    2  C2  UNL     1      43.413  23.663  52.236  1.00  0.00    -0.090 C 
HETATM    3  C3  UNL     1      44.595  22.814  52.287  1.00  0.00     0.061 C 
HETATM    4  C4  UNL     1      44.767  21.848  51.406  1.00  0.00     0.007 C 
ENDROOT
BRANCH   4   5
HETATM    5  C5  UNL     1      45.982  21.015  51.501  1.00  0.00     0.103 C 
HETATM    6  C6  UNL     1      47.173  21.964  51.461  1.00  0.00     0.036 C 
BRANCH   5   7
HETATM    7  N1  UNL     1      45.986  20.204  52.693  1.00  0.00    -0.354 N 
HETATM    8  C7  UNL     1      45.688  18.823  52.578  1.00  0.00     0.214 C 
HETATM    9  C8  UNL     1      45.692  17.984  53.810  1.00  0.00     0.117 C 
HETATM   10  O1  UNL     1      45.421  18.310  51.440  1.00  0.00    -0.274 OA
ATOM     11  H1  UNL     1      46.199  20.616  53.601  1.00  0.00     0.163 HD
ENDBRANCH   5   7
ENDBRANCH   4   5
TORSDOF 2
ENDMDL
MODEL 5
REMARK VINA RESULT: -4.371932956      2.763      5.174
REMARK  2 active torsions:
REMARK  status: ('A' for Active; 'I' for Inactive)
REMARK    1  A    between atoms: C4_4  and  C5_5 
REMARK    2  A    between atoms: C5_5  and  N1_7 
REMARK       I    between atoms: N1_7  and  C7_9 
ROOT
HETATM    1  C1  UNL     1      45.799  18.000  53.686  1.00  0.00     0.017 C 
HETATM    2  C2  UNL     1      45.489  18.548  52.658  1.00  0.00    -0.090 C 
HETATM    3  C3  UNL     1      45.133  19.196  51.402  1.00  0.00     0.061 C 
HETATM    4  C4  UNL     1      45.823  20.230  50.961  1.00  0.00     0.007 C 
ENDROOT
BRANCH   4   5
HETATM    5  C5  UNL     1      45.421  20.851  49.684  1.00  0.00     0.103 C 
HETATM    6  C6  UNL     1      44.012  20.359  49.377  1.00  0.00     0.036 C 
BRANCH   5   7
HETATM    7  N1  UNL     1      45.482  22.291  49.744  1.00  0.00    -0.354 N 
HETATM    8  C7  UNL     1      45.765  23.010  48.557  1.00  0.00     0.214 C 
HETATM    9  C8  UNL     1      45.827  24.497  48.617  1.00  0.00     0.117 C 
HETATM   10  O1  UNL     1      45.963  22.393  47.456  1.00  0.00    -0.274 OA
ATOM     11  H1  UNL     1      45.323  22.781  50.624  1.00  0.00     0.163 HD
ENDBRANCH   5   7
ENDBRANCH   4   5
TORSDOF 2
ENDMDL
