MODEL 1
REMARK VINA RESULT: -4.300898008      0.000      0.000
REMARK  2 active torsions:
REMARK  status: ('A' for Active; 'I' for Inactive)
REMARK    1  A    between atoms: C2_2  and  C3_3 
REMARK    2  A    between atoms: C5_5  and  C6_6 
ROOT
HETATM    1  C3  UNL     1      45.568  18.929  51.442  1.00  0.00     0.021 A 
HETATM    2  C4  UNL     1      44.260  18.594  50.845  1.00  0.00     0.023 A 
HETATM    3  C5  UNL     1      44.723  20.005  50.735  1.00  0.00     0.083 A 
ENDROOT
BRANCH   3   4
HETATM    4  C6  UNL     1      45.266  20.536  49.469  1.00  0.00     0.235 C 
HETATM    5  N1  UNL     1      46.085  21.697  49.518  1.00  0.00    -0.062 NA
HETATM    6  O1  UNL     1      45.056  20.035  48.351  1.00  0.00    -0.276 OA
ENDBRANCH   3   4
BRANCH   1   7
HETATM    7  C2  UNL     1      45.754  19.065  52.893  1.00  0.00    -0.031 C 
HETATM    8  C1  UNL     1      45.733  18.006  53.691  1.00  0.00     0.007 C 
ENDBRANCH   1   7
TORSDOF 2
ENDMDL
MODEL 2
REMARK VINA RESULT: -4.167428889      1.314      1.314
REMARK  2 active torsions:
REMARK  status: ('A' for Active; 'I' for Inactive)
REMARK    1  A    between atoms: C2_2  and  C3_3 
REMARK    2  A    between atoms: C5_5  and  C6_6 
ROOT
HETATM    1  C3  UNL     1      45.743  19.208  51.534  1.00  0.00     0.021 A 
HETATM    2  C4  UNL     1      44.488  19.132  50.762  1.00  0.00     0.023 A 
HETATM    3  C5  UNL     1      45.053  20.485  51.022  1.00  0.00     0.083 A 
ENDROOT
BRANCH   3   4
HETATM    4  C6  UNL     1      45.762  21.234  49.966  1.00  0.00     0.235 C 
HETATM    5  N1  UNL     1      45.408  20.994  48.611  1.00  0.00    -0.062 NA
HETATM    6  O1  UNL     1      46.658  22.069  50.181  1.00  0.00    -0.276 OA
ENDBRANCH   3   4
BRANCH   1   7
HETATM    7  C2  UNL     1      45.782  19.000  52.988  1.00  0.00    -0.031 C 
HETATM    8  C1  UNL     1      45.566  17.804  53.518  1.00  0.00     0.007 C 
ENDBRANCH   1   7
TORSDOF 2
ENDMDL
MODEL 3
REMARK VINA RESULT: -4.081210302      2.722      3.708
REMARK  2 active torsions:
REMARK  status: ('A' for Active; 'I' for Inactive)
REMARK    1  A    between atoms: C2_2  and  C3_3 
REMARK    2  A    between atoms: C5_5  and  C6_6 
ROOT
HETATM    1  C3  UNL     1      46.525  21.154  51.365  1.00  0.00     0.021 A 
HETATM    2  C4  UNL     1      45.800  20.982  52.638  1.00  0.00     0.023 A 
HETATM    3  C5  UNL     1      45.252  20.293  51.438  1.00  0.00     0.083 A 
ENDROOT
BRANCH   3   4
HETATM    4  C6  UNL     1      45.432  18.841  51.239  1.00  0.00     0.235 C 
HETATM    5  N1  UNL     1      45.224  17.975  52.347  1.00  0.00    -0.062 NA
HETATM    6  O1  UNL     1      45.756  18.316  50.160  1.00  0.00    -0.276 OA
ENDBRANCH   3   4
BRANCH   1   7
HETATM    7  C2  UNL     1      46.453  22.398  50.585  1.00  0.00    -0.031 C 
HETATM    8  C1  UNL     1      47.243  23.428  50.858  1.00  0.00     0.007 C 
ENDBRANCH   1   7
TORSDOF 2
ENDMDL
MODEL 4
REMARK VINA RESULT: -4.051921654      1.070      1.348
REMARK  2 active torsions:
REMARK  status: ('A' for Active; 'I' for Inactive)
REMARK    1  A    between atoms: C2_2  and  C3_3 
REMARK    2  A    between atoms: C5_5  and  C6_6 
ROOT
HETATM    1  C3  UNL     1      45.228  19.577  51.813  1.00  0.00     0.021 A 
HETATM    2  C4  UNL     1      46.456  20.324  51.481  1.00  0.00     0.023 A 
HETATM    3  C5  UNL     1      45.720  19.681  50.358  1.00  0.00     0.083 A 
ENDROOT
BRANCH   3   4
HETATM    4  C6  UNL     1      44.881  20.474  49.438  1.00  0.00     0.235 C 
HETATM    5  N1  UNL     1      45.410  21.684  48.912  1.00  0.00    -0.062 NA
HETATM    6  O1  UNL     1      43.732  20.155  49.088  1.00  0.00    -0.276 OA
ENDBRANCH   3   4
BRANCH   1   7
HETATM    7  C2  UNL     1      45.265  18.249  52.443  1.00  0.00    -0.031 C 
HETATM    8  C1  UNL     1      45.688  18.092  53.690  1.00  0.00     0.007 C 
ENDBRANCH   1   7
TORSDOF 2
ENDMDL
MODEL 5
REMARK VINA RESULT: -3.991494988      2.664      3.521
REMARK  2 active torsions:
REMARK  status: ('A' for Active; 'I' for Inactive)
REMARK    1  A    between atoms: C2_2  and  C3_3 
REMARK    2  A    between atoms: C5_5  and  C6_6 
ROOT
HETATM    1  C3  UNL     1      44.920  21.374  51.316  1.00  0.00     0.021 A 
HETATM    2  C4  UNL     1      46.060  21.346  50.379  1.00  0.00     0.023 A 
HETATM    3  C5  UNL     1      46.050  20.341  51.478  1.00  0.00     0.083 A 
ENDROOT
BRANCH   3   4
HETATM    4  C6  UNL     1      45.690  18.932  51.224  1.00  0.00     0.235 C 
HETATM    5  N1  UNL     1      45.241  18.140  52.315  1.00  0.00    -0.062 NA
HETATM    6  O1  UNL     1      45.752  18.383  50.110  1.00  0.00    -0.276 OA
ENDBRANCH   3   4
BRANCH   1   7
HETATM    7  C2  UNL     1      44.791  22.399  52.361  1.00  0.00    -0.031 C 
HETATM    8  C1  UNL     1      43.829  23.312  52.314  1.00  0.00     0.007 C 
ENDBRANCH   1   7
TORSDOF 2
ENDMDL
