MODEL 1
REMARK VINA RESULT: -4.281077213      0.000      0.000
REMARK  2 active torsions:
REMARK  status: ('A' for Active; 'I' for Inactive)
REMARK    1  A    between atoms: C4_4  and  N1_5 
REMARK    2  A    between atoms: N1_5  and  C7_8 
ROOT
HETATM    1  N1  UNL     1      45.191  21.354  51.009  1.00  0.00    -0.037 N 
HETATM    2  C5  UNL     1      46.617  21.635  51.046  1.00  0.00     0.280 C 
HETATM    3  C6  UNL     1      44.527  22.408  51.726  1.00  0.00     0.280 C 
ENDROOT
BRANCH   1   4
HETATM    4  C4  UNL     1      44.982  20.050  51.571  1.00  0.00     0.200 A 
HETATM    5  C2  UNL     1      46.035  19.287  52.251  1.00  0.00     0.015 A 
HETATM    6  C1  UNL     1      45.607  18.240  53.266  1.00  0.00     0.012 C 
HETATM    7  C3  UNL     1      45.666  18.928  50.828  1.00  0.00     0.040 A 
ENDBRANCH   1   4
BRANCH   1   8
HETATM    8  C7  UNL     1      44.764  21.430  49.644  1.00  0.00     0.286 C 
HETATM    9  N2  UNL     1      43.535  21.623  49.363  1.00  0.00    -0.389 N 
ATOM     10  H22 UNL     1      42.866  21.724  50.126  1.00  0.00     0.156 HD
ATOM     11  H21 UNL     1      43.232  21.677  48.390  1.00  0.00     0.156 HD
ENDBRANCH   1   8
TORSDOF 2
ENDMDL
MODEL 2
REMARK VINA RESULT: -4.240374170      0.779      1.285
REMARK  2 active torsions:
REMARK  status: ('A' for Active; 'I' for Inactive)
REMARK    1  A    between atoms: C4_4  and  N1_5 
REMARK    2  A    between atoms: N1_5  and  C7_8 
ROOT
HETATM    1  N1  UNL     1      45.230  21.056  50.543  1.00  0.00    -0.037 N 
HETATM    2  C5  UNL     1      45.341  20.318  49.296  1.00  0.00     0.280 C 
HETATM    3  C6  UNL     1      46.466  21.764  50.735  1.00  0.00     0.280 C 
ENDROOT
BRANCH   1   4
HETATM    4  C4  UNL     1      44.932  20.118  51.588  1.00  0.00     0.200 A 
HETATM    5  C2  UNL     1      45.817  19.005  51.949  1.00  0.00     0.015 A 
HETATM    6  C1  UNL     1      45.716  18.450  53.361  1.00  0.00     0.012 C 
HETATM    7  C3  UNL     1      44.591  18.728  51.107  1.00  0.00     0.040 A 
ENDBRANCH   1   4
BRANCH   1   8
HETATM    8  C7  UNL     1      44.196  22.035  50.384  1.00  0.00     0.286 C 
HETATM    9  N2  UNL     1      43.466  22.036  49.339  1.00  0.00    -0.389 N 
ATOM     10  H22 UNL     1      43.632  21.329  48.622  1.00  0.00     0.156 HD
ATOM     11  H21 UNL     1      42.730  22.733  49.225  1.00  0.00     0.156 HD
ENDBRANCH   1   8
TORSDOF 2
ENDMDL
MODEL 3
REMARK VINA RESULT: -4.237629570      1.142      1.190
REMARK  2 active torsions:
REMARK  status: ('A' for Active; 'I' for Inactive)
REMARK    1  A    between atoms: C4_4  and  N1_5 
REMARK    2  A    between atoms: N1_5  and  C7_8 
ROOT
HETATM    1  N1  UNL     1      45.157  20.948  50.504  1.00  0.00    -0.037 N 
HETATM    2  C5  UNL     1      46.425  21.596  50.798  1.00  0.00     0.280 C 
HETATM    3  C6  UNL     1      44.169  21.980  50.360  1.00  0.00     0.280 C 
ENDROOT
BRANCH   1   4
HETATM    4  C4  UNL     1      44.877  20.022  51.564  1.00  0.00     0.200 A 
HETATM    5  C2  UNL     1      45.753  18.894  51.902  1.00  0.00     0.015 A 
HETATM    6  C1  UNL     1      45.690  18.349  53.320  1.00  0.00     0.012 C 
HETATM    7  C3  UNL     1      44.494  18.636  51.104  1.00  0.00     0.040 A 
ENDBRANCH   1   4
BRANCH   1   8
HETATM    8  C7  UNL     1      45.283  20.294  49.235  1.00  0.00     0.286 C 
HETATM    9  N2  UNL     1      45.681  20.943  48.213  1.00  0.00    -0.389 N 
ATOM     10  H22 UNL     1      45.908  21.933  48.316  1.00  0.00     0.156 HD
ATOM     11  H21 UNL     1      45.771  20.478  47.309  1.00  0.00     0.156 HD
ENDBRANCH   1   8
TORSDOF 2
ENDMDL
MODEL 4
REMARK VINA RESULT: -4.027964660      1.266      2.405
REMARK  2 active torsions:
REMARK  status: ('A' for Active; 'I' for Inactive)
REMARK    1  A    between atoms: C4_4  and  N1_5 
REMARK    2  A    between atoms: N1_5  and  C7_8 
ROOT
HETATM    1  N1  UNL     1      45.626  21.611  51.666  1.00  0.00    -0.037 N 
HETATM    2  C5  UNL     1      44.465  22.475  51.801  1.00  0.00     0.280 C 
HETATM    3  C6  UNL     1      46.176  21.832  50.357  1.00  0.00     0.280 C 
ENDROOT
BRANCH   1   4
HETATM    4  C4  UNL     1      45.201  20.259  51.895  1.00  0.00     0.200 A 
HETATM    5  C2  UNL     1      46.093  19.209  52.400  1.00  0.00     0.015 A 
HETATM    6  C1  UNL     1      45.460  18.033  53.126  1.00  0.00     0.012 C 
HETATM    7  C3  UNL     1      45.765  19.250  50.924  1.00  0.00     0.040 A 
ENDBRANCH   1   4
BRANCH   1   8
HETATM    8  C7  UNL     1      46.605  22.040  52.620  1.00  0.00     0.286 C 
HETATM    9  N2  UNL     1      46.246  22.442  53.775  1.00  0.00    -0.389 N 
ATOM     10  H22 UNL     1      45.252  22.453  54.005  1.00  0.00     0.156 HD
ATOM     11  H21 UNL     1      46.943  22.747  54.454  1.00  0.00     0.156 HD
ENDBRANCH   1   8
TORSDOF 2
ENDMDL
MODEL 5
REMARK VINA RESULT: -3.942497117      0.879      1.913
REMARK  2 active torsions:
REMARK  status: ('A' for Active; 'I' for Inactive)
REMARK    1  A    between atoms: C4_4  and  N1_5 
REMARK    2  A    between atoms: N1_5  and  C7_8 
ROOT
HETATM    1  N1  UNL     1      45.360  21.433  51.166  1.00  0.00    -0.037 N 
HETATM    2  C5  UNL     1      45.010  21.536  49.758  1.00  0.00     0.280 C 
HETATM    3  C6  UNL     1      46.751  21.769  51.288  1.00  0.00     0.280 C 
ENDROOT
BRANCH   1   4
HETATM    4  C4  UNL     1      45.045  20.102  51.604  1.00  0.00     0.200 A 
HETATM    5  C2  UNL     1      46.022  19.211  52.239  1.00  0.00     0.015 A 
HETATM    6  C1  UNL     1      45.491  18.112  53.146  1.00  0.00     0.012 C 
HETATM    7  C3  UNL     1      45.675  19.004  50.781  1.00  0.00     0.040 A 
ENDBRANCH   1   4
BRANCH   1   8
HETATM    8  C7  UNL     1      44.614  22.427  51.877  1.00  0.00     0.286 C 
HETATM    9  N2  UNL     1      45.008  22.833  53.020  1.00  0.00    -0.389 N 
ATOM     10  H22 UNL     1      45.861  22.437  53.415  1.00  0.00     0.156 HD
ATOM     11  H21 UNL     1      44.476  23.541  53.527  1.00  0.00     0.156 HD
ENDBRANCH   1   8
TORSDOF 2
ENDMDL
