MODEL 1
REMARK VINA RESULT: -4.186370518      0.000      0.000
REMARK  1 active torsions:
REMARK  status: ('A' for Active; 'I' for Inactive)
REMARK    1  A    between atoms: C2_2  and  C3_3 
ROOT
HETATM    1  C3  UNL     1      45.599  19.269  51.426  1.00  0.00     0.059 C 
HETATM    2  C4  UNL     1      44.432  19.662  50.506  1.00  0.00     0.247 C 
HETATM    3  N1  UNL     1      44.886  21.018  50.657  1.00  0.00    -0.066 N 
HETATM    4  C5  UNL     1      45.795  21.472  49.663  1.00  0.00     0.239 C 
HETATM    5  C6  UNL     1      44.942  22.743  49.555  1.00  0.00     0.056 C 
HETATM    6  C7  UNL     1      43.958  22.067  50.524  1.00  0.00     0.239 C 
HETATM    7  C8  UNL     1      45.402  20.698  51.955  1.00  0.00     0.247 C 
ENDROOT
BRANCH   1   8
HETATM    8  C2  UNL     1      45.204  18.202  52.348  1.00  0.00    -0.029 C 
HETATM    9  C1  UNL     1      45.781  18.124  53.536  1.00  0.00     0.007 C 
ENDBRANCH   1   8
TORSDOF 1
ENDMDL
MODEL 2
REMARK VINA RESULT: -3.958971499      0.902      1.689
REMARK  1 active torsions:
REMARK  status: ('A' for Active; 'I' for Inactive)
REMARK    1  A    between atoms: C2_2  and  C3_3 
ROOT
HETATM    1  C3  UNL     1      44.539  19.888  50.719  1.00  0.00     0.059 C 
HETATM    2  C4  UNL     1      45.031  21.188  51.375  1.00  0.00     0.247 C 
HETATM    3  N1  UNL     1      45.037  21.750  50.052  1.00  0.00    -0.066 N 
HETATM    4  C5  UNL     1      43.844  22.421  49.668  1.00  0.00     0.239 C 
HETATM    5  C6  UNL     1      44.729  23.569  49.163  1.00  0.00     0.056 C 
HETATM    6  C7  UNL     1      45.920  22.807  49.764  1.00  0.00     0.239 C 
HETATM    7  C8  UNL     1      45.293  20.452  49.504  1.00  0.00     0.247 C 
ENDROOT
BRANCH   1   8
HETATM    8  C2  UNL     1      45.153  18.718  51.347  1.00  0.00    -0.029 C 
HETATM    9  C1  UNL     1      45.608  18.809  52.586  1.00  0.00     0.007 C 
ENDBRANCH   1   8
TORSDOF 1
ENDMDL
MODEL 3
REMARK VINA RESULT: -3.934822955      0.949      4.089
REMARK  1 active torsions:
REMARK  status: ('A' for Active; 'I' for Inactive)
REMARK    1  A    between atoms: C2_2  and  C3_3 
ROOT
HETATM    1  C3  UNL     1      44.447  22.007  49.778  1.00  0.00     0.059 C 
HETATM    2  C4  UNL     1      45.688  21.110  49.635  1.00  0.00     0.247 C 
HETATM    3  N1  UNL     1      45.284  20.506  50.875  1.00  0.00    -0.066 N 
HETATM    4  C5  UNL     1      44.463  19.351  50.753  1.00  0.00     0.239 C 
HETATM    5  C6  UNL     1      45.377  18.672  51.782  1.00  0.00     0.056 C 
HETATM    6  C7  UNL     1      46.264  19.924  51.701  1.00  0.00     0.239 C 
HETATM    7  C8  UNL     1      44.672  21.737  51.274  1.00  0.00     0.247 C 
ENDROOT
BRANCH   1   8
HETATM    8  C2  UNL     1      44.734  23.374  49.340  1.00  0.00    -0.029 C 
HETATM    9  C1  UNL     1      45.713  23.587  48.475  1.00  0.00     0.007 C 
ENDBRANCH   1   8
TORSDOF 1
ENDMDL
MODEL 4
REMARK VINA RESULT: -3.854261909      1.208      1.254
REMARK  1 active torsions:
REMARK  status: ('A' for Active; 'I' for Inactive)
REMARK    1  A    between atoms: C2_2  and  C3_3 
ROOT
HETATM    1  C3  UNL     1      46.148  19.741  52.011  1.00  0.00     0.059 C 
HETATM    2  C4  UNL     1      45.790  20.236  50.600  1.00  0.00     0.247 C 
HETATM    3  N1  UNL     1      45.847  21.564  51.147  1.00  0.00    -0.066 N 
HETATM    4  C5  UNL     1      47.105  22.217  51.033  1.00  0.00     0.239 C 
HETATM    5  C6  UNL     1      46.345  23.452  50.528  1.00  0.00     0.056 C 
HETATM    6  C7  UNL     1      45.078  22.581  50.551  1.00  0.00     0.239 C 
HETATM    7  C8  UNL     1      45.461  21.051  52.427  1.00  0.00     0.247 C 
ENDROOT
BRANCH   1   8
HETATM    8  C2  UNL     1      45.415  18.518  52.341  1.00  0.00    -0.029 C 
HETATM    9  C1  UNL     1      45.594  17.952  53.523  1.00  0.00     0.007 C 
ENDBRANCH   1   8
TORSDOF 1
ENDMDL
MODEL 5
REMARK VINA RESULT: -3.853484133      1.179      4.186
REMARK  1 active torsions:
REMARK  status: ('A' for Active; 'I' for Inactive)
REMARK    1  A    between atoms: C2_2  and  C3_3 
ROOT
HETATM    1  C3  UNL     1      46.010  22.516  50.093  1.00  0.00     0.059 C 
HETATM    2  C4  UNL     1      44.870  21.989  50.979  1.00  0.00     0.247 C 
HETATM    3  N1  UNL     1      45.236  20.678  50.518  1.00  0.00    -0.066 N 
HETATM    4  C5  UNL     1      46.165  19.980  51.337  1.00  0.00     0.239 C 
HETATM    5  C6  UNL     1      45.245  18.756  51.226  1.00  0.00     0.056 C 
HETATM    6  C7  UNL     1      44.256  19.668  50.484  1.00  0.00     0.239 C 
HETATM    7  C8  UNL     1      45.704  21.243  49.288  1.00  0.00     0.247 C 
ENDROOT
BRANCH   1   8
HETATM    8  C2  UNL     1      45.633  23.772  49.443  1.00  0.00    -0.029 C 
HETATM    9  C1  UNL     1      45.686  23.862  48.123  1.00  0.00     0.007 C 
ENDBRANCH   1   8
TORSDOF 1
ENDMDL
