MODEL 1
REMARK VINA RESULT: -6.312747632      0.000      0.000
REMARK  2 active torsions:
REMARK  status: ('A' for Active; 'I' for Inactive)
REMARK    1  A    between atoms: C2_2  and  C3_4 
REMARK    2  A    between atoms: C5_6  and  C6_8 
ROOT
HETATM    1  C3  UNL     1       2.727  27.740 117.800  1.00  0.00     0.065 C 
HETATM    2  C4  UNL     1       3.230  26.777 116.826  1.00  0.00     0.043 C 
HETATM    3  C5  UNL     1       4.144  25.631 117.143  1.00  0.00     0.083 C 
HETATM    4 CL1  UNL     1       3.056  24.240 117.672  1.00  0.00    -0.115 Cl
HETATM    5  C7  UNL     1       5.123  25.835 118.170  1.00  0.00     0.129 C 
HETATM    6  F1  UNL     1       4.285  25.565 119.325  1.00  0.00    -0.240 F 
HETATM    7  C8  UNL     1       6.246  25.008 118.575  1.00  0.00     0.047 C 
HETATM    8  C9  UNL     1       6.585  25.408 120.045  1.00  0.00     0.013 C 
HETATM    9  C10 UNL     1       7.287  26.687 120.190  1.00  0.00    -0.035 A 
HETATM   10  C11 UNL     1       8.788  26.467 120.539  1.00  0.00     0.016 C 
HETATM   11  C12 UNL     1       6.864  28.067 120.265  1.00  0.00    -0.001 A 
HETATM   12  C13 UNL     1       5.584  28.694 120.645  1.00  0.00     0.006 C 
HETATM   13  C14 UNL     1       5.073  29.865 119.792  1.00  0.00     0.001 C 
HETATM   14  C15 UNL     1       3.641  29.626 119.283  1.00  0.00     0.010 C 
HETATM   15  C16 UNL     1       3.484  29.080 117.895  1.00  0.00    -0.034 C 
HETATM   16  C17 UNL     1       2.568  30.105 117.217  1.00  0.00     0.016 C 
HETATM   17  C18 UNL     1       4.676  29.135 117.024  1.00  0.00     0.010 C 
HETATM   18  C19 UNL     1       5.736  28.114 117.099  1.00  0.00     0.009 C 
HETATM   19  C20 UNL     1       5.738  27.210 118.252  1.00  0.00     0.033 C 
HETATM   20  C21 UNL     1       7.024  27.387 118.965  1.00  0.00     0.006 A 
ENDROOT
BRANCH   1  21
HETATM   21  C2  UNL     1       1.264  27.968 117.577  1.00  0.00     0.128 C 
HETATM   22  C1  UNL     1       0.509  27.684 116.344  1.00  0.00     0.091 C 
HETATM   23  O1  UNL     1       0.585  28.441 118.504  1.00  0.00    -0.298 OA
ENDBRANCH   1  21
BRANCH   3  24
HETATM   24  C6  UNL     1       4.571  25.088 115.781  1.00  0.00     0.115 C 
HETATM   25  S1  UNL     1       3.285  25.141 114.553  1.00  0.00    -0.096 SA
ENDBRANCH   3  24
TORSDOF 2
ENDMDL
MODEL 2
REMARK VINA RESULT: -6.217508835      3.200      6.291
REMARK  2 active torsions:
REMARK  status: ('A' for Active; 'I' for Inactive)
REMARK    1  A    between atoms: C2_2  and  C3_4 
REMARK    2  A    between atoms: C5_6  and  C6_8 
ROOT
HETATM    1  C3  UNL     1       3.893  26.002 115.677  1.00  0.00     0.065 C 
HETATM    2  C4  UNL     1       3.355  24.798 115.053  1.00  0.00     0.043 C 
HETATM    3  C5  UNL     1       2.217  24.772 114.075  1.00  0.00     0.083 C 
HETATM    4 CL1  UNL     1       2.961  25.070 112.415  1.00  0.00    -0.115 Cl
HETATM    5  C7  UNL     1       1.167  25.728 114.262  1.00  0.00     0.129 C 
HETATM    6  F1  UNL     1       1.788  26.863 113.601  1.00  0.00    -0.240 F 
HETATM    7  C8  UNL     1      -0.129  25.840 113.616  1.00  0.00     0.047 C 
HETATM    8  C9  UNL     1      -0.576  27.327 113.772  1.00  0.00     0.013 C 
HETATM    9  C10 UNL     1      -1.051  27.691 115.111  1.00  0.00    -0.035 A 
HETATM   10  C11 UNL     1      -2.599  27.850 115.134  1.00  0.00     0.016 C 
HETATM   11  C12 UNL     1      -0.401  28.108 116.333  1.00  0.00    -0.001 A 
HETATM   12  C13 UNL     1       0.911  28.728 116.597  1.00  0.00     0.006 C 
HETATM   13  C14 UNL     1       1.730  28.205 117.788  1.00  0.00     0.001 C 
HETATM   14  C15 UNL     1       3.149  27.782 117.371  1.00  0.00     0.010 C 
HETATM   15  C16 UNL     1       3.383  26.326 117.096  1.00  0.00    -0.034 C 
HETATM   16  C17 UNL     1       4.547  25.976 118.029  1.00  0.00     0.016 C 
HETATM   17  C18 UNL     1       2.342  25.389 117.565  1.00  0.00     0.010 C 
HETATM   18  C19 UNL     1       1.116  25.142 116.787  1.00  0.00     0.009 C 
HETATM   19  C20 UNL     1       0.803  26.060 115.688  1.00  0.00     0.033 C 
HETATM   20  C21 UNL     1      -0.511  26.681 115.975  1.00  0.00     0.006 A 
ENDROOT
BRANCH   1  21
HETATM   21  C2  UNL     1       5.389  25.964 115.643  1.00  0.00     0.128 C 
HETATM   22  C1  UNL     1       6.233  24.774 115.432  1.00  0.00     0.091 C 
HETATM   23  O1  UNL     1       6.018  27.024 115.805  1.00  0.00    -0.298 OA
ENDBRANCH   1  21
BRANCH   3  24
HETATM   24  C6  UNL     1       1.879  23.290 113.916  1.00  0.00     0.115 C 
HETATM   25  S1  UNL     1       2.197  22.653 112.286  1.00  0.00    -0.096 SA
ENDBRANCH   3  24
TORSDOF 2
ENDMDL
MODEL 3
REMARK VINA RESULT: -6.054225996      2.688      5.555
REMARK  2 active torsions:
REMARK  status: ('A' for Active; 'I' for Inactive)
REMARK    1  A    between atoms: C2_2  and  C3_4 
REMARK    2  A    between atoms: C5_6  and  C6_8 
ROOT
HETATM    1  C3  UNL     1       3.520  27.947 117.140  1.00  0.00     0.065 C 
HETATM    2  C4  UNL     1       4.179  26.725 117.590  1.00  0.00     0.043 C 
HETATM    3  C5  UNL     1       4.496  25.548 116.716  1.00  0.00     0.083 C 
HETATM    4 CL1  UNL     1       6.126  25.914 115.936  1.00  0.00    -0.115 Cl
HETATM    5  C7  UNL     1       3.570  25.238 115.668  1.00  0.00     0.129 C 
HETATM    6  F1  UNL     1       4.045  26.183 114.672  1.00  0.00    -0.240 F 
HETATM    7  C8  UNL     1       3.496  24.084 114.789  1.00  0.00     0.047 C 
HETATM    8  C9  UNL     1       2.699  24.537 113.526  1.00  0.00     0.013 C 
HETATM    9  C10 UNL     1       1.250  24.663 113.722  1.00  0.00    -0.035 A 
HETATM   10  C11 UNL     1       0.488  23.488 113.043  1.00  0.00     0.016 C 
HETATM   11  C12 UNL     1       0.388  25.706 114.230  1.00  0.00    -0.001 A 
HETATM   12  C13 UNL     1       0.560  27.166 114.348  1.00  0.00     0.006 C 
HETATM   13  C14 UNL     1       0.094  27.845 115.645  1.00  0.00     0.001 C 
HETATM   14  C15 UNL     1       1.211  28.681 116.293  1.00  0.00     0.010 C 
HETATM   15  C16 UNL     1       2.002  28.042 117.395  1.00  0.00    -0.034 C 
HETATM   16  C17 UNL     1       1.852  29.032 118.554  1.00  0.00     0.016 C 
HETATM   17  C18 UNL     1       1.436  26.812 117.987  1.00  0.00     0.010 C 
HETATM   18  C19 UNL     1       1.616  25.494 117.352  1.00  0.00     0.009 C 
HETATM   19  C20 UNL     1       2.108  25.458 115.973  1.00  0.00     0.033 C 
HETATM   20  C21 UNL     1       1.086  24.780 115.144  1.00  0.00     0.006 A 
ENDROOT
BRANCH   1  21
HETATM   21  C2  UNL     1       4.230  29.140 117.700  1.00  0.00     0.128 C 
HETATM   22  C1  UNL     1       4.758  29.286 119.068  1.00  0.00     0.091 C 
HETATM   23  O1  UNL     1       4.413  30.126 116.965  1.00  0.00    -0.298 OA
ENDBRANCH   1  21
BRANCH   3  24
HETATM   24  C6  UNL     1       4.942  24.455 117.686  1.00  0.00     0.115 C 
HETATM   25  S1  UNL     1       6.698  24.418 117.966  1.00  0.00    -0.096 SA
ENDBRANCH   3  24
TORSDOF 2
ENDMDL
MODEL 4
REMARK VINA RESULT: -5.958057434      3.360      6.038
REMARK  2 active torsions:
REMARK  status: ('A' for Active; 'I' for Inactive)
REMARK    1  A    between atoms: C2_2  and  C3_4 
REMARK    2  A    between atoms: C5_6  and  C6_8 
ROOT
HETATM    1  C3  UNL     1       9.121  25.113 119.225  1.00  0.00     0.065 C 
HETATM    2  C4  UNL     1       8.407  23.850 119.065  1.00  0.00     0.043 C 
HETATM    3  C5  UNL     1       7.311  23.602 118.072  1.00  0.00     0.083 C 
HETATM    4 CL1  UNL     1       8.145  23.110 116.502  1.00  0.00    -0.115 Cl
HETATM    5  C7  UNL     1       6.432  24.694 117.776  1.00  0.00     0.129 C 
HETATM    6  F1  UNL     1       7.254  25.374 116.790  1.00  0.00    -0.240 F 
HETATM    7  C8  UNL     1       5.194  24.725 117.017  1.00  0.00     0.047 C 
HETATM    8  C9  UNL     1       4.998  26.199 116.546  1.00  0.00     0.013 C 
HETATM    9  C10 UNL     1       4.551  27.127 117.590  1.00  0.00    -0.035 A 
HETATM   10  C11 UNL     1       3.052  27.502 117.404  1.00  0.00     0.016 C 
HETATM   11  C12 UNL     1       5.225  27.896 118.612  1.00  0.00    -0.001 A 
HETATM   12  C13 UNL     1       6.614  28.375 118.739  1.00  0.00     0.006 C 
HETATM   13  C14 UNL     1       7.297  28.255 120.110  1.00  0.00     0.001 C 
HETATM   14  C15 UNL     1       8.636  27.504 120.024  1.00  0.00     0.010 C 
HETATM   15  C16 UNL     1       8.630  26.041 120.355  1.00  0.00    -0.034 C 
HETATM   16  C17 UNL     1       9.690  25.926 121.455  1.00  0.00     0.016 C 
HETATM   17  C18 UNL     1       7.433  25.525 121.049  1.00  0.00     0.010 C 
HETATM   18  C19 UNL     1       6.207  25.168 120.314  1.00  0.00     0.009 C 
HETATM   19  C20 UNL     1       6.086  25.611 118.923  1.00  0.00     0.033 C 
HETATM   20  C21 UNL     1       4.887  26.475 118.824  1.00  0.00     0.006 A 
ENDROOT
BRANCH   1  21
HETATM   21  C2  UNL     1      10.590  24.851 119.349  1.00  0.00     0.128 C 
HETATM   22  C1  UNL     1      11.232  23.548 119.594  1.00  0.00     0.091 C 
HETATM   23  O1  UNL     1      11.378  25.805 119.239  1.00  0.00    -0.298 OA
ENDBRANCH   1  21
BRANCH   3  24
HETATM   24  C6  UNL     1       6.734  22.243 118.464  1.00  0.00     0.115 C 
HETATM   25  S1  UNL     1       7.942  20.940 118.523  1.00  0.00    -0.096 SA
ENDBRANCH   3  24
TORSDOF 2
ENDMDL
MODEL 5
REMARK VINA RESULT: -5.927240917      3.279      5.404
REMARK  2 active torsions:
REMARK  status: ('A' for Active; 'I' for Inactive)
REMARK    1  A    between atoms: C2_2  and  C3_4 
REMARK    2  A    between atoms: C5_6  and  C6_8 
ROOT
HETATM    1  C3  UNL     1       1.737  26.181 113.466  1.00  0.00     0.065 C 
HETATM    2  C4  UNL     1       0.575  26.092 114.344  1.00  0.00     0.043 C 
HETATM    3  C5  UNL     1       0.501  26.659 115.731  1.00  0.00     0.083 C 
HETATM    4 CL1  UNL     1      -0.019  28.417 115.538  1.00  0.00    -0.115 Cl
HETATM    5  C7  UNL     1       1.700  26.641 116.514  1.00  0.00     0.129 C 
HETATM    6  F1  UNL     1       2.320  27.845 115.990  1.00  0.00    -0.240 F 
HETATM    7  C8  UNL     1       1.909  26.938 117.921  1.00  0.00     0.047 C 
HETATM    8  C9  UNL     1       3.415  27.316 118.077  1.00  0.00     0.013 C 
HETATM    9  C10 UNL     1       4.344  26.181 118.029  1.00  0.00    -0.035 A 
HETATM   10  C11 UNL     1       4.900  25.851 119.444  1.00  0.00     0.016 C 
HETATM   11  C12 UNL     1       4.984  25.446 116.961  1.00  0.00    -0.001 A 
HETATM   12  C13 UNL     1       5.290  25.793 115.561  1.00  0.00     0.006 C 
HETATM   13  C14 UNL     1       5.032  24.732 114.481  1.00  0.00     0.001 C 
HETATM   14  C15 UNL     1       4.133  25.265 113.352  1.00  0.00     0.010 C 
HETATM   15  C16 UNL     1       2.668  24.952 113.431  1.00  0.00    -0.034 C 
HETATM   16  C17 UNL     1       2.382  24.273 112.087  1.00  0.00     0.016 C 
HETATM   17  C18 UNL     1       2.268  23.896 114.382  1.00  0.00     0.010 C 
HETATM   18  C19 UNL     1       2.089  24.174 115.818  1.00  0.00     0.009 C 
HETATM   19  C20 UNL     1       2.602  25.444 116.339  1.00  0.00     0.033 C 
HETATM   20  C21 UNL     1       3.605  25.133 117.384  1.00  0.00     0.006 A 
ENDROOT
BRANCH   1  21
HETATM   21  C2  UNL     1       1.299  26.559 112.085  1.00  0.00     0.128 C 
HETATM   22  C1  UNL     1       0.057  26.140 111.412  1.00  0.00     0.091 C 
HETATM   23  O1  UNL     1       2.031  27.301 111.408  1.00  0.00    -0.298 OA
ENDBRANCH   1  21
BRANCH   3  24
HETATM   24  C6  UNL     1      -0.796  26.095 116.309  1.00  0.00     0.115 C 
HETATM   25  S1  UNL     1      -1.985  25.620 115.075  1.00  0.00    -0.096 SA
ENDBRANCH   3  24
TORSDOF 2
ENDMDL
