MODEL 1
REMARK VINA RESULT: -9.842996493      0.000      0.000
REMARK  3 active torsions:
REMARK  status: ('A' for Active; 'I' for Inactive)
REMARK    1  A    between atoms: C5_5  and  C6_6 
REMARK    2  A    between atoms: C6_6  and  C9_9 
REMARK    3  A    between atoms: C9_9  and  N1_10 
ROOT
HETATM    1  N1  UNL     1      10.444  22.809 119.156  1.00  0.00    -0.350 N 
HETATM    2  C10 UNL     1       9.892  21.446 119.473  1.00  0.00     0.204 C 
HETATM    3  C11 UNL     1      10.875  20.371 119.443  1.00  0.00     0.095 C 
HETATM    4  N2  UNL     1      10.472  19.225 119.004  1.00  0.00    -0.387 N 
ATOM      5  H21 UNL     1      11.161  18.472 118.983  1.00  0.00     0.157 HD
ATOM      6  H22 UNL     1       9.506  19.104 118.702  1.00  0.00     0.157 HD
HETATM    7  N3  UNL     1      12.214  20.539 119.862  1.00  0.00    -0.338 N 
HETATM    8  C12 UNL     1      13.071  19.455 120.236  1.00  0.00     0.158 C 
HETATM    9  C13 UNL     1      12.639  21.896 119.899  1.00  0.00     0.066 A 
HETATM   10  C14 UNL     1      13.978  22.096 120.273  1.00  0.00     0.056 A 
HETATM   11  C15 UNL     1      14.516  23.362 120.316  1.00  0.00     0.037 A 
HETATM   12 CL1  UNL     1      16.168  23.603 120.778  1.00  0.00    -0.084 Cl
HETATM   13  C16 UNL     1      13.674  24.378 119.977  1.00  0.00     0.050 A 
HETATM   14  C17 UNL     1      12.345  24.188 119.606  1.00  0.00     0.064 A 
HETATM   15 CL2  UNL     1      11.494  25.581 119.162  1.00  0.00    -0.082 Cl
HETATM   16  C18 UNL     1      11.803  22.940 119.564  1.00  0.00     0.083 A 
ENDROOT
BRANCH   1  17
HETATM   17  C9  UNL     1       9.626  23.732 118.479  1.00  0.00     0.074 C 
BRANCH  17  18
HETATM   18  C6  UNL     1       8.207  23.403 118.122  1.00  0.00    -0.012 C 
HETATM   19  C7  UNL     1       7.771  22.006 117.965  1.00  0.00     0.021 C 
HETATM   20  C8  UNL     1       7.848  23.946 116.689  1.00  0.00     0.021 C 
BRANCH  18  21
HETATM   21  C5  UNL     1       7.287  24.293 118.922  1.00  0.00    -0.001 C 
HETATM   22  C4  UNL     1       6.411  25.253 118.279  1.00  0.00     0.006 C 
HETATM   23  C3  UNL     1       5.862  26.064 119.442  1.00  0.00     0.005 C 
HETATM   24  C2  UNL     1       7.059  26.257 120.311  1.00  0.00    -0.018 C 
HETATM   25  C1  UNL     1       7.672  27.633 120.068  1.00  0.00     0.010 C 
HETATM   26  C19 UNL     1       8.033  25.174 119.912  1.00  0.00     0.010 C 
ENDBRANCH  18  21
ENDBRANCH  17  18
ENDBRANCH   1  17
TORSDOF 3
ENDMDL
MODEL 2
REMARK VINA RESULT: -9.510320445      2.389      6.901
REMARK  3 active torsions:
REMARK  status: ('A' for Active; 'I' for Inactive)
REMARK    1  A    between atoms: C5_5  and  C6_6 
REMARK    2  A    between atoms: C6_6  and  C9_9 
REMARK    3  A    between atoms: C9_9  and  N1_10 
ROOT
HETATM    1  N1  UNL     1      12.832  23.321 119.684  1.00  0.00    -0.350 N 
HETATM    2  C10 UNL     1      12.950  21.931 119.121  1.00  0.00     0.204 C 
HETATM    3  C11 UNL     1      11.819  21.060 119.412  1.00  0.00     0.095 C 
HETATM    4  N2  UNL     1      12.082  19.813 119.623  1.00  0.00    -0.387 N 
ATOM      5  H21 UNL     1      11.290  19.203 119.827  1.00  0.00     0.157 HD
ATOM      6  H22 UNL     1      13.044  19.479 119.580  1.00  0.00     0.157 HD
HETATM    7  N3  UNL     1      10.485  21.523 119.472  1.00  0.00    -0.338 N 
HETATM    8  C12 UNL     1       9.342  20.672 119.340  1.00  0.00     0.158 C 
HETATM    9  C13 UNL     1      10.372  22.929 119.658  1.00  0.00     0.066 A 
HETATM   10  C14 UNL     1       9.060  23.418 119.763  1.00  0.00     0.056 A 
HETATM   11  C15 UNL     1       8.821  24.756 119.976  1.00  0.00     0.037 A 
HETATM   12 CL1  UNL     1       7.200  25.354 120.104  1.00  0.00    -0.084 Cl
HETATM   13  C16 UNL     1       9.925  25.549 120.076  1.00  0.00     0.050 A 
HETATM   14  C17 UNL     1      11.230  25.072 119.973  1.00  0.00     0.064 A 
HETATM   15 CL2  UNL     1      12.455  26.217 120.192  1.00  0.00    -0.082 Cl
HETATM   16  C18 UNL     1      11.475  23.751 119.759  1.00  0.00     0.083 A 
ENDROOT
BRANCH   1  17
HETATM   17  C9  UNL     1      13.999  23.985 120.105  1.00  0.00     0.074 C 
BRANCH  17  18
HETATM   18  C6  UNL     1      15.301  23.255 120.256  1.00  0.00    -0.012 C 
HETATM   19  C7  UNL     1      15.928  22.580 119.108  1.00  0.00     0.021 C 
HETATM   20  C8  UNL     1      15.144  22.023 121.223  1.00  0.00     0.021 C 
BRANCH  18  21
HETATM   21  C5  UNL     1      16.224  24.083 121.117  1.00  0.00    -0.001 C 
HETATM   22  C4  UNL     1      17.665  23.957 121.023  1.00  0.00     0.006 C 
HETATM   23  C3  UNL     1      18.169  24.780 122.198  1.00  0.00     0.005 C 
HETATM   24  C2  UNL     1      17.222  24.418 123.292  1.00  0.00    -0.018 C 
HETATM   25  C1  UNL     1      17.839  23.354 124.194  1.00  0.00     0.010 C 
HETATM   26  C19 UNL     1      15.993  23.870 122.605  1.00  0.00     0.010 C 
ENDBRANCH  18  21
ENDBRANCH  17  18
ENDBRANCH   1  17
TORSDOF 3
ENDMDL
MODEL 3
REMARK VINA RESULT: -9.315322152      3.450      5.604
REMARK  3 active torsions:
REMARK  status: ('A' for Active; 'I' for Inactive)
REMARK    1  A    between atoms: C5_5  and  C6_6 
REMARK    2  A    between atoms: C6_6  and  C9_9 
REMARK    3  A    between atoms: C9_9  and  N1_10 
ROOT
HETATM    1  N1  UNL     1       6.215  24.870 118.451  1.00  0.00    -0.350 N 
HETATM    2  C10 UNL     1       6.487  23.560 117.763  1.00  0.00     0.204 C 
HETATM    3  C11 UNL     1       7.897  23.278 117.532  1.00  0.00     0.095 C 
HETATM    4  N2  UNL     1       8.197  22.657 116.439  1.00  0.00    -0.387 N 
ATOM      5  H21 UNL     1       9.184  22.460 116.277  1.00  0.00     0.157 HD
ATOM      6  H22 UNL     1       7.461  22.386 115.788  1.00  0.00     0.157 HD
HETATM    7  N3  UNL     1       8.917  23.654 118.435  1.00  0.00    -0.338 N 
HETATM    8  C12 UNL     1      10.217  23.054 118.461  1.00  0.00     0.158 C 
HETATM    9  C13 UNL     1       8.532  24.680 119.343  1.00  0.00     0.066 A 
HETATM   10  C14 UNL     1       9.536  25.106 120.229  1.00  0.00     0.056 A 
HETATM   11  C15 UNL     1       9.295  26.114 121.134  1.00  0.00     0.037 A 
HETATM   12 CL1  UNL     1      10.536  26.635 122.224  1.00  0.00    -0.084 Cl
HETATM   13  C16 UNL     1       8.044  26.653 121.104  1.00  0.00     0.050 A 
HETATM   14  C17 UNL     1       7.044  26.236 120.229  1.00  0.00     0.064 A 
HETATM   15 CL2  UNL     1       5.583  27.085 120.317  1.00  0.00    -0.082 Cl
HETATM   16  C18 UNL     1       7.272  25.237 119.334  1.00  0.00     0.083 A 
ENDROOT
BRANCH   1  17
HETATM   17  C9  UNL     1       5.043  25.578 118.123  1.00  0.00     0.074 C 
BRANCH  17  18
HETATM   18  C6  UNL     1       4.864  26.208 116.774  1.00  0.00    -0.012 C 
HETATM   19  C7  UNL     1       5.695  25.798 115.630  1.00  0.00     0.021 C 
HETATM   20  C8  UNL     1       5.226  27.739 116.818  1.00  0.00     0.021 C 
BRANCH  18  21
HETATM   21  C5  UNL     1       3.387  26.349 116.498  1.00  0.00    -0.001 C 
HETATM   22  C4  UNL     1       2.393  25.723 117.349  1.00  0.00     0.006 C 
HETATM   23  C3  UNL     1       1.095  25.926 116.584  1.00  0.00     0.005 C 
HETATM   24  C2  UNL     1       1.491  25.651 115.172  1.00  0.00    -0.018 C 
HETATM   25  C1  UNL     1       1.112  24.224 114.786  1.00  0.00     0.010 C 
HETATM   26  C19 UNL     1       2.991  25.824 115.127  1.00  0.00     0.010 C 
ENDBRANCH  18  21
ENDBRANCH  17  18
ENDBRANCH   1  17
TORSDOF 3
ENDMDL
MODEL 4
REMARK VINA RESULT: -9.080641027      0.619      1.283
REMARK  3 active torsions:
REMARK  status: ('A' for Active; 'I' for Inactive)
REMARK    1  A    between atoms: C5_5  and  C6_6 
REMARK    2  A    between atoms: C6_6  and  C9_9 
REMARK    3  A    between atoms: C9_9  and  N1_10 
ROOT
HETATM    1  N1  UNL     1      10.385  22.848 119.074  1.00  0.00    -0.350 N 
HETATM    2  C10 UNL     1       9.766  21.504 119.348  1.00  0.00     0.204 C 
HETATM    3  C11 UNL     1      10.702  20.388 119.319  1.00  0.00     0.095 C 
HETATM    4  N2  UNL     1      10.262  19.269 118.846  1.00  0.00    -0.387 N 
ATOM      5  H21 UNL     1      10.918  18.488 118.825  1.00  0.00     0.157 HD
ATOM      6  H22 UNL     1       9.300  19.197 118.517  1.00  0.00     0.157 HD
HETATM    7  N3  UNL     1      12.037  20.488 119.774  1.00  0.00    -0.338 N 
HETATM    8  C12 UNL     1      12.836  19.361 120.146  1.00  0.00     0.158 C 
HETATM    9  C13 UNL     1      12.519  21.825 119.852  1.00  0.00     0.066 A 
HETATM   10  C14 UNL     1      13.855  21.958 120.263  1.00  0.00     0.056 A 
HETATM   11  C15 UNL     1      14.446  23.199 120.347  1.00  0.00     0.037 A 
HETATM   12 CL1  UNL     1      16.094  23.358 120.855  1.00  0.00    -0.084 Cl
HETATM   13  C16 UNL     1      13.658  24.257 120.009  1.00  0.00     0.050 A 
HETATM   14  C17 UNL     1      12.331  24.132 119.601  1.00  0.00     0.064 A 
HETATM   15 CL2  UNL     1      11.553  25.570 119.166  1.00  0.00    -0.082 Cl
HETATM   16  C18 UNL     1      11.738  22.911 119.519  1.00  0.00     0.083 A 
ENDROOT
BRANCH   1  17
HETATM   17  C9  UNL     1       9.625  23.819 118.397  1.00  0.00     0.074 C 
BRANCH  17  18
HETATM   18  C6  UNL     1       8.178  23.594 118.075  1.00  0.00    -0.012 C 
HETATM   19  C7  UNL     1       7.487  22.371 118.515  1.00  0.00     0.021 C 
HETATM   20  C8  UNL     1       7.963  23.464 116.521  1.00  0.00     0.021 C 
BRANCH  18  21
HETATM   21  C5  UNL     1       7.427  24.886 118.286  1.00  0.00    -0.001 C 
HETATM   22  C4  UNL     1       7.218  25.434 119.612  1.00  0.00     0.006 C 
HETATM   23  C3  UNL     1       6.245  26.577 119.372  1.00  0.00     0.005 C 
HETATM   24  C2  UNL     1       5.286  26.001 118.386  1.00  0.00    -0.018 C 
HETATM   25  C1  UNL     1       4.027  25.514 119.097  1.00  0.00     0.010 C 
HETATM   26  C19 UNL     1       6.006  24.838 117.746  1.00  0.00     0.010 C 
ENDBRANCH  18  21
ENDBRANCH  17  18
ENDBRANCH   1  17
TORSDOF 3
ENDMDL
MODEL 5
REMARK VINA RESULT: -8.980056385      6.024      9.938
REMARK  3 active torsions:
REMARK  status: ('A' for Active; 'I' for Inactive)
REMARK    1  A    between atoms: C5_5  and  C6_6 
REMARK    2  A    between atoms: C6_6  and  C9_9 
REMARK    3  A    between atoms: C9_9  and  N1_10 
ROOT
HETATM    1  N1  UNL     1       2.801  26.751 117.443  1.00  0.00    -0.350 N 
HETATM    2  C10 UNL     1       1.437  27.327 117.709  1.00  0.00     0.204 C 
HETATM    3  C11 UNL     1       0.740  27.807 116.524  1.00  0.00     0.095 C 
HETATM    4  N2  UNL     1       0.006  28.861 116.665  1.00  0.00    -0.387 N 
ATOM      5  H21 UNL     1      -0.482  29.198 115.835  1.00  0.00     0.157 HD
ATOM      6  H22 UNL     1      -0.067  29.314 117.575  1.00  0.00     0.157 HD
HETATM    7  N3  UNL     1       0.841  27.179 115.262  1.00  0.00    -0.338 N 
HETATM    8  C12 UNL     1      -0.114  27.351 114.210  1.00  0.00     0.158 C 
HETATM    9  C13 UNL     1       1.978  26.333 115.130  1.00  0.00     0.066 A 
HETATM   10  C14 UNL     1       2.131  25.724 113.874  1.00  0.00     0.056 A 
HETATM   11  C15 UNL     1       3.208  24.909 113.612  1.00  0.00     0.037 A 
HETATM   12 CL1  UNL     1       3.392  24.159 112.062  1.00  0.00    -0.084 Cl
HETATM   13  C16 UNL     1       4.091  24.743 114.637  1.00  0.00     0.050 A 
HETATM   14  C17 UNL     1       3.946  25.344 115.886  1.00  0.00     0.064 A 
HETATM   15 CL2  UNL     1       5.191  25.056 116.994  1.00  0.00    -0.082 Cl
HETATM   16  C18 UNL     1       2.882  26.149 116.154  1.00  0.00     0.083 A 
ENDROOT
BRANCH   1  17
HETATM   17  C9  UNL     1       3.807  26.910 118.415  1.00  0.00     0.074 C 
BRANCH  17  18
HETATM   18  C6  UNL     1       4.577  28.191 118.537  1.00  0.00    -0.012 C 
HETATM   19  C7  UNL     1       3.883  29.484 118.655  1.00  0.00     0.021 C 
HETATM   20  C8  UNL     1       5.416  28.468 117.234  1.00  0.00     0.021 C 
BRANCH  18  21
HETATM   21  C5  UNL     1       5.730  27.974 119.488  1.00  0.00    -0.001 C 
HETATM   22  C4  UNL     1       7.101  28.214 119.084  1.00  0.00     0.006 C 
HETATM   23  C3  UNL     1       7.913  27.658 120.243  1.00  0.00     0.005 C 
HETATM   24  C2  UNL     1       7.196  26.394 120.579  1.00  0.00    -0.018 C 
HETATM   25  C1  UNL     1       7.901  25.201 119.942  1.00  0.00     0.010 C 
HETATM   26  C19 UNL     1       5.807  26.546 120.005  1.00  0.00     0.010 C 
ENDBRANCH  18  21
ENDBRANCH  17  18
ENDBRANCH   1  17
TORSDOF 3
ENDMDL
