MODEL 1
REMARK VINA RESULT: -8.658822949      0.000      0.000
REMARK  3 active torsions:
REMARK  status: ('A' for Active; 'I' for Inactive)
REMARK    1  A    between atoms: O1_2  and  C2_3 
REMARK    2  A    between atoms: C8_13  and  C9_14 
REMARK    3  A    between atoms: C9_14  and  C10_15 
ROOT
HETATM    1  C2  UNL     1       8.419  25.379 120.025  1.00  0.00     0.104 A 
HETATM    2  C3  UNL     1       9.738  25.505 120.413  1.00  0.00     0.090 A 
HETATM    3 CL1  UNL     1      10.183  26.504 121.786  1.00  0.00    -0.080 Cl
HETATM    4  C4  UNL     1      10.714  24.845 119.723  1.00  0.00     0.060 A 
HETATM    5 CL2  UNL     1      12.395  24.978 120.180  1.00  0.00    -0.082 Cl
HETATM    6  C5  UNL     1      10.403  24.050 118.639  1.00  0.00     0.056 A 
HETATM    7  C6  UNL     1       9.061  23.952 118.282  1.00  0.00     0.047 A 
HETATM    8  N1  UNL     1       8.539  23.248 117.275  1.00  0.00    -0.365 N 
ATOM      9  H1  UNL     1       9.054  22.670 116.611  1.00  0.00     0.165 HD
HETATM   10  C7  UNL     1       7.214  23.440 117.300  1.00  0.00     0.096 A 
HETATM   11  C8  UNL     1       6.847  24.277 118.327  1.00  0.00    -0.027 A 
HETATM   12  C20 UNL     1       8.060  24.601 118.956  1.00  0.00     0.033 A 
ENDROOT
BRANCH  11  13
HETATM   13  C9  UNL     1       5.560  24.771 118.784  1.00  0.00     0.051 C 
BRANCH  13  14
HETATM   14  C10 UNL     1       4.727  25.539 117.812  1.00  0.00    -0.032 C 
HETATM   15  C11 UNL     1       3.836  26.572 118.411  1.00  0.00     0.015 C 
HETATM   16  C12 UNL     1       3.722  27.559 117.236  1.00  0.00    -0.013 C 
HETATM   17  C13 UNL     1       5.227  27.806 117.050  1.00  0.00     0.010 C 
HETATM   18  C18 UNL     1       3.127  26.863 116.057  1.00  0.00     0.014 C 
HETATM   19  C14 UNL     1       5.695  26.374 116.939  1.00  0.00    -0.005 C 
HETATM   20  C15 UNL     1       5.417  25.959 115.510  1.00  0.00     0.014 C 
HETATM   21  C16 UNL     1       3.938  25.677 115.614  1.00  0.00    -0.043 C 
HETATM   22  C17 UNL     1       3.373  24.960 114.452  1.00  0.00     0.015 C 
HETATM   23  C19 UNL     1       3.952  24.726 116.829  1.00  0.00     0.019 C 
ENDBRANCH  13  14
ENDBRANCH  11  13
BRANCH   1  24
HETATM   24  O1  UNL     1       7.481  26.077 120.768  1.00  0.00    -0.353 OA
HETATM   25  C1  UNL     1       7.026  27.367 120.379  1.00  0.00     0.210 C 
ENDBRANCH   1  24
TORSDOF 3
ENDMDL
MODEL 2
REMARK VINA RESULT: -8.436220312      1.490      2.638
REMARK  3 active torsions:
REMARK  status: ('A' for Active; 'I' for Inactive)
REMARK    1  A    between atoms: O1_2  and  C2_3 
REMARK    2  A    between atoms: C8_13  and  C9_14 
REMARK    3  A    between atoms: C9_14  and  C10_15 
ROOT
HETATM    1  C2  UNL     1      10.237  24.699 119.610  1.00  0.00     0.104 A 
HETATM    2  C3  UNL     1      11.522  24.203 119.709  1.00  0.00     0.090 A 
HETATM    3 CL1  UNL     1      12.830  25.204 120.318  1.00  0.00    -0.080 Cl
HETATM    4  C4  UNL     1      11.786  22.919 119.331  1.00  0.00     0.060 A 
HETATM    5 CL2  UNL     1      13.397  22.254 119.438  1.00  0.00    -0.082 Cl
HETATM    6  C5  UNL     1      10.784  22.102 118.848  1.00  0.00     0.056 A 
HETATM    7  C6  UNL     1       9.503  22.642 118.763  1.00  0.00     0.047 A 
HETATM    8  N1  UNL     1       8.395  22.038 118.328  1.00  0.00    -0.365 N 
ATOM      9  H1  UNL     1       8.323  21.079 117.988  1.00  0.00     0.165 HD
HETATM   10  C7  UNL     1       7.395  22.924 118.421  1.00  0.00     0.096 A 
HETATM   11  C8  UNL     1       7.837  24.127 118.920  1.00  0.00    -0.027 A 
HETATM   12  C20 UNL     1       9.209  23.927 119.137  1.00  0.00     0.033 A 
ENDROOT
BRANCH  11  13
HETATM   13  C9  UNL     1       7.159  25.376 119.224  1.00  0.00     0.051 C 
BRANCH  13  14
HETATM   14  C10 UNL     1       6.138  25.865 118.251  1.00  0.00    -0.032 C 
HETATM   15  C11 UNL     1       6.168  25.215 116.911  1.00  0.00     0.015 C 
HETATM   16  C12 UNL     1       4.699  25.380 116.487  1.00  0.00    -0.013 C 
HETATM   17  C13 UNL     1       4.071  24.685 117.704  1.00  0.00     0.010 C 
HETATM   18  C18 UNL     1       4.353  26.832 116.441  1.00  0.00     0.014 C 
HETATM   19  C14 UNL     1       4.750  25.465 118.805  1.00  0.00    -0.005 C 
HETATM   20  C15 UNL     1       3.972  26.758 118.933  1.00  0.00     0.014 C 
HETATM   21  C16 UNL     1       4.553  27.516 117.765  1.00  0.00    -0.043 C 
HETATM   22  C17 UNL     1       4.227  28.958 117.754  1.00  0.00     0.015 C 
HETATM   23  C19 UNL     1       6.053  27.347 118.080  1.00  0.00     0.019 C 
ENDBRANCH  13  14
ENDBRANCH  11  13
BRANCH   1  24
HETATM   24  O1  UNL     1      10.042  26.011 120.011  1.00  0.00    -0.353 OA
HETATM   25  C1  UNL     1       9.757  26.345 121.364  1.00  0.00     0.210 C 
ENDBRANCH   1  24
TORSDOF 3
ENDMDL
MODEL 3
REMARK VINA RESULT: -8.379552373      1.660      2.521
REMARK  3 active torsions:
REMARK  status: ('A' for Active; 'I' for Inactive)
REMARK    1  A    between atoms: O1_2  and  C2_3 
REMARK    2  A    between atoms: C8_13  and  C9_14 
REMARK    3  A    between atoms: C9_14  and  C10_15 
ROOT
HETATM    1  C2  UNL     1       8.859  24.059 119.087  1.00  0.00     0.104 A 
HETATM    2  C3  UNL     1      10.216  23.863 119.253  1.00  0.00     0.090 A 
HETATM    3 CL1  UNL     1      10.998  22.413 118.648  1.00  0.00    -0.080 Cl
HETATM    4  C4  UNL     1      10.964  24.807 119.896  1.00  0.00     0.060 A 
HETATM    5 CL2  UNL     1      12.682  24.598 120.129  1.00  0.00    -0.082 Cl
HETATM    6  C5  UNL     1      10.384  25.960 120.384  1.00  0.00     0.056 A 
HETATM    7  C6  UNL     1       9.014  26.116 120.196  1.00  0.00     0.047 A 
HETATM    8  N1  UNL     1       8.253  27.143 120.584  1.00  0.00    -0.365 N 
ATOM      9  H1  UNL     1       8.569  27.973 121.084  1.00  0.00     0.165 HD
HETATM   10  C7  UNL     1       6.999  26.878 120.197  1.00  0.00     0.096 A 
HETATM   11  C8  UNL     1       6.919  25.669 119.545  1.00  0.00    -0.027 A 
HETATM   12  C20 UNL     1       8.238  25.187 119.554  1.00  0.00     0.033 A 
ENDROOT
BRANCH  11  13
HETATM   13  C9  UNL     1       5.817  24.953 118.928  1.00  0.00     0.051 C 
BRANCH  13  14
HETATM   14  C10 UNL     1       4.803  25.753 118.179  1.00  0.00    -0.032 C 
HETATM   15  C11 UNL     1       4.282  26.953 118.892  1.00  0.00     0.015 C 
HETATM   16  C12 UNL     1       3.900  27.845 117.698  1.00  0.00    -0.013 C 
HETATM   17  C13 UNL     1       5.278  27.849 117.017  1.00  0.00     0.010 C 
HETATM   18  C18 UNL     1       2.876  27.150 116.864  1.00  0.00     0.014 C 
HETATM   19  C14 UNL     1       5.517  26.360 116.947  1.00  0.00    -0.005 C 
HETATM   20  C15 UNL     1       4.739  25.874 115.743  1.00  0.00     0.014 C 
HETATM   21  C16 UNL     1       3.355  25.825 116.342  1.00  0.00    -0.043 C 
HETATM   22  C17 UNL     1       2.362  25.105 115.518  1.00  0.00     0.015 C 
HETATM   23  C19 UNL     1       3.660  24.986 117.601  1.00  0.00     0.019 C 
ENDBRANCH  13  14
ENDBRANCH  11  13
BRANCH   1  24
HETATM   24  O1  UNL     1       8.161  23.061 118.427  1.00  0.00    -0.353 OA
HETATM   25  C1  UNL     1       8.004  23.067 117.013  1.00  0.00     0.210 C 
ENDBRANCH   1  24
TORSDOF 3
ENDMDL
MODEL 4
REMARK VINA RESULT: -8.270909807      1.465      2.022
REMARK  3 active torsions:
REMARK  status: ('A' for Active; 'I' for Inactive)
REMARK    1  A    between atoms: O1_2  and  C2_3 
REMARK    2  A    between atoms: C8_13  and  C9_14 
REMARK    3  A    between atoms: C9_14  and  C10_15 
ROOT
HETATM    1  C2  UNL     1      10.302  24.669 119.620  1.00  0.00     0.104 A 
HETATM    2  C3  UNL     1      11.565  24.128 119.751  1.00  0.00     0.090 A 
HETATM    3 CL1  UNL     1      12.899  25.091 120.365  1.00  0.00    -0.080 Cl
HETATM    4  C4  UNL     1      11.788  22.827 119.402  1.00  0.00     0.060 A 
HETATM    5 CL2  UNL     1      13.370  22.105 119.551  1.00  0.00    -0.082 Cl
HETATM    6  C5  UNL     1      10.764  22.039 118.916  1.00  0.00     0.056 A 
HETATM    7  C6  UNL     1       9.506  22.624 118.799  1.00  0.00     0.047 A 
HETATM    8  N1  UNL     1       8.384  22.053 118.355  1.00  0.00    -0.365 N 
ATOM      9  H1  UNL     1       8.282  21.092 118.032  1.00  0.00     0.165 HD
HETATM   10  C7  UNL     1       7.417  22.978 118.413  1.00  0.00     0.096 A 
HETATM   11  C8  UNL     1       7.894  24.174 118.897  1.00  0.00    -0.027 A 
HETATM   12  C20 UNL     1       9.254  23.927 119.143  1.00  0.00     0.033 A 
ENDROOT
BRANCH  11  13
HETATM   13  C9  UNL     1       7.259  25.452 119.165  1.00  0.00     0.051 C 
BRANCH  13  14
HETATM   14  C10 UNL     1       5.934  25.715 118.529  1.00  0.00    -0.032 C 
HETATM   15  C11 UNL     1       4.752  25.541 119.420  1.00  0.00     0.015 C 
HETATM   16  C12 UNL     1       3.757  26.509 118.756  1.00  0.00    -0.013 C 
HETATM   17  C13 UNL     1       4.640  27.766 118.826  1.00  0.00     0.010 C 
HETATM   18  C18 UNL     1       3.514  26.085 117.346  1.00  0.00     0.014 C 
HETATM   19  C14 UNL     1       5.888  27.220 118.173  1.00  0.00    -0.005 C 
HETATM   20  C15 UNL     1       5.633  27.280 116.682  1.00  0.00     0.014 C 
HETATM   21  C16 UNL     1       4.773  26.050 116.526  1.00  0.00    -0.043 C 
HETATM   22  C17 UNL     1       4.570  25.625 115.125  1.00  0.00     0.015 C 
HETATM   23  C19 UNL     1       5.682  25.022 117.231  1.00  0.00     0.019 C 
ENDBRANCH  13  14
ENDBRANCH  11  13
BRANCH   1  24
HETATM   24  O1  UNL     1      10.149  25.994 119.992  1.00  0.00    -0.353 OA
HETATM   25  C1  UNL     1       9.839  26.365 121.330  1.00  0.00     0.210 C 
ENDBRANCH   1  24
TORSDOF 3
ENDMDL
MODEL 5
REMARK VINA RESULT: -8.226932861      2.226      3.525
REMARK  3 active torsions:
REMARK  status: ('A' for Active; 'I' for Inactive)
REMARK    1  A    between atoms: O1_2  and  C2_3 
REMARK    2  A    between atoms: C8_13  and  C9_14 
REMARK    3  A    between atoms: C9_14  and  C10_15 
ROOT
HETATM    1  C2  UNL     1      10.707  23.234 119.020  1.00  0.00     0.104 A 
HETATM    2  C3  UNL     1      11.795  22.519 119.479  1.00  0.00     0.090 A 
HETATM    3 CL1  UNL     1      13.317  23.321 119.829  1.00  0.00    -0.080 Cl
HETATM    4  C4  UNL     1      11.693  21.171 119.665  1.00  0.00     0.060 A 
HETATM    5 CL2  UNL     1      13.046  20.230 120.242  1.00  0.00    -0.082 Cl
HETATM    6  C5  UNL     1      10.513  20.506 119.400  1.00  0.00     0.056 A 
HETATM    7  C6  UNL     1       9.441  21.265 118.939  1.00  0.00     0.047 A 
HETATM    8  N1  UNL     1       8.218  20.833 118.621  1.00  0.00    -0.365 N 
ATOM      9  H1  UNL     1       7.886  19.870 118.670  1.00  0.00     0.165 HD
HETATM   10  C7  UNL     1       7.509  21.898 118.226  1.00  0.00     0.096 A 
HETATM   11  C8  UNL     1       8.261  23.049 118.279  1.00  0.00    -0.027 A 
HETATM   12  C20 UNL     1       9.514  22.619 118.744  1.00  0.00     0.033 A 
ENDROOT
BRANCH  11  13
HETATM   13  C9  UNL     1       7.959  24.438 117.981  1.00  0.00     0.051 C 
BRANCH  13  14
HETATM   14  C10 UNL     1       6.948  25.126 118.838  1.00  0.00    -0.032 C 
HETATM   15  C11 UNL     1       7.186  25.035 120.306  1.00  0.00     0.015 C 
HETATM   16  C12 UNL     1       6.494  26.324 120.782  1.00  0.00    -0.013 C 
HETATM   17  C13 UNL     1       7.286  27.301 119.898  1.00  0.00     0.010 C 
HETATM   18  C18 UNL     1       5.051  26.284 120.404  1.00  0.00     0.014 C 
HETATM   19  C14 UNL     1       7.067  26.644 118.556  1.00  0.00    -0.005 C 
HETATM   20  C15 UNL     1       5.693  27.084 118.100  1.00  0.00     0.014 C 
HETATM   21  C16 UNL     1       4.844  26.145 118.922  1.00  0.00    -0.043 C 
HETATM   22  C17 UNL     1       3.424  26.094 118.513  1.00  0.00     0.015 C 
HETATM   23  C19 UNL     1       5.518  24.809 118.547  1.00  0.00     0.019 C 
ENDBRANCH  13  14
ENDBRANCH  11  13
BRANCH   1  24
HETATM   24  O1  UNL     1      10.882  24.598 118.853  1.00  0.00    -0.353 OA
HETATM   25  C1  UNL     1      10.819  25.501 119.951  1.00  0.00     0.210 C 
ENDBRANCH   1  24
TORSDOF 3
ENDMDL
