MODEL 1
REMARK VINA RESULT: -4.653203549      0.000      0.000
REMARK  2 active torsions:
REMARK  status: ('A' for Active; 'I' for Inactive)
REMARK    1  A    between atoms: C2_2  and  C3_3 
REMARK    2  A    between atoms: C3_3  and  C4_4 
ROOT
HETATM    1  C4  UNL     1     138.680 123.963  86.432  1.00  0.00     0.281 C 
HETATM    2  N1  UNL     1     137.318 124.209  86.759  1.00  0.00    -0.059 N 
ATOM      3  H11 UNL     1     136.811 123.339  86.922  1.00  0.00     0.278 HD
ATOM      4  H12 UNL     1     136.797 124.547  85.951  1.00  0.00     0.278 HD
HETATM    5  C5  UNL     1     137.196 125.089  87.855  1.00  0.00     0.246 C 
HETATM    6  C6  UNL     1     138.191 126.217  87.682  1.00  0.00     0.138 C 
HETATM    7  S1  UNL     1     139.631 125.175  87.375  1.00  0.00     0.048 S 
HETATM    8  O1  UNL     1     139.991 124.473  88.882  1.00  0.00    -0.256 OA
ENDROOT
BRANCH   1   9
HETATM    9  C3  UNL     1     138.863 124.386  84.973  1.00  0.00     0.072 C 
BRANCH   9  10
HETATM   10  C2  UNL     1     138.563 123.301  84.036  1.00  0.00    -0.034 C 
HETATM   11  C1  UNL     1     138.448 123.593  82.753  1.00  0.00     0.007 C 
ENDBRANCH   9  10
ENDBRANCH   1   9
TORSDOF 2
ENDMDL
MODEL 2
REMARK VINA RESULT: -4.276866992      2.091      2.290
REMARK  2 active torsions:
REMARK  status: ('A' for Active; 'I' for Inactive)
REMARK    1  A    between atoms: C2_2  and  C3_3 
REMARK    2  A    between atoms: C3_3  and  C4_4 
ROOT
HETATM    1  C4  UNL     1     138.256 124.429  85.863  1.00  0.00     0.281 C 
HETATM    2  N1  UNL     1     139.499 125.116  85.930  1.00  0.00    -0.059 N 
ATOM      3  H11 UNL     1     139.602 125.776  85.159  1.00  0.00     0.278 HD
ATOM      4  H12 UNL     1     140.279 124.496  85.713  1.00  0.00     0.278 HD
HETATM    5  C5  UNL     1     139.677 125.750  87.177  1.00  0.00     0.246 C 
HETATM    6  C6  UNL     1     139.231 124.802  88.270  1.00  0.00     0.138 C 
HETATM    7  S1  UNL     1     137.622 124.407  87.554  1.00  0.00     0.048 S 
HETATM    8  O1  UNL     1     136.694 125.818  87.763  1.00  0.00    -0.256 OA
ENDROOT
BRANCH   1   9
HETATM    9  C3  UNL     1     138.582 122.964  85.559  1.00  0.00     0.072 C 
BRANCH   9  10
HETATM   10  C2  UNL     1     138.032 122.525  84.276  1.00  0.00    -0.034 C 
HETATM   11  C1  UNL     1     136.892 121.857  84.277  1.00  0.00     0.007 C 
ENDBRANCH   9  10
ENDBRANCH   1   9
TORSDOF 2
ENDMDL
MODEL 3
REMARK VINA RESULT: -4.198809752      2.636      4.131
REMARK  2 active torsions:
REMARK  status: ('A' for Active; 'I' for Inactive)
REMARK    1  A    between atoms: C2_2  and  C3_3 
REMARK    2  A    between atoms: C3_3  and  C4_4 
ROOT
HETATM    1  C4  UNL     1     138.167 124.621  86.003  1.00  0.00     0.281 C 
HETATM    2  N1  UNL     1     137.289 123.573  86.392  1.00  0.00    -0.059 N 
ATOM      3  H11 UNL     1     136.342 123.919  86.550  1.00  0.00     0.278 HD
ATOM      4  H12 UNL     1     137.496 123.244  87.334  1.00  0.00     0.278 HD
HETATM    5  C5  UNL     1     137.300 122.512  85.462  1.00  0.00     0.246 C 
HETATM    6  C6  UNL     1     138.733 122.241  85.055  1.00  0.00     0.138 C 
HETATM    7  S1  UNL     1     139.157 123.948  84.650  1.00  0.00     0.048 S 
HETATM    8  O1  UNL     1     138.322 124.273  83.204  1.00  0.00    -0.256 OA
ENDROOT
BRANCH   1   9
HETATM    9  C3  UNL     1     139.164 124.804  87.150  1.00  0.00     0.072 C 
BRANCH   9  10
HETATM   10  C2  UNL     1     138.585 124.465  88.451  1.00  0.00    -0.034 C 
HETATM   11  C1  UNL     1     138.416 125.433  89.334  1.00  0.00     0.007 C 
ENDBRANCH   9  10
ENDBRANCH   1   9
TORSDOF 2
ENDMDL
MODEL 4
REMARK VINA RESULT: -3.916868968      2.498      4.145
REMARK  2 active torsions:
REMARK  status: ('A' for Active; 'I' for Inactive)
REMARK    1  A    between atoms: C2_2  and  C3_3 
REMARK    2  A    between atoms: C3_3  and  C4_4 
ROOT
HETATM    1  C4  UNL     1     138.977 124.147  84.825  1.00  0.00     0.281 C 
HETATM    2  N1  UNL     1     138.444 124.262  83.512  1.00  0.00    -0.059 N 
ATOM      3  H11 UNL     1     139.131 124.646  82.863  1.00  0.00     0.278 HD
ATOM      4  H12 UNL     1     137.744 125.001  83.458  1.00  0.00     0.278 HD
HETATM    5  C5  UNL     1     137.930 123.032  83.050  1.00  0.00     0.246 C 
HETATM    6  C6  UNL     1     137.152 122.380  84.173  1.00  0.00     0.138 C 
HETATM    7  S1  UNL     1     138.437 122.533  85.430  1.00  0.00     0.048 S 
HETATM    8  O1  UNL     1     139.625 121.402  84.979  1.00  0.00    -0.256 OA
ENDROOT
BRANCH   1   9
HETATM    9  C3  UNL     1     138.218 125.153  85.695  1.00  0.00     0.072 C 
BRANCH   9  10
HETATM   10  C2  UNL     1     139.051 125.706  86.764  1.00  0.00    -0.034 C 
HETATM   11  C1  UNL     1     138.530 125.818  87.972  1.00  0.00     0.007 C 
ENDBRANCH   9  10
ENDBRANCH   1   9
TORSDOF 2
ENDMDL
MODEL 5
REMARK VINA RESULT: -3.788697161      1.282      1.738
REMARK  2 active torsions:
REMARK  status: ('A' for Active; 'I' for Inactive)
REMARK    1  A    between atoms: C2_2  and  C3_3 
REMARK    2  A    between atoms: C3_3  and  C4_4 
ROOT
HETATM    1  C4  UNL     1     137.341 124.389  87.667  1.00  0.00     0.281 C 
HETATM    2  N1  UNL     1     136.945 125.670  87.194  1.00  0.00    -0.059 N 
ATOM      3  H11 UNL     1     136.079 125.979  87.635  1.00  0.00     0.278 HD
ATOM      4  H12 UNL     1     136.624 125.627  86.227  1.00  0.00     0.278 HD
HETATM    5  C5  UNL     1     137.972 126.624  87.353  1.00  0.00     0.246 C 
HETATM    6  C6  UNL     1     139.286 125.993  86.942  1.00  0.00     0.138 C 
HETATM    7  S1  UNL     1     139.121 124.504  87.948  1.00  0.00     0.048 S 
HETATM    8  O1  UNL     1     139.347 125.033  89.549  1.00  0.00    -0.256 OA
ENDROOT
BRANCH   1   9
HETATM    9  C3  UNL     1     137.203 123.425  86.486  1.00  0.00     0.072 C 
BRANCH   9  10
HETATM   10  C2  UNL     1     138.467 123.230  85.775  1.00  0.00    -0.034 C 
HETATM   11  C1  UNL     1     138.467 122.479  84.688  1.00  0.00     0.007 C 
ENDBRANCH   9  10
ENDBRANCH   1   9
TORSDOF 2
ENDMDL
