MODEL 1
REMARK VINA RESULT: -5.278863206      0.000      0.000
REMARK  4 active torsions:
REMARK  status: ('A' for Active; 'I' for Inactive)
REMARK    1  A    between atoms: C2_2  and  C3_3 
REMARK    2  A    between atoms: C3_3  and  O1_4 
REMARK    3  A    between atoms: C3_3  and  C4_6 
REMARK    4  A    between atoms: C4_6  and  N1_7 
ROOT
HETATM    1  N1  UNL     1     138.257 123.213  84.812  1.00  0.00    -0.361 N 
HETATM    2  C5  UNL     1     138.751 123.916  83.766  1.00  0.00     0.107 A 
HETATM    3  C6  UNL     1     138.472 123.522  82.464  1.00  0.00     0.104 A 
HETATM    4  N2  UNL     1     137.712 122.441  82.241  1.00  0.00    -0.373 N 
ATOM      5  H2  UNL     1     137.513 122.160  81.281  1.00  0.00     0.164 HD
HETATM    6  C7  UNL     1     137.206 121.721  83.254  1.00  0.00     0.104 A 
HETATM    7  C8  UNL     1     137.501 122.140  84.534  1.00  0.00     0.107 A 
ENDROOT
BRANCH   1   8
HETATM    8  C4  UNL     1     138.526 123.594  86.185  1.00  0.00     0.163 C 
BRANCH   8   9
HETATM    9  C3  UNL     1     138.859 125.093  86.226  1.00  0.00     0.158 C 
BRANCH   9  10
HETATM   10  C2  UNL     1     139.684 125.391  87.434  1.00  0.00    -0.004 C 
HETATM   11  C1  UNL     1     139.584 124.677  88.546  1.00  0.00     0.009 C 
ENDBRANCH   9  10
BRANCH   9  12
HETATM   12  O1  UNL     1     137.698 125.848  86.249  1.00  0.00    -0.390 OA
ATOM     13  H1  UNL     1     137.413 126.032  85.361  1.00  0.00     0.210 HD
ENDBRANCH   9  12
ENDBRANCH   8   9
ENDBRANCH   1   8
TORSDOF 4
ENDMDL
MODEL 2
REMARK VINA RESULT: -5.266474065      2.137      4.747
REMARK  4 active torsions:
REMARK  status: ('A' for Active; 'I' for Inactive)
REMARK    1  A    between atoms: C2_2  and  C3_3 
REMARK    2  A    between atoms: C3_3  and  O1_4 
REMARK    3  A    between atoms: C3_3  and  C4_6 
REMARK    4  A    between atoms: C4_6  and  N1_7 
ROOT
HETATM    1  N1  UNL     1     138.483 124.058  86.205  1.00  0.00    -0.361 N 
HETATM    2  C5  UNL     1     137.517 123.890  87.137  1.00  0.00     0.107 A 
HETATM    3  C6  UNL     1     137.255 124.891  88.062  1.00  0.00     0.104 A 
HETATM    4  N2  UNL     1     137.963 126.029  88.034  1.00  0.00    -0.373 N 
ATOM      5  H2  UNL     1     137.763 126.759  88.717  1.00  0.00     0.164 HD
HETATM    6  C7  UNL     1     138.929 126.229  87.124  1.00  0.00     0.104 A 
HETATM    7  C8  UNL     1     139.162 125.214  86.219  1.00  0.00     0.107 A 
ENDROOT
BRANCH   1   8
HETATM    8  C4  UNL     1     138.785 123.034  85.222  1.00  0.00     0.163 C 
BRANCH   8   9
HETATM    9  C3  UNL     1     138.201 123.462  83.868  1.00  0.00     0.158 C 
BRANCH   9  10
HETATM   10  C2  UNL     1     137.464 122.318  83.255  1.00  0.00    -0.004 C 
HETATM   11  C1  UNL     1     136.661 121.539  83.966  1.00  0.00     0.009 C 
ENDBRANCH   9  10
BRANCH   9  12
HETATM   12  O1  UNL     1     139.209 123.886  83.017  1.00  0.00    -0.390 OA
ATOM     13  H1  UNL     1     139.020 123.608  82.128  1.00  0.00     0.210 HD
ENDBRANCH   9  12
ENDBRANCH   8   9
ENDBRANCH   1   8
TORSDOF 4
ENDMDL
MODEL 3
REMARK VINA RESULT: -5.265739404      0.053      1.401
REMARK  4 active torsions:
REMARK  status: ('A' for Active; 'I' for Inactive)
REMARK    1  A    between atoms: C2_2  and  C3_3 
REMARK    2  A    between atoms: C3_3  and  O1_4 
REMARK    3  A    between atoms: C3_3  and  C4_6 
REMARK    4  A    between atoms: C4_6  and  N1_7 
ROOT
HETATM    1  N1  UNL     1     138.222 123.194  84.856  1.00  0.00    -0.361 N 
HETATM    2  C5  UNL     1     137.464 122.112  84.561  1.00  0.00     0.107 A 
HETATM    3  C6  UNL     1     137.230 121.761  83.239  1.00  0.00     0.104 A 
HETATM    4  N2  UNL     1     137.756 122.496  82.249  1.00  0.00    -0.373 N 
ATOM      5  H2  UNL     1     137.578 122.230  81.281  1.00  0.00     0.164 HD
HETATM    6  C7  UNL     1     138.511 123.575  82.504  1.00  0.00     0.104 A 
HETATM    7  C8  UNL     1     138.725 123.895  83.829  1.00  0.00     0.107 A 
ENDROOT
BRANCH   1   8
HETATM    8  C4  UNL     1     138.489 123.591  86.225  1.00  0.00     0.163 C 
BRANCH   8   9
HETATM    9  C3  UNL     1     138.844 125.085  86.246  1.00  0.00     0.158 C 
BRANCH   9  10
HETATM   10  C2  UNL     1     139.667 125.388  87.455  1.00  0.00    -0.004 C 
HETATM   11  C1  UNL     1     139.556 124.686  88.573  1.00  0.00     0.009 C 
ENDBRANCH   9  10
BRANCH   9  12
HETATM   12  O1  UNL     1     137.695 125.858  86.250  1.00  0.00    -0.390 OA
ATOM     13  H1  UNL     1     137.577 126.270  85.403  1.00  0.00     0.210 HD
ENDBRANCH   9  12
ENDBRANCH   8   9
ENDBRANCH   1   8
TORSDOF 4
ENDMDL
MODEL 4
REMARK VINA RESULT: -5.244101790      2.139      4.544
REMARK  4 active torsions:
REMARK  status: ('A' for Active; 'I' for Inactive)
REMARK    1  A    between atoms: C2_2  and  C3_3 
REMARK    2  A    between atoms: C3_3  and  O1_4 
REMARK    3  A    between atoms: C3_3  and  C4_6 
REMARK    4  A    between atoms: C4_6  and  N1_7 
ROOT
HETATM    1  N1  UNL     1     138.513 124.084  86.194  1.00  0.00    -0.361 N 
HETATM    2  C5  UNL     1     139.197 125.251  86.209  1.00  0.00     0.107 A 
HETATM    3  C6  UNL     1     138.903 126.224  87.154  1.00  0.00     0.104 A 
HETATM    4  N2  UNL     1     137.935 126.008  88.056  1.00  0.00    -0.373 N 
ATOM      5  H2  UNL     1     137.726 126.728  88.747  1.00  0.00     0.164 HD
HETATM    6  C7  UNL     1     137.235 124.863  88.070  1.00  0.00     0.104 A 
HETATM    7  C8  UNL     1     137.554 123.918  87.117  1.00  0.00     0.107 A 
ENDROOT
BRANCH   1   8
HETATM    8  C4  UNL     1     138.793 123.045  85.221  1.00  0.00     0.163 C 
BRANCH   8   9
HETATM    9  C3  UNL     1     138.208 123.467  83.865  1.00  0.00     0.158 C 
BRANCH   9  10
HETATM   10  C2  UNL     1     137.458 122.323  83.265  1.00  0.00    -0.004 C 
HETATM   11  C1  UNL     1     136.669 121.544  83.989  1.00  0.00     0.009 C 
ENDBRANCH   9  10
BRANCH   9  12
HETATM   12  O1  UNL     1     139.216 123.874  83.007  1.00  0.00    -0.390 OA
ATOM     13  H1  UNL     1     139.497 124.754  83.231  1.00  0.00     0.210 HD
ENDBRANCH   9  12
ENDBRANCH   8   9
ENDBRANCH   1   8
TORSDOF 4
ENDMDL
MODEL 5
REMARK VINA RESULT: -5.134675128      1.454      2.141
REMARK  4 active torsions:
REMARK  status: ('A' for Active; 'I' for Inactive)
REMARK    1  A    between atoms: C2_2  and  C3_3 
REMARK    2  A    between atoms: C3_3  and  O1_4 
REMARK    3  A    between atoms: C3_3  and  C4_6 
REMARK    4  A    between atoms: C4_6  and  N1_7 
ROOT
HETATM    1  N1  UNL     1     138.337 123.361  85.432  1.00  0.00    -0.361 N 
HETATM    2  C5  UNL     1     137.460 122.341  85.282  1.00  0.00     0.107 A 
HETATM    3  C6  UNL     1     137.074 121.930  84.014  1.00  0.00     0.104 A 
HETATM    4  N2  UNL     1     137.571 122.546  82.932  1.00  0.00    -0.373 N 
ATOM      5  H2  UNL     1     137.282 122.237  82.005  1.00  0.00     0.164 HD
HETATM    6  C7  UNL     1     138.441 123.561  83.043  1.00  0.00     0.104 A 
HETATM    7  C8  UNL     1     138.804 123.943  84.318  1.00  0.00     0.107 A 
ENDROOT
BRANCH   1   8
HETATM    8  C4  UNL     1     138.763 123.818  86.742  1.00  0.00     0.163 C 
BRANCH   8   9
HETATM    9  C3  UNL     1     137.536 124.329  87.510  1.00  0.00     0.158 C 
BRANCH   9  10
HETATM   10  C2  UNL     1     137.426 125.810  87.352  1.00  0.00    -0.004 C 
HETATM   11  C1  UNL     1     138.494 126.594  87.333  1.00  0.00     0.009 C 
ENDBRANCH   9  10
BRANCH   9  12
HETATM   12  O1  UNL     1     137.633 124.003  88.853  1.00  0.00    -0.390 OA
ATOM     13  H1  UNL     1     138.428 124.372  89.220  1.00  0.00     0.210 HD
ENDBRANCH   9  12
ENDBRANCH   8   9
ENDBRANCH   1   8
TORSDOF 4
ENDMDL
