MODEL 1
REMARK VINA RESULT: -5.587030162      0.000      0.000
REMARK  4 active torsions:
REMARK  status: ('A' for Active; 'I' for Inactive)
REMARK    1  A    between atoms: N1_1  and  N2_4 
REMARK    2  A    between atoms: N2_4  and  N3_5 
REMARK    3  A    between atoms: N3_5  and  C1_7 
REMARK    4  A    between atoms: C1_7  and  C2_8 
ROOT
HETATM    1  C2  UNL     1     138.377 123.373  85.282  1.00  0.00    -0.008 A 
HETATM    2  C3  UNL     1     138.474 123.621  83.988  1.00  0.00     0.067 A 
HETATM    3  N4  UNL     1     138.810 124.249  82.845  1.00  0.00    -0.300 N 
ATOM      4  H4  UNL     1     139.340 125.119  82.787  1.00  0.00     0.187 HD
HETATM    5  N5  UNL     1     138.346 123.562  81.803  1.00  0.00    -0.311 N 
ATOM      6  H5  UNL     1     138.470 123.832  80.828  1.00  0.00     0.186 HD
HETATM    7  C4  UNL     1     137.697 122.470  82.212  1.00  0.00     0.120 A 
HETATM    8  C5  UNL     1     137.770 122.497  83.585  1.00  0.00     0.010 A 
HETATM    9  C6  UNL     1     137.637 122.191  84.869  1.00  0.00     0.026 A 
ENDROOT
BRANCH   1  10
HETATM   10  C1  UNL     1     138.825 124.019  86.562  1.00  0.00     0.196 C 
BRANCH  10  11
HETATM   11  N3  UNL     1     138.918 125.444  86.349  1.00  0.00    -0.248 N 
ATOM     12  H3  UNL     1     139.753 125.833  85.910  1.00  0.00     0.197 HD
BRANCH  11  13
HETATM   13  N2  UNL     1     138.014 126.191  86.685  1.00  0.00    -0.248 NA
BRANCH  13  14
HETATM   14  N1  UNL     1     136.917 126.728  86.930  1.00  0.00    -0.261 N 
ATOM     15  H12 UNL     1     136.570 126.543  85.989  1.00  0.00     0.193 HD
ATOM     16  H11 UNL     1     136.119 127.204  87.353  1.00  0.00     0.193 HD
ENDBRANCH  13  14
ENDBRANCH  11  13
ENDBRANCH  10  11
ENDBRANCH   1  10
TORSDOF 4
ENDMDL
MODEL 2
REMARK VINA RESULT: -5.489377227      2.688      4.835
REMARK  4 active torsions:
REMARK  status: ('A' for Active; 'I' for Inactive)
REMARK    1  A    between atoms: N1_1  and  N2_4 
REMARK    2  A    between atoms: N2_4  and  N3_5 
REMARK    3  A    between atoms: N3_5  and  C1_7 
REMARK    4  A    between atoms: C1_7  and  C2_8 
ROOT
HETATM    1  C2  UNL     1     137.808 122.560  82.619  1.00  0.00    -0.008 A 
HETATM    2  C3  UNL     1     137.792 122.779  83.923  1.00  0.00     0.067 A 
HETATM    3  N4  UNL     1     137.486 122.623  85.224  1.00  0.00    -0.300 N 
ATOM      4  H4  UNL     1     136.871 121.902  85.601  1.00  0.00     0.187 HD
HETATM    5  N5  UNL     1     138.110 123.554  85.945  1.00  0.00    -0.311 N 
ATOM      6  H5  UNL     1     138.038 123.648  86.958  1.00  0.00     0.186 HD
HETATM    7  C4  UNL     1     138.840 124.346  85.159  1.00  0.00     0.120 A 
HETATM    8  C5  UNL     1     138.648 123.868  83.883  1.00  0.00     0.010 A 
HETATM    9  C6  UNL     1     138.705 123.702  82.569  1.00  0.00     0.026 A 
ENDROOT
BRANCH   1  10
HETATM   10  C1  UNL     1     137.184 121.587  81.661  1.00  0.00     0.196 C 
BRANCH  10  11
HETATM   11  N3  UNL     1     136.898 120.362  82.370  1.00  0.00    -0.248 N 
ATOM     12  H3  UNL     1     137.639 119.672  82.500  1.00  0.00     0.197 HD
BRANCH  11  13
HETATM   13  N2  UNL     1     135.785 120.139  82.817  1.00  0.00    -0.248 NA
BRANCH  13  14
HETATM   14  N1  UNL     1     134.749 120.073  83.506  1.00  0.00    -0.261 N 
ATOM     15  H12 UNL     1     135.187 120.565  84.285  1.00  0.00     0.193 HD
ATOM     16  H11 UNL     1     133.812 119.903  83.871  1.00  0.00     0.193 HD
ENDBRANCH  13  14
ENDBRANCH  11  13
ENDBRANCH  10  11
ENDBRANCH   1  10
TORSDOF 4
ENDMDL
MODEL 3
REMARK VINA RESULT: -5.476599179      1.899      4.940
REMARK  4 active torsions:
REMARK  status: ('A' for Active; 'I' for Inactive)
REMARK    1  A    between atoms: N1_1  and  N2_4 
REMARK    2  A    between atoms: N2_4  and  N3_5 
REMARK    3  A    between atoms: N3_5  and  C1_7 
REMARK    4  A    between atoms: C1_7  and  C2_8 
ROOT
HETATM    1  C2  UNL     1     138.793 124.199  85.882  1.00  0.00    -0.008 A 
HETATM    2  C3  UNL     1     138.220 124.264  87.071  1.00  0.00     0.067 A 
HETATM    3  N4  UNL     1     137.438 123.930  88.114  1.00  0.00    -0.300 N 
ATOM      4  H4  UNL     1     136.828 123.113  88.154  1.00  0.00     0.187 HD
HETATM    5  N5  UNL     1     137.581 124.829  89.087  1.00  0.00    -0.311 N 
ATOM      6  H5  UNL     1     137.092 124.798  89.982  1.00  0.00     0.186 HD
HETATM    7  C4  UNL     1     138.450 125.774  88.729  1.00  0.00     0.120 A 
HETATM    8  C5  UNL     1     138.860 125.430  87.462  1.00  0.00     0.010 A 
HETATM    9  C6  UNL     1     139.467 125.423  86.283  1.00  0.00     0.026 A 
ENDROOT
BRANCH   1  10
HETATM   10  C1  UNL     1     138.751 123.286  84.691  1.00  0.00     0.196 C 
BRANCH  10  11
HETATM   11  N3  UNL     1     138.108 123.980  83.600  1.00  0.00    -0.248 N 
ATOM     12  H3  UNL     1     137.200 124.421  83.751  1.00  0.00     0.197 HD
BRANCH  11  13
HETATM   13  N2  UNL     1     138.633 124.048  82.501  1.00  0.00    -0.248 NA
BRANCH  13  14
HETATM   14  N1  UNL     1     139.054 124.396  81.382  1.00  0.00    -0.261 N 
ATOM     15  H12 UNL     1     138.122 124.667  81.070  1.00  0.00     0.193 HD
ATOM     16  H11 UNL     1     139.617 124.610  80.558  1.00  0.00     0.193 HD
ENDBRANCH  13  14
ENDBRANCH  11  13
ENDBRANCH  10  11
ENDBRANCH   1  10
TORSDOF 4
ENDMDL
MODEL 4
REMARK VINA RESULT: -5.465302208      3.037      4.108
REMARK  4 active torsions:
REMARK  status: ('A' for Active; 'I' for Inactive)
REMARK    1  A    between atoms: N1_1  and  N2_4 
REMARK    2  A    between atoms: N2_4  and  N3_5 
REMARK    3  A    between atoms: N3_5  and  C1_7 
REMARK    4  A    between atoms: C1_7  and  C2_8 
ROOT
HETATM    1  C2  UNL     1     137.805 122.724  83.522  1.00  0.00    -0.008 A 
HETATM    2  C3  UNL     1     137.241 121.810  82.751  1.00  0.00     0.067 A 
HETATM    3  N4  UNL     1     136.954 121.090  81.650  1.00  0.00    -0.300 N 
ATOM      4  H4  UNL     1     137.373 121.232  80.731  1.00  0.00     0.187 HD
HETATM    5  N5  UNL     1     136.042 120.165  81.945  1.00  0.00    -0.311 N 
ATOM      6  H5  UNL     1     135.660 119.495  81.278  1.00  0.00     0.186 HD
HETATM    7  C4  UNL     1     135.698 120.238  83.231  1.00  0.00     0.120 A 
HETATM    8  C5  UNL     1     136.446 121.269  83.750  1.00  0.00     0.010 A 
HETATM    9  C6  UNL     1     136.974 122.163  84.574  1.00  0.00     0.026 A 
ENDROOT
BRANCH   1  10
HETATM   10  C1  UNL     1     138.822 123.817  83.364  1.00  0.00     0.196 C 
BRANCH  10  11
HETATM   11  N3  UNL     1     138.934 124.143  81.962  1.00  0.00    -0.248 N 
ATOM     12  H3  UNL     1     138.129 124.530  81.469  1.00  0.00     0.197 HD
BRANCH  11  13
HETATM   13  N2  UNL     1     139.978 123.961  81.356  1.00  0.00    -0.248 NA
BRANCH  13  14
HETATM   14  N1  UNL     1     141.140 124.005  80.908  1.00  0.00    -0.261 N 
ATOM     15  H12 UNL     1     141.166 125.023  80.963  1.00  0.00     0.193 HD
ATOM     16  H11 UNL     1     142.066 123.795  80.536  1.00  0.00     0.193 HD
ENDBRANCH  13  14
ENDBRANCH  11  13
ENDBRANCH  10  11
ENDBRANCH   1  10
TORSDOF 4
ENDMDL
MODEL 5
REMARK VINA RESULT: -5.298843156      2.100      4.959
REMARK  4 active torsions:
REMARK  status: ('A' for Active; 'I' for Inactive)
REMARK    1  A    between atoms: N1_1  and  N2_4 
REMARK    2  A    between atoms: N2_4  and  N3_5 
REMARK    3  A    between atoms: N3_5  and  C1_7 
REMARK    4  A    between atoms: C1_7  and  C2_8 
ROOT
HETATM    1  C2  UNL     1     138.465 123.552  85.644  1.00  0.00    -0.008 A 
HETATM    2  C3  UNL     1     138.015 124.161  86.728  1.00  0.00     0.067 A 
HETATM    3  N4  UNL     1     137.344 124.356  87.878  1.00  0.00    -0.300 N 
ATOM      4  H4  UNL     1     136.748 123.665  88.335  1.00  0.00     0.187 HD
HETATM    5  N5  UNL     1     137.577 125.587  88.329  1.00  0.00    -0.311 N 
ATOM      6  H5  UNL     1     137.182 125.976  89.185  1.00  0.00     0.186 HD
HETATM    7  C4  UNL     1     138.399 126.241  87.507  1.00  0.00     0.120 A 
HETATM    8  C5  UNL     1     138.681 125.354  86.495  1.00  0.00     0.010 A 
HETATM    9  C6  UNL     1     139.167 124.800  85.392  1.00  0.00     0.026 A 
ENDROOT
BRANCH   1  10
HETATM   10  C1  UNL     1     138.312 122.206  84.996  1.00  0.00     0.196 C 
BRANCH  10  11
HETATM   11  N3  UNL     1     137.088 122.202  84.229  1.00  0.00    -0.248 N 
ATOM     12  H3  UNL     1     136.361 122.887  84.439  1.00  0.00     0.197 HD
BRANCH  11  13
HETATM   13  N2  UNL     1     136.909 121.392  83.335  1.00  0.00    -0.248 NA
BRANCH  13  14
HETATM   14  N1  UNL     1     137.006 120.647  82.341  1.00  0.00    -0.261 N 
ATOM     15  H12 UNL     1     138.023 120.616  82.412  1.00  0.00     0.193 HD
ATOM     16  H11 UNL     1     136.839 120.055  81.527  1.00  0.00     0.193 HD
ENDBRANCH  13  14
ENDBRANCH  11  13
ENDBRANCH  10  11
ENDBRANCH   1  10
TORSDOF 4
ENDMDL
