MODEL 1
REMARK VINA RESULT: -6.749123046      0.000      0.000
REMARK  3 active torsions:
REMARK  status: ('A' for Active; 'I' for Inactive)
REMARK    1  A    between atoms: N1_6  and  N2_8 
REMARK    2  A    between atoms: C6_10  and  C7_11 
REMARK    3  A    between atoms: N3_12  and  O1_14 
ROOT
HETATM    1  N2  UNL     1     137.432 122.886  85.068  1.00  0.00    -0.310 N 
ATOM      2  H2  UNL     1     137.998 123.414  84.403  1.00  0.00     0.186 HD
HETATM    3  C6  UNL     1     136.926 121.790  84.669  1.00  0.00     0.126 C 
ENDROOT
BRANCH   1   4
HETATM    4  N1  UNL     1     137.275 123.418  86.335  1.00  0.00    -0.305 N 
HETATM    5  C5  UNL     1     138.039 124.380  86.716  1.00  0.00     0.031 C 
HETATM    6  C2  UNL     1     138.127 125.136  87.949  1.00  0.00    -0.043 C 
HETATM    7  C4  UNL     1     139.159 125.199  86.188  1.00  0.00     0.064 C 
HETATM    8  C1  UNL     1     137.812 124.867  89.191  1.00  0.00     0.021 C 
HETATM    9  C3  UNL     1     138.696 126.266  87.187  1.00  0.00     0.045 C 
ATOM     10  H1  UNL     1     136.559 123.052  86.962  1.00  0.00     0.186 HD
ENDBRANCH   1   4
BRANCH   3  11
HETATM   11  C7  UNL     1     137.137 121.295  83.317  1.00  0.00     0.132 C 
HETATM   12  N3  UNL     1     136.172 120.663  82.750  1.00  0.00    -0.279 N 
ATOM     13  H3  UNL     1     135.305 120.536  83.272  1.00  0.00     0.193 HD
BRANCH  12  14
HETATM   14  O1  UNL     1     136.246 120.151  81.484  1.00  0.00    -0.290 OA
ATOM     15  H1  UNL     1     135.484 119.897  80.976  1.00  0.00     0.244 HD
ENDBRANCH  12  14
ENDBRANCH   3  11
TORSDOF 3
ENDMDL
MODEL 2
REMARK VINA RESULT: -6.672698899      0.941      1.595
REMARK  3 active torsions:
REMARK  status: ('A' for Active; 'I' for Inactive)
REMARK    1  A    between atoms: N1_6  and  N2_8 
REMARK    2  A    between atoms: C6_10  and  C7_11 
REMARK    3  A    between atoms: N3_12  and  O1_14 
ROOT
HETATM    1  N2  UNL     1     137.598 122.767  85.116  1.00  0.00    -0.310 N 
ATOM      2  H2  UNL     1     136.769 122.598  85.687  1.00  0.00     0.186 HD
HETATM    3  C6  UNL     1     137.674 122.163  83.999  1.00  0.00     0.126 C 
ENDROOT
BRANCH   1   4
HETATM    4  N1  UNL     1     138.551 123.636  85.616  1.00  0.00    -0.305 N 
HETATM    5  C5  UNL     1     138.335 124.236  86.733  1.00  0.00     0.031 C 
HETATM    6  C2  UNL     1     139.114 125.181  87.508  1.00  0.00    -0.043 C 
HETATM    7  C4  UNL     1     137.286 124.312  87.781  1.00  0.00     0.064 C 
HETATM    8  C1  UNL     1     140.033 126.058  87.191  1.00  0.00     0.021 C 
HETATM    9  C3  UNL     1     138.425 124.714  88.726  1.00  0.00     0.045 C 
ATOM     10  H1  UNL     1     139.417 123.801  85.103  1.00  0.00     0.186 HD
ENDBRANCH   1   4
BRANCH   3  11
HETATM   11  C7  UNL     1     136.629 121.262  83.541  1.00  0.00     0.132 C 
HETATM   12  N3  UNL     1     136.824 120.620  82.445  1.00  0.00    -0.279 N 
ATOM     13  H3  UNL     1     137.701 120.772  81.946  1.00  0.00     0.193 HD
BRANCH  12  14
HETATM   14  O1  UNL     1     135.920 119.745  81.911  1.00  0.00    -0.290 OA
ATOM     15  H1  UNL     1     136.079 118.811  81.830  1.00  0.00     0.244 HD
ENDBRANCH  12  14
ENDBRANCH   3  11
TORSDOF 3
ENDMDL
MODEL 3
REMARK VINA RESULT: -5.851182971      1.321      1.806
REMARK  3 active torsions:
REMARK  status: ('A' for Active; 'I' for Inactive)
REMARK    1  A    between atoms: N1_6  and  N2_8 
REMARK    2  A    between atoms: C6_10  and  C7_11 
REMARK    3  A    between atoms: N3_12  and  O1_14 
ROOT
HETATM    1  N2  UNL     1     138.573 123.357  84.416  1.00  0.00    -0.310 N 
ATOM      2  H2  UNL     1     138.908 122.448  84.735  1.00  0.00     0.186 HD
HETATM    3  C6  UNL     1     137.964 123.399  83.300  1.00  0.00     0.126 C 
ENDROOT
BRANCH   1   4
HETATM    4  N1  UNL     1     138.816 124.448  85.230  1.00  0.00    -0.305 N 
HETATM    5  C5  UNL     1     138.253 124.514  86.384  1.00  0.00     0.031 C 
HETATM    6  C2  UNL     1     138.301 125.498  87.447  1.00  0.00    -0.043 C 
HETATM    7  C4  UNL     1     137.325 123.718  87.227  1.00  0.00     0.064 C 
HETATM    8  C1  UNL     1     138.539 126.785  87.467  1.00  0.00     0.021 C 
HETATM    9  C3  UNL     1     137.979 124.432  88.416  1.00  0.00     0.045 C 
ATOM     10  H1  UNL     1     139.437 125.195  84.917  1.00  0.00     0.186 HD
ENDBRANCH   1   4
BRANCH   3  11
HETATM   11  C7  UNL     1     137.747 122.204  82.499  1.00  0.00     0.132 C 
HETATM   12  N3  UNL     1     137.004 121.277  82.990  1.00  0.00    -0.279 N 
ATOM     13  H3  UNL     1     136.603 121.420  83.916  1.00  0.00     0.193 HD
BRANCH  12  14
HETATM   14  O1  UNL     1     136.725 120.109  82.336  1.00  0.00    -0.290 OA
ATOM     15  H1  UNL     1     136.027 119.518  82.595  1.00  0.00     0.244 HD
ENDBRANCH  12  14
ENDBRANCH   3  11
TORSDOF 3
ENDMDL
MODEL 4
REMARK VINA RESULT: -5.811610907      2.552      2.700
REMARK  3 active torsions:
REMARK  status: ('A' for Active; 'I' for Inactive)
REMARK    1  A    between atoms: N1_6  and  N2_8 
REMARK    2  A    between atoms: C6_10  and  C7_11 
REMARK    3  A    between atoms: N3_12  and  O1_14 
ROOT
HETATM    1  N2  UNL     1     138.638 123.791  84.374  1.00  0.00    -0.310 N 
ATOM      2  H2  UNL     1     139.617 124.066  84.289  1.00  0.00     0.186 HD
HETATM    3  C6  UNL     1     138.018 123.490  83.305  1.00  0.00     0.126 C 
ENDROOT
BRANCH   1   4
HETATM    4  N1  UNL     1     138.087 123.776  85.643  1.00  0.00    -0.305 N 
HETATM    5  C5  UNL     1     138.478 124.639  86.512  1.00  0.00     0.031 C 
HETATM    6  C2  UNL     1     138.106 124.882  87.891  1.00  0.00    -0.043 C 
HETATM    7  C4  UNL     1     139.429 125.774  86.617  1.00  0.00     0.064 C 
HETATM    8  C1  UNL     1     137.621 124.119  88.837  1.00  0.00     0.021 C 
HETATM    9  C3  UNL     1     138.506 126.294  87.725  1.00  0.00     0.045 C 
ATOM     10  H1  UNL     1     137.377 123.085  85.887  1.00  0.00     0.186 HD
ENDBRANCH   1   4
BRANCH   3  11
HETATM   11  C7  UNL     1     138.668 123.531  82.004  1.00  0.00     0.132 C 
HETATM   12  N3  UNL     1     139.901 123.892  81.958  1.00  0.00    -0.279 N 
ATOM     13  H3  UNL     1     140.367 124.133  82.833  1.00  0.00     0.193 HD
BRANCH  12  14
HETATM   14  O1  UNL     1     140.622 123.970  80.799  1.00  0.00    -0.290 OA
ATOM     15  H1  UNL     1     141.566 123.869  80.761  1.00  0.00     0.244 HD
ENDBRANCH  12  14
ENDBRANCH   3  11
TORSDOF 3
ENDMDL
MODEL 5
REMARK VINA RESULT: -5.176106285      3.190      5.744
REMARK  3 active torsions:
REMARK  status: ('A' for Active; 'I' for Inactive)
REMARK    1  A    between atoms: N1_6  and  N2_8 
REMARK    2  A    between atoms: C6_10  and  C7_11 
REMARK    3  A    between atoms: N3_12  and  O1_14 
ROOT
HETATM    1  N2  UNL     1     137.365 123.205  85.871  1.00  0.00    -0.310 N 
ATOM      2  H2  UNL     1     136.561 123.578  86.376  1.00  0.00     0.186 HD
HETATM    3  C6  UNL     1     138.501 123.728  86.109  1.00  0.00     0.126 C 
ENDROOT
BRANCH   1   4
HETATM    4  N1  UNL     1     137.138 122.171  84.981  1.00  0.00    -0.305 N 
HETATM    5  C5  UNL     1     137.363 122.355  83.728  1.00  0.00     0.031 C 
HETATM    6  C2  UNL     1     137.230 121.496  82.569  1.00  0.00    -0.043 C 
HETATM    7  C4  UNL     1     137.839 123.429  82.820  1.00  0.00     0.064 C 
HETATM    8  C1  UNL     1     136.474 120.460  82.303  1.00  0.00     0.021 C 
HETATM    9  C3  UNL     1     138.274 122.289  81.891  1.00  0.00     0.045 C 
ATOM     10  H1  UNL     1     136.795 121.271  85.315  1.00  0.00     0.186 HD
ENDBRANCH   1   4
BRANCH   3  11
HETATM   11  C7  UNL     1     138.659 124.816  87.061  1.00  0.00     0.132 C 
HETATM   12  N3  UNL     1     138.061 125.927  86.812  1.00  0.00    -0.279 N 
ATOM     13  H3  UNL     1     137.505 125.995  85.961  1.00  0.00     0.193 HD
BRANCH  12  14
HETATM   14  O1  UNL     1     138.131 127.021  87.629  1.00  0.00    -0.290 OA
ATOM     15  H1  UNL     1     137.913 127.901  87.345  1.00  0.00     0.244 HD
ENDBRANCH  12  14
ENDBRANCH   3  11
TORSDOF 3
ENDMDL
