MODEL 1
REMARK VINA RESULT: -6.151617097      0.000      0.000
REMARK  3 active torsions:
REMARK  status: ('A' for Active; 'I' for Inactive)
REMARK    1  A    between atoms: N1_2  and  C2_3 
REMARK    2  A    between atoms: C2_3  and  N2_4 
REMARK    3  A    between atoms: N2_4  and  C3_6 
ROOT
HETATM    1  N2  UNL     1     138.222 124.449  85.402  1.00  0.00    -0.379 N 
ATOM      2  H2  UNL     1     137.227 124.259  85.276  1.00  0.00     0.160 HD
ENDROOT
BRANCH   1   3
HETATM    3  C2  UNL     1     139.173 123.644  84.696  1.00  0.00     0.270 C 
BRANCH   3   4
HETATM    4  N1  UNL     1     138.678 123.614  83.296  1.00  0.00    -0.268 N 
HETATM    5  C1  UNL     1     137.993 123.045  82.386  1.00  0.00     0.219 A 
HETATM    6  N3  UNL     1     138.679 124.274  82.032  1.00  0.00    -0.290 N 
ATOM      7  H3  UNL     1     138.947 125.019  81.389  1.00  0.00     0.188 HD
ENDBRANCH   3   4
ENDBRANCH   1   3
BRANCH   1   8
HETATM    8  C3  UNL     1     138.605 125.481  86.254  1.00  0.00    -0.017 C 
HETATM    9  C4  UNL     1     139.864 125.507  87.027  1.00  0.00     0.052 C 
HETATM   10  C5  UNL     1     139.790 124.653  88.244  1.00  0.00     0.006 C 
HETATM   11  C6  UNL     1     138.494 124.580  88.945  1.00  0.00     0.001 C 
HETATM   12  C7  UNL     1     137.382 125.407  88.480  1.00  0.00     0.006 C 
HETATM   13  C8  UNL     1     137.380 125.855  87.084  1.00  0.00     0.052 C 
ENDBRANCH   1   8
TORSDOF 3
ENDMDL
MODEL 2
REMARK VINA RESULT: -6.039171490      1.068      1.146
REMARK  3 active torsions:
REMARK  status: ('A' for Active; 'I' for Inactive)
REMARK    1  A    between atoms: N1_2  and  C2_3 
REMARK    2  A    between atoms: C2_3  and  N2_4 
REMARK    3  A    between atoms: N2_4  and  C3_6 
ROOT
HETATM    1  N2  UNL     1     138.650 123.222  85.724  1.00  0.00    -0.379 N 
ATOM      2  H2  UNL     1     139.572 122.883  85.998  1.00  0.00     0.160 HD
ENDROOT
BRANCH   1   3
HETATM    3  C2  UNL     1     137.855 122.419  84.842  1.00  0.00     0.270 C 
BRANCH   3   4
HETATM    4  N1  UNL     1     138.098 122.987  83.491  1.00  0.00    -0.268 N 
HETATM    5  C1  UNL     1     137.964 122.907  82.227  1.00  0.00     0.219 A 
HETATM    6  N3  UNL     1     138.676 124.059  82.750  1.00  0.00    -0.290 N 
ATOM      7  H3  UNL     1     139.185 124.939  82.660  1.00  0.00     0.188 HD
ENDBRANCH   3   4
ENDBRANCH   1   3
BRANCH   1   8
HETATM    8  C3  UNL     1     138.209 124.445  86.219  1.00  0.00    -0.017 C 
HETATM    9  C4  UNL     1     139.077 125.616  86.459  1.00  0.00     0.052 C 
HETATM   10  C5  UNL     1     139.853 125.486  87.724  1.00  0.00     0.006 C 
HETATM   11  C6  UNL     1     139.195 124.811  88.857  1.00  0.00     0.001 C 
HETATM   12  C7  UNL     1     137.802 124.387  88.726  1.00  0.00     0.006 C 
HETATM   13  C8  UNL     1     137.268 124.144  87.382  1.00  0.00     0.052 C 
ENDBRANCH   1   8
TORSDOF 3
ENDMDL
MODEL 3
REMARK VINA RESULT: -5.841153647      0.945      1.185
REMARK  3 active torsions:
REMARK  status: ('A' for Active; 'I' for Inactive)
REMARK    1  A    between atoms: N1_2  and  C2_3 
REMARK    2  A    between atoms: C2_3  and  N2_4 
REMARK    3  A    between atoms: N2_4  and  C3_6 
ROOT
HETATM    1  N2  UNL     1     138.433 124.114  85.519  1.00  0.00    -0.379 N 
ATOM      2  H2  UNL     1     137.895 123.380  85.981  1.00  0.00     0.160 HD
ENDROOT
BRANCH   1   3
HETATM    3  C2  UNL     1     138.824 123.927  84.153  1.00  0.00     0.270 C 
BRANCH   3   4
HETATM    4  N1  UNL     1     137.885 122.903  83.629  1.00  0.00    -0.268 N 
HETATM    5  C1  UNL     1     137.508 122.145  82.677  1.00  0.00     0.219 A 
HETATM    6  N3  UNL     1     136.751 122.087  83.914  1.00  0.00    -0.290 N 
ATOM      7  H3  UNL     1     136.002 121.739  84.513  1.00  0.00     0.188 HD
ENDBRANCH   3   4
ENDBRANCH   1   3
BRANCH   1   8
HETATM    8  C3  UNL     1     138.762 125.259  86.239  1.00  0.00    -0.017 C 
HETATM    9  C4  UNL     1     139.934 125.383  87.129  1.00  0.00     0.052 C 
HETATM   10  C5  UNL     1     139.704 124.731  88.448  1.00  0.00     0.006 C 
HETATM   11  C6  UNL     1     138.341 124.793  89.008  1.00  0.00     0.001 C 
HETATM   12  C7  UNL     1     137.313 125.557  88.304  1.00  0.00     0.006 C 
HETATM   13  C8  UNL     1     137.471 125.781  86.863  1.00  0.00     0.052 C 
ENDBRANCH   1   8
TORSDOF 3
ENDMDL
MODEL 4
REMARK VINA RESULT: -5.777265978      1.383      1.515
REMARK  3 active torsions:
REMARK  status: ('A' for Active; 'I' for Inactive)
REMARK    1  A    between atoms: N1_2  and  C2_3 
REMARK    2  A    between atoms: C2_3  and  N2_4 
REMARK    3  A    between atoms: N2_4  and  C3_6 
ROOT
HETATM    1  N2  UNL     1     138.404 123.518  85.631  1.00  0.00    -0.379 N 
ATOM      2  H2  UNL     1     138.403 122.653  86.171  1.00  0.00     0.160 HD
ENDROOT
BRANCH   1   3
HETATM    3  C2  UNL     1     138.672 123.452  84.224  1.00  0.00     0.270 C 
BRANCH   3   4
HETATM    4  N1  UNL     1     137.732 122.426  83.708  1.00  0.00    -0.268 N 
HETATM    5  C1  UNL     1     136.757 121.632  83.907  1.00  0.00     0.219 A 
HETATM    6  N3  UNL     1     137.331 121.659  82.574  1.00  0.00    -0.290 N 
ATOM      7  H3  UNL     1     137.397 121.364  81.600  1.00  0.00     0.188 HD
ENDBRANCH   3   4
ENDBRANCH   1   3
BRANCH   1   8
HETATM    8  C3  UNL     1     138.144 124.719  86.285  1.00  0.00    -0.017 C 
HETATM    9  C4  UNL     1     139.163 125.742  86.598  1.00  0.00     0.052 C 
HETATM   10  C5  UNL     1     139.975 125.373  87.791  1.00  0.00     0.006 C 
HETATM   11  C6  UNL     1     139.292 124.653  88.882  1.00  0.00     0.001 C 
HETATM   12  C7  UNL     1     137.852 124.416  88.790  1.00  0.00     0.006 C 
HETATM   13  C8  UNL     1     137.229 124.398  87.463  1.00  0.00     0.052 C 
ENDBRANCH   1   8
TORSDOF 3
ENDMDL
MODEL 5
REMARK VINA RESULT: -5.684122345      1.058      1.562
REMARK  3 active torsions:
REMARK  status: ('A' for Active; 'I' for Inactive)
REMARK    1  A    between atoms: N1_2  and  C2_3 
REMARK    2  A    between atoms: C2_3  and  N2_4 
REMARK    3  A    between atoms: N2_4  and  C3_6 
ROOT
HETATM    1  N2  UNL     1     137.776 123.496  85.849  1.00  0.00    -0.379 N 
ATOM      2  H2  UNL     1     136.868 123.955  85.930  1.00  0.00     0.160 HD
ENDROOT
BRANCH   1   3
HETATM    3  C2  UNL     1     137.906 122.375  84.966  1.00  0.00     0.270 C 
BRANCH   3   4
HETATM    4  N1  UNL     1     138.119 122.974  83.624  1.00  0.00    -0.268 N 
HETATM    5  C1  UNL     1     137.953 122.926  82.362  1.00  0.00     0.219 A 
HETATM    6  N3  UNL     1     138.685 124.061  82.895  1.00  0.00    -0.290 N 
ATOM      7  H3  UNL     1     139.198 124.939  82.813  1.00  0.00     0.188 HD
ENDBRANCH   3   4
ENDBRANCH   1   3
BRANCH   1   8
HETATM    8  C3  UNL     1     138.842 123.981  86.600  1.00  0.00    -0.017 C 
HETATM    9  C4  UNL     1     139.041 123.722  88.041  1.00  0.00     0.052 C 
HETATM   10  C5  UNL     1     138.171 124.584  88.888  1.00  0.00     0.006 C 
HETATM   11  C6  UNL     1     137.905 125.955  88.415  1.00  0.00     0.001 C 
HETATM   12  C7  UNL     1     138.569 126.434  87.204  1.00  0.00     0.006 C 
HETATM   13  C8  UNL     1     139.027 125.447  86.220  1.00  0.00     0.052 C 
ENDBRANCH   1   8
TORSDOF 3
ENDMDL
