MODEL 1
REMARK VINA RESULT: -8.437319957      0.000      0.000
REMARK  9 active torsions:
REMARK  status: ('A' for Active; 'I' for Inactive)
REMARK    1  A    between atoms: C2_2  and  C3_3 
REMARK    2  A    between atoms: C3_3  and  C4_4 
REMARK    3  A    between atoms: C4_4  and  N1_5 
REMARK    4  A    between atoms: C6_7  and  C7_8 
REMARK    5  A    between atoms: C8_11  and  N2_12 
REMARK       I    between atoms: N2_12  and  C9_14 
REMARK    6  A    between atoms: C9_14  and  C10_16 
REMARK    7  A    between atoms: C10_16  and  C11_17 
REMARK    8  A    between atoms: C11_17  and  C12_18 
REMARK    9  A    between atoms: N3_21  and  C15_22 
ROOT
HETATM    1  N2  UNL     1      50.770  58.018  43.028  1.00  0.00    -0.311 N 
ATOM      2  H2  UNL     1      50.757  57.401  43.840  1.00  0.00     0.170 HD
HETATM    3  C9  UNL     1      51.420  59.276  43.135  1.00  0.00     0.223 C 
HETATM    4  O3  UNL     1      51.454  60.047  42.160  1.00  0.00    -0.273 OA
ENDROOT
BRANCH   1   5
HETATM    5  C8  UNL     1      50.138  57.587  41.832  1.00  0.00     0.141 A 
HETATM    6  C6  UNL     1      50.434  56.533  41.019  1.00  0.00     0.103 A 
HETATM    7  C5  UNL     1      49.508  56.572  40.001  1.00  0.00     0.132 A 
HETATM    8  N1  UNL     1      48.668  57.635  40.197  1.00  0.00    -0.301 N 
HETATM    9  N4  UNL     1      49.064  58.233  41.304  1.00  0.00    -0.283 N 
ATOM     10  H4  UNL     1      48.626  59.062  41.706  1.00  0.00     0.189 HD
BRANCH   6  11
HETATM   11  C7  UNL     1      51.488  55.554  41.161  1.00  0.00     0.214 C 
HETATM   12  O1  UNL     1      51.662  54.623  40.343  1.00  0.00    -0.644 OA
HETATM   13  O2  UNL     1      52.389  55.586  42.227  1.00  0.00    -0.644 OA
ENDBRANCH   6  11
BRANCH   8  14
HETATM   14  C4  UNL     1      47.579  57.981  39.304  1.00  0.00     0.148 C 
BRANCH  14  15
HETATM   15  C3  UNL     1      46.262  57.616  39.904  1.00  0.00     0.021 C 
BRANCH  15  16
HETATM   16  C2  UNL     1      45.620  58.842  40.501  1.00  0.00    -0.003 C 
HETATM   17  C1  UNL     1      44.485  59.255  39.562  1.00  0.00     0.005 C 
ENDBRANCH  15  16
ENDBRANCH  14  15
ENDBRANCH   8  14
ENDBRANCH   1   5
BRANCH   3  18
HETATM   18  C10 UNL     1      52.060  59.668  44.405  1.00  0.00     0.103 C 
BRANCH  18  19
HETATM   19  C11 UNL     1      52.044  58.555  45.406  1.00  0.00     0.014 C 
BRANCH  19  20
HETATM   20  C12 UNL     1      52.072  59.138  46.794  1.00  0.00    -0.011 C 
HETATM   21  C13 UNL     1      50.775  58.754  47.479  1.00  0.00     0.024 C 
HETATM   22  C14 UNL     1      50.157  59.995  48.137  1.00  0.00     0.118 C 
HETATM   23  N3  UNL     1      51.134  60.715  48.890  1.00  0.00    -0.405 N 
HETATM   24  C19 UNL     1      52.300  61.121  48.193  1.00  0.00     0.118 C 
HETATM   25  C20 UNL     1      52.204  60.656  46.757  1.00  0.00     0.024 C 
BRANCH  23  26
HETATM   26  C15 UNL     1      50.608  61.639  49.830  1.00  0.00     0.017 C 
HETATM   27  C16 UNL     1      49.183  61.991  49.480  1.00  0.00     0.037 C 
HETATM   28  C17 UNL     1      51.387  62.918  49.936  1.00  0.00     0.037 C 
HETATM   29  C18 UNL     1      50.606  60.988  51.195  1.00  0.00     0.037 C 
ENDBRANCH  23  26
ENDBRANCH  19  20
ENDBRANCH  18  19
ENDBRANCH   3  18
TORSDOF 9
ENDMDL
MODEL 2
REMARK VINA RESULT: -8.316855918      0.746      1.484
REMARK  9 active torsions:
REMARK  status: ('A' for Active; 'I' for Inactive)
REMARK    1  A    between atoms: C2_2  and  C3_3 
REMARK    2  A    between atoms: C3_3  and  C4_4 
REMARK    3  A    between atoms: C4_4  and  N1_5 
REMARK    4  A    between atoms: C6_7  and  C7_8 
REMARK    5  A    between atoms: C8_11  and  N2_12 
REMARK       I    between atoms: N2_12  and  C9_14 
REMARK    6  A    between atoms: C9_14  and  C10_16 
REMARK    7  A    between atoms: C10_16  and  C11_17 
REMARK    8  A    between atoms: C11_17  and  C12_18 
REMARK    9  A    between atoms: N3_21  and  C15_22 
ROOT
HETATM    1  N2  UNL     1      50.802  58.302  42.929  1.00  0.00    -0.311 N 
ATOM      2  H2  UNL     1      50.665  58.011  43.897  1.00  0.00     0.170 HD
HETATM    3  C9  UNL     1      51.730  59.340  42.651  1.00  0.00     0.223 C 
HETATM    4  O3  UNL     1      51.917  59.714  41.480  1.00  0.00    -0.273 OA
ENDROOT
BRANCH   1   5
HETATM    5  C8  UNL     1      50.056  57.655  41.910  1.00  0.00     0.141 A 
HETATM    6  C6  UNL     1      50.095  56.358  41.489  1.00  0.00     0.103 A 
HETATM    7  C5  UNL     1      49.168  56.264  40.475  1.00  0.00     0.132 A 
HETATM    8  N1  UNL     1      48.580  57.486  40.288  1.00  0.00    -0.301 N 
HETATM    9  N4  UNL     1      49.128  58.310  41.161  1.00  0.00    -0.283 N 
ATOM     10  H4  UNL     1      48.889  59.297  41.259  1.00  0.00     0.189 HD
BRANCH   6  11
HETATM   11  C7  UNL     1      50.920  55.277  41.978  1.00  0.00     0.214 C 
HETATM   12  O1  UNL     1      52.165  55.365  42.070  1.00  0.00    -0.644 OA
HETATM   13  O2  UNL     1      50.377  54.056  42.383  1.00  0.00    -0.644 OA
ENDBRANCH   6  11
BRANCH   8  14
HETATM   14  C4  UNL     1      47.562  57.750  39.289  1.00  0.00     0.148 C 
BRANCH  14  15
HETATM   15  C3  UNL     1      46.195  57.559  39.857  1.00  0.00     0.021 C 
BRANCH  15  16
HETATM   16  C2  UNL     1      45.685  58.869  40.400  1.00  0.00    -0.003 C 
HETATM   17  C1  UNL     1      44.463  59.255  39.564  1.00  0.00     0.005 C 
ENDBRANCH  15  16
ENDBRANCH  14  15
ENDBRANCH   8  14
ENDBRANCH   1   5
BRANCH   3  18
HETATM   18  C10 UNL     1      52.475  59.975  43.754  1.00  0.00     0.103 C 
BRANCH  18  19
HETATM   19  C11 UNL     1      52.315  59.229  45.041  1.00  0.00     0.014 C 
BRANCH  19  20
HETATM   20  C12 UNL     1      51.616  60.111  46.042  1.00  0.00    -0.011 C 
HETATM   21  C13 UNL     1      52.654  61.041  46.639  1.00  0.00     0.024 C 
HETATM   22  C14 UNL     1      52.524  61.038  48.168  1.00  0.00     0.118 C 
HETATM   23  N3  UNL     1      51.163  61.199  48.566  1.00  0.00    -0.405 N 
HETATM   24  C19 UNL     1      50.234  60.263  48.045  1.00  0.00     0.118 C 
HETATM   25  C20 UNL     1      50.966  59.289  47.149  1.00  0.00     0.024 C 
BRANCH  23  26
HETATM   26  C15 UNL     1      50.972  61.589  49.917  1.00  0.00     0.017 C 
HETATM   27  C16 UNL     1      51.760  62.840  50.219  1.00  0.00     0.037 C 
HETATM   28  C17 UNL     1      51.363  60.542  50.920  1.00  0.00     0.037 C 
HETATM   29  C18 UNL     1      49.507  61.900  50.125  1.00  0.00     0.037 C 
ENDBRANCH  23  26
ENDBRANCH  19  20
ENDBRANCH  18  19
ENDBRANCH   3  18
TORSDOF 9
ENDMDL
MODEL 3
REMARK VINA RESULT: -8.122689441      1.217      1.333
REMARK  9 active torsions:
REMARK  status: ('A' for Active; 'I' for Inactive)
REMARK    1  A    between atoms: C2_2  and  C3_3 
REMARK    2  A    between atoms: C3_3  and  C4_4 
REMARK    3  A    between atoms: C4_4  and  N1_5 
REMARK    4  A    between atoms: C6_7  and  C7_8 
REMARK    5  A    between atoms: C8_11  and  N2_12 
REMARK       I    between atoms: N2_12  and  C9_14 
REMARK    6  A    between atoms: C9_14  and  C10_16 
REMARK    7  A    between atoms: C10_16  and  C11_17 
REMARK    8  A    between atoms: C11_17  and  C12_18 
REMARK    9  A    between atoms: N3_21  and  C15_22 
ROOT
HETATM    1  N2  UNL     1      51.374  58.091  43.003  1.00  0.00    -0.311 N 
ATOM      2  H2  UNL     1      51.683  57.358  43.641  1.00  0.00     0.170 HD
HETATM    3  C9  UNL     1      51.625  59.446  43.344  1.00  0.00     0.223 C 
HETATM    4  O3  UNL     1      51.260  60.360  42.584  1.00  0.00    -0.273 OA
ENDROOT
BRANCH   1   5
HETATM    5  C8  UNL     1      50.706  57.719  41.806  1.00  0.00     0.141 A 
HETATM    6  C6  UNL     1      51.195  57.578  40.541  1.00  0.00     0.103 A 
HETATM    7  C5  UNL     1      50.123  57.201  39.764  1.00  0.00     0.132 A 
HETATM    8  N1  UNL     1      49.006  57.116  40.549  1.00  0.00    -0.301 N 
HETATM    9  N4  UNL     1      49.377  57.431  41.775  1.00  0.00    -0.283 N 
ATOM     10  H4  UNL     1      48.755  57.457  42.583  1.00  0.00     0.189 HD
BRANCH   6  11
HETATM   11  C7  UNL     1      52.548  57.773  40.072  1.00  0.00     0.214 C 
HETATM   12  O1  UNL     1      53.552  57.531  40.779  1.00  0.00    -0.644 OA
HETATM   13  O2  UNL     1      52.826  58.248  38.788  1.00  0.00    -0.644 OA
ENDBRANCH   6  11
BRANCH   8  14
HETATM   14  C4  UNL     1      47.693  56.753  40.051  1.00  0.00     0.148 C 
BRANCH  14  15
HETATM   15  C3  UNL     1      46.924  57.965  39.643  1.00  0.00     0.021 C 
BRANCH  15  16
HETATM   16  C2  UNL     1      45.642  58.041  40.431  1.00  0.00    -0.003 C 
HETATM   17  C1  UNL     1      44.830  59.203  39.855  1.00  0.00     0.005 C 
ENDBRANCH  15  16
ENDBRANCH  14  15
ENDBRANCH   8  14
ENDBRANCH   1   5
BRANCH   3  18
HETATM   18  C10 UNL     1      52.323  59.771  44.602  1.00  0.00     0.103 C 
BRANCH  18  19
HETATM   19  C11 UNL     1      52.284  58.633  45.573  1.00  0.00     0.014 C 
BRANCH  19  20
HETATM   20  C12 UNL     1      52.200  59.180  46.974  1.00  0.00    -0.011 C 
HETATM   21  C13 UNL     1      50.822  58.848  47.514  1.00  0.00     0.024 C 
HETATM   22  C14 UNL     1      50.204  60.105  48.142  1.00  0.00     0.118 C 
HETATM   23  N3  UNL     1      51.134  60.753  49.010  1.00  0.00    -0.405 N 
HETATM   24  C19 UNL     1      52.384  61.115  48.446  1.00  0.00     0.118 C 
HETATM   25  C20 UNL     1      52.411  60.689  46.995  1.00  0.00     0.024 C 
BRANCH  23  26
HETATM   26  C15 UNL     1      50.563  61.682  49.919  1.00  0.00     0.017 C 
HETATM   27  C16 UNL     1      49.139  61.992  49.527  1.00  0.00     0.037 C 
HETATM   28  C17 UNL     1      51.308  62.981  50.022  1.00  0.00     0.037 C 
HETATM   29  C18 UNL     1      50.540  61.055  51.295  1.00  0.00     0.037 C 
ENDBRANCH  23  26
ENDBRANCH  19  20
ENDBRANCH  18  19
ENDBRANCH   3  18
TORSDOF 9
ENDMDL
MODEL 4
REMARK VINA RESULT: -7.835260686      1.581      1.744
REMARK  9 active torsions:
REMARK  status: ('A' for Active; 'I' for Inactive)
REMARK    1  A    between atoms: C2_2  and  C3_3 
REMARK    2  A    between atoms: C3_3  and  C4_4 
REMARK    3  A    between atoms: C4_4  and  N1_5 
REMARK    4  A    between atoms: C6_7  and  C7_8 
REMARK    5  A    between atoms: C8_11  and  N2_12 
REMARK       I    between atoms: N2_12  and  C9_14 
REMARK    6  A    between atoms: C9_14  and  C10_16 
REMARK    7  A    between atoms: C10_16  and  C11_17 
REMARK    8  A    between atoms: C11_17  and  C12_18 
REMARK    9  A    between atoms: N3_21  and  C15_22 
ROOT
HETATM    1  N2  UNL     1      51.591  56.839  43.111  1.00  0.00    -0.311 N 
ATOM      2  H2  UNL     1      52.217  56.036  43.171  1.00  0.00     0.170 HD
HETATM    3  C9  UNL     1      51.499  57.721  44.220  1.00  0.00     0.223 C 
HETATM    4  O3  UNL     1      50.744  58.708  44.173  1.00  0.00    -0.273 OA
ENDROOT
BRANCH   1   5
HETATM    5  C8  UNL     1      50.842  57.033  41.920  1.00  0.00     0.141 A 
HETATM    6  C6  UNL     1      51.234  57.534  40.714  1.00  0.00     0.103 A 
HETATM    7  C5  UNL     1      50.115  57.503  39.912  1.00  0.00     0.132 A 
HETATM    8  N1  UNL     1      49.065  56.991  40.625  1.00  0.00    -0.301 N 
HETATM    9  N4  UNL     1      49.522  56.715  41.831  1.00  0.00    -0.283 N 
ATOM     10  H4  UNL     1      48.965  56.319  42.589  1.00  0.00     0.189 HD
BRANCH   6  11
HETATM   11  C7  UNL     1      52.541  58.009  40.318  1.00  0.00     0.214 C 
HETATM   12  O1  UNL     1      52.859  58.198  39.123  1.00  0.00    -0.644 OA
HETATM   13  O2  UNL     1      53.540  58.292  41.252  1.00  0.00    -0.644 OA
ENDBRANCH   6  11
BRANCH   8  14
HETATM   14  C4  UNL     1      47.727  56.826  40.090  1.00  0.00     0.148 C 
BRANCH  14  15
HETATM   15  C3  UNL     1      47.011  58.135  40.032  1.00  0.00     0.021 C 
BRANCH  15  16
HETATM   16  C2  UNL     1      45.542  57.919  40.286  1.00  0.00    -0.003 C 
HETATM   17  C1  UNL     1      44.819  59.195  39.849  1.00  0.00     0.005 C 
ENDBRANCH  15  16
ENDBRANCH  14  15
ENDBRANCH   8  14
ENDBRANCH   1   5
BRANCH   3  18
HETATM   18  C10 UNL     1      52.303  57.465  45.430  1.00  0.00     0.103 C 
BRANCH  18  19
HETATM   19  C11 UNL     1      51.520  56.739  46.479  1.00  0.00     0.014 C 
BRANCH  19  20
HETATM   20  C12 UNL     1      51.414  57.604  47.707  1.00  0.00    -0.011 C 
HETATM   21  C13 UNL     1      50.018  58.198  47.730  1.00  0.00     0.024 C 
HETATM   22  C14 UNL     1      50.109  59.707  47.993  1.00  0.00     0.118 C 
HETATM   23  N3  UNL     1      50.982  59.984  49.088  1.00  0.00    -0.405 N 
HETATM   24  C19 UNL     1      52.302  59.475  48.993  1.00  0.00     0.118 C 
HETATM   25  C20 UNL     1      52.448  58.724  47.689  1.00  0.00     0.024 C 
BRANCH  23  26
HETATM   26  C15 UNL     1      50.847  61.279  49.653  1.00  0.00     0.017 C 
HETATM   27  C16 UNL     1      49.576  61.933  49.169  1.00  0.00     0.037 C 
HETATM   28  C17 UNL     1      51.989  62.205  49.350  1.00  0.00     0.037 C 
HETATM   29  C18 UNL     1      50.755  61.140  51.156  1.00  0.00     0.037 C 
ENDBRANCH  23  26
ENDBRANCH  19  20
ENDBRANCH  18  19
ENDBRANCH   3  18
TORSDOF 9
ENDMDL
MODEL 5
REMARK VINA RESULT: -7.680830844      1.373      1.906
REMARK  9 active torsions:
REMARK  status: ('A' for Active; 'I' for Inactive)
REMARK    1  A    between atoms: C2_2  and  C3_3 
REMARK    2  A    between atoms: C3_3  and  C4_4 
REMARK    3  A    between atoms: C4_4  and  N1_5 
REMARK    4  A    between atoms: C6_7  and  C7_8 
REMARK    5  A    between atoms: C8_11  and  N2_12 
REMARK       I    between atoms: N2_12  and  C9_14 
REMARK    6  A    between atoms: C9_14  and  C10_16 
REMARK    7  A    between atoms: C10_16  and  C11_17 
REMARK    8  A    between atoms: C11_17  and  C12_18 
REMARK    9  A    between atoms: N3_21  and  C15_22 
ROOT
HETATM    1  N2  UNL     1      50.947  58.341  42.713  1.00  0.00    -0.311 N 
ATOM      2  H2  UNL     1      50.860  58.127  43.707  1.00  0.00     0.170 HD
HETATM    3  C9  UNL     1      51.907  59.303  42.301  1.00  0.00     0.223 C 
HETATM    4  O3  UNL     1      52.034  59.583  41.097  1.00  0.00    -0.273 OA
ENDROOT
BRANCH   1   5
HETATM    5  C8  UNL     1      50.102  57.667  41.793  1.00  0.00     0.141 A 
HETATM    6  C6  UNL     1      50.044  56.344  41.468  1.00  0.00     0.103 A 
HETATM    7  C5  UNL     1      49.048  56.232  40.524  1.00  0.00     0.132 A 
HETATM    8  N1  UNL     1      48.515  57.468  40.283  1.00  0.00    -0.301 N 
HETATM    9  N4  UNL     1      49.162  58.319  41.056  1.00  0.00    -0.283 N 
ATOM     10  H4  UNL     1      48.983  59.323  41.096  1.00  0.00     0.189 HD
BRANCH   6  11
HETATM   11  C7  UNL     1      50.842  55.254  41.983  1.00  0.00     0.214 C 
HETATM   12  O1  UNL     1      52.069  55.360  42.205  1.00  0.00    -0.644 OA
HETATM   13  O2  UNL     1      50.290  54.004  42.271  1.00  0.00    -0.644 OA
ENDBRANCH   6  11
BRANCH   8  14
HETATM   14  C4  UNL     1      47.448  57.719  39.333  1.00  0.00     0.148 C 
BRANCH  14  15
HETATM   15  C3  UNL     1      46.114  57.459  39.948  1.00  0.00     0.021 C 
BRANCH  15  16
HETATM   16  C2  UNL     1      45.562  58.739  40.520  1.00  0.00    -0.003 C 
HETATM   17  C1  UNL     1      44.471  59.224  39.562  1.00  0.00     0.005 C 
ENDBRANCH  15  16
ENDBRANCH  14  15
ENDBRANCH   8  14
ENDBRANCH   1   5
BRANCH   3  18
HETATM   18  C10 UNL     1      52.756  59.970  43.306  1.00  0.00     0.103 C 
BRANCH  18  19
HETATM   19  C11 UNL     1      51.951  60.536  44.433  1.00  0.00     0.014 C 
BRANCH  19  20
HETATM   20  C12 UNL     1      52.254  59.767  45.693  1.00  0.00    -0.011 C 
HETATM   21  C13 UNL     1      50.980  59.064  46.120  1.00  0.00     0.024 C 
HETATM   22  C14 UNL     1      50.737  59.311  47.615  1.00  0.00     0.118 C 
HETATM   23  N3  UNL     1      51.924  59.080  48.372  1.00  0.00    -0.405 N 
HETATM   24  C19 UNL     1      53.076  59.813  47.988  1.00  0.00     0.118 C 
HETATM   25  C20 UNL     1      52.728  60.693  46.807  1.00  0.00     0.024 C 
BRANCH  23  26
HETATM   26  C15 UNL     1      51.726  58.906  49.767  1.00  0.00     0.017 C 
HETATM   27  C16 UNL     1      53.053  58.816  50.478  1.00  0.00     0.037 C 
HETATM   28  C17 UNL     1      50.924  57.689  50.127  1.00  0.00     0.037 C 
HETATM   29  C18 UNL     1      50.992  60.115  50.301  1.00  0.00     0.037 C 
ENDBRANCH  23  26
ENDBRANCH  19  20
ENDBRANCH  18  19
ENDBRANCH   3  18
TORSDOF 9
ENDMDL
