MODEL 1
REMARK VINA RESULT: -8.011124872      0.000      0.000
REMARK  8 active torsions:
REMARK  status: ('A' for Active; 'I' for Inactive)
REMARK    1  A    between atoms: C2_2  and  C4_4 
REMARK    2  A    between atoms: C4_4  and  C5_5 
REMARK    3  A    between atoms: C5_5  and  S1_6 
REMARK    4  A    between atoms: C5_5  and  C9_18 
REMARK    5  A    between atoms: S1_6  and  C6_7 
REMARK    6  A    between atoms: C6_7  and  C7_8 
REMARK    7  A    between atoms: C7_8  and  C8_9 
REMARK       I    between atoms: C9_18  and  N5_20 
REMARK    8  A    between atoms: N5_20  and  C10_22 
ROOT
HETATM    1  C10 UNL     1      52.122  58.647  46.383  1.00  0.00     0.128 C 
HETATM    2  C11 UNL     1      50.740  58.313  46.811  1.00  0.00     0.091 C 
HETATM    3  N6  UNL     1      49.656  58.031  47.139  1.00  0.00    -0.195 NA
HETATM    4  C12 UNL     1      53.058  58.433  47.499  1.00  0.00     0.025 C 
HETATM    5  C13 UNL     1      53.564  57.038  47.729  1.00  0.00     0.014 C 
HETATM    6  C14 UNL     1      52.315  58.821  48.782  1.00  0.00     0.008 C 
HETATM    7  C15 UNL     1      51.855  60.239  48.752  1.00  0.00     0.001 C 
HETATM    8  C16 UNL     1      51.336  60.708  47.440  1.00  0.00     0.008 C 
HETATM    9  C17 UNL     1      52.060  60.208  46.239  1.00  0.00     0.025 C 
HETATM   10  C18 UNL     1      53.435  60.783  46.154  1.00  0.00     0.014 C 
ENDROOT
BRANCH   1  11
HETATM   11  N5  UNL     1      52.402  58.087  45.116  1.00  0.00    -0.337 N 
HETATM   12  C9  UNL     1      51.640  58.148  43.928  1.00  0.00     0.233 C 
HETATM   13  O1  UNL     1      50.553  58.751  43.832  1.00  0.00    -0.272 OA
ATOM     14  H5  UNL     1      53.275  57.564  45.051  1.00  0.00     0.164 HD
BRANCH  12  15
HETATM   15  C5  UNL     1      52.133  57.462  42.678  1.00  0.00     0.139 C 
BRANCH  15  16
HETATM   16  C4  UNL     1      51.875  55.999  42.758  1.00  0.00     0.028 C 
BRANCH  16  17
HETATM   17  C2  UNL     1      53.046  55.170  42.307  1.00  0.00    -0.021 C 
HETATM   18  C1  UNL     1      52.683  54.255  41.156  1.00  0.00     0.009 C 
HETATM   19  C3  UNL     1      54.201  56.069  41.840  1.00  0.00     0.009 C 
ENDBRANCH  16  17
ENDBRANCH  15  16
BRANCH  15  20
HETATM   20  S1  UNL     1      51.182  58.243  41.335  1.00  0.00    -0.154 SA
BRANCH  20  21
HETATM   21  C6  UNL     1      50.382  57.004  40.285  1.00  0.00     0.082 C 
BRANCH  21  22
HETATM   22  C7  UNL     1      49.137  57.642  39.711  1.00  0.00     0.089 C 
BRANCH  22  23
HETATM   23  C8  UNL     1      47.926  56.840  40.025  1.00  0.00     0.113 A 
HETATM   24  N1  UNL     1      47.823  55.605  40.515  1.00  0.00    -0.272 N 
HETATM   25  N2  UNL     1      46.514  55.358  40.611  1.00  0.00    -0.227 N 
ATOM     26  H1  UNL     1      48.588  54.977  40.766  1.00  0.00     0.190 HD
HETATM   27  N3  UNL     1      45.815  56.385  40.201  1.00  0.00    -0.227 N 
ATOM     28  H2  UNL     1      46.113  54.486  40.956  1.00  0.00     0.210 HD
HETATM   29  N4  UNL     1      46.681  57.312  39.835  1.00  0.00    -0.272 N 
ATOM     30  H3  UNL     1      44.799  56.456  40.170  1.00  0.00     0.210 HD
ATOM     31  H4  UNL     1      46.445  58.234  39.468  1.00  0.00     0.190 HD
ENDBRANCH  22  23
ENDBRANCH  21  22
ENDBRANCH  20  21
ENDBRANCH  15  20
ENDBRANCH  12  15
ENDBRANCH   1  11
TORSDOF 8
ENDMDL
MODEL 2
REMARK VINA RESULT: -7.777378750      2.101      5.055
REMARK  8 active torsions:
REMARK  status: ('A' for Active; 'I' for Inactive)
REMARK    1  A    between atoms: C2_2  and  C4_4 
REMARK    2  A    between atoms: C4_4  and  C5_5 
REMARK    3  A    between atoms: C5_5  and  S1_6 
REMARK    4  A    between atoms: C5_5  and  C9_18 
REMARK    5  A    between atoms: S1_6  and  C6_7 
REMARK    6  A    between atoms: C6_7  and  C7_8 
REMARK    7  A    between atoms: C7_8  and  C8_9 
REMARK       I    between atoms: C9_18  and  N5_20 
REMARK    8  A    between atoms: N5_20  and  C10_22 
ROOT
HETATM    1  C10 UNL     1      52.247  55.042  43.834  1.00  0.00     0.128 C 
HETATM    2  C11 UNL     1      53.722  55.031  44.012  1.00  0.00     0.091 C 
HETATM    3  N6  UNL     1      54.879  55.038  44.164  1.00  0.00    -0.195 NA
HETATM    4  C12 UNL     1      51.626  54.062  44.739  1.00  0.00     0.025 C 
HETATM    5  C13 UNL     1      51.368  54.485  46.157  1.00  0.00     0.014 C 
HETATM    6  C14 UNL     1      52.586  52.871  44.832  1.00  0.00     0.008 C 
HETATM    7  C15 UNL     1      52.842  52.259  43.496  1.00  0.00     0.001 C 
HETATM    8  C16 UNL     1      52.985  53.224  42.374  1.00  0.00     0.008 C 
HETATM    9  C17 UNL     1      52.076  54.403  42.412  1.00  0.00     0.025 C 
HETATM   10  C18 UNL     1      50.656  54.002  42.184  1.00  0.00     0.014 C 
ENDROOT
BRANCH   1  11
HETATM   11  N5  UNL     1      51.760  56.369  43.795  1.00  0.00    -0.337 N 
HETATM   12  C9  UNL     1      52.155  57.438  42.961  1.00  0.00     0.233 C 
HETATM   13  O1  UNL     1      53.039  57.345  42.087  1.00  0.00    -0.272 OA
ATOM     14  H5  UNL     1      51.020  56.584  44.463  1.00  0.00     0.164 HD
BRANCH  12  15
HETATM   15  C5  UNL     1      51.495  58.788  43.099  1.00  0.00     0.139 C 
BRANCH  15  16
HETATM   16  C4  UNL     1      52.525  59.854  43.225  1.00  0.00     0.028 C 
BRANCH  16  17
HETATM   17  C2  UNL     1      52.332  60.719  44.440  1.00  0.00    -0.021 C 
HETATM   18  C1  UNL     1      52.044  59.897  45.680  1.00  0.00     0.009 C 
HETATM   19  C3  UNL     1      53.590  61.555  44.719  1.00  0.00     0.009 C 
ENDBRANCH  16  17
ENDBRANCH  15  16
BRANCH  15  20
HETATM   20  S1  UNL     1      50.519  58.967  41.572  1.00  0.00    -0.154 SA
BRANCH  20  21
HETATM   21  C6  UNL     1      49.548  57.479  41.230  1.00  0.00     0.082 C 
BRANCH  21  22
HETATM   22  C7  UNL     1      48.834  57.702  39.917  1.00  0.00     0.089 C 
BRANCH  22  23
HETATM   23  C8  UNL     1      47.360  57.733  40.102  1.00  0.00     0.113 A 
HETATM   24  N1  UNL     1      46.455  56.774  39.910  1.00  0.00    -0.272 N 
HETATM   25  N2  UNL     1      45.276  57.317  40.222  1.00  0.00    -0.227 N 
ATOM     26  H1  UNL     1      46.628  55.821  39.589  1.00  0.00     0.190 HD
HETATM   27  N3  UNL     1      45.420  58.562  40.596  1.00  0.00    -0.227 N 
ATOM     28  H2  UNL     1      44.383  56.827  40.176  1.00  0.00     0.210 HD
HETATM   29  N4  UNL     1      46.711  58.832  40.526  1.00  0.00    -0.272 N 
ATOM     30  H3  UNL     1      44.680  59.200  40.885  1.00  0.00     0.210 HD
ATOM     31  H4  UNL     1      47.144  59.727  40.755  1.00  0.00     0.190 HD
ENDBRANCH  22  23
ENDBRANCH  21  22
ENDBRANCH  20  21
ENDBRANCH  15  20
ENDBRANCH  12  15
ENDBRANCH   1  11
TORSDOF 8
ENDMDL
MODEL 3
REMARK VINA RESULT: -7.776510529      2.026      5.190
REMARK  8 active torsions:
REMARK  status: ('A' for Active; 'I' for Inactive)
REMARK    1  A    between atoms: C2_2  and  C4_4 
REMARK    2  A    between atoms: C4_4  and  C5_5 
REMARK    3  A    between atoms: C5_5  and  S1_6 
REMARK    4  A    between atoms: C5_5  and  C9_18 
REMARK    5  A    between atoms: S1_6  and  C6_7 
REMARK    6  A    between atoms: C6_7  and  C7_8 
REMARK    7  A    between atoms: C7_8  and  C8_9 
REMARK       I    between atoms: C9_18  and  N5_20 
REMARK    8  A    between atoms: N5_20  and  C10_22 
ROOT
HETATM    1  C10 UNL     1      52.742  55.124  42.795  1.00  0.00     0.128 C 
HETATM    2  C11 UNL     1      51.900  54.431  43.802  1.00  0.00     0.091 C 
HETATM    3  N6  UNL     1      51.222  53.897  44.588  1.00  0.00    -0.195 NA
HETATM    4  C12 UNL     1      52.881  54.285  41.594  1.00  0.00     0.025 C 
HETATM    5  C13 UNL     1      51.779  54.334  40.575  1.00  0.00     0.014 C 
HETATM    6  C14 UNL     1      52.935  52.830  42.073  1.00  0.00     0.008 C 
HETATM    7  C15 UNL     1      54.072  52.594  43.008  1.00  0.00     0.001 C 
HETATM    8  C16 UNL     1      54.331  53.690  43.979  1.00  0.00     0.008 C 
HETATM    9  C17 UNL     1      54.164  55.074  43.455  1.00  0.00     0.025 C 
HETATM   10  C18 UNL     1      55.220  55.407  42.454  1.00  0.00     0.014 C 
ENDROOT
BRANCH   1  11
HETATM   11  N5  UNL     1      52.351  56.476  42.663  1.00  0.00    -0.337 N 
HETATM   12  C9  UNL     1      52.136  57.443  43.671  1.00  0.00     0.233 C 
HETATM   13  O1  UNL     1      52.277  57.216  44.889  1.00  0.00    -0.272 OA
ATOM     14  H5  UNL     1      52.205  56.800  41.708  1.00  0.00     0.164 HD
BRANCH  12  15
HETATM   15  C5  UNL     1      51.710  58.841  43.299  1.00  0.00     0.139 C 
BRANCH  15  16
HETATM   16  C4  UNL     1      52.825  59.798  43.529  1.00  0.00     0.028 C 
BRANCH  16  17
HETATM   17  C2  UNL     1      52.485  60.869  44.529  1.00  0.00    -0.021 C 
HETATM   18  C1  UNL     1      52.061  60.286  45.861  1.00  0.00     0.009 C 
HETATM   19  C3  UNL     1      53.695  61.780  44.784  1.00  0.00     0.009 C 
ENDBRANCH  16  17
ENDBRANCH  15  16
BRANCH  15  20
HETATM   20  S1  UNL     1      51.276  58.721  41.534  1.00  0.00    -0.154 SA
BRANCH  20  21
HETATM   21  C6  UNL     1      49.519  58.350  41.309  1.00  0.00     0.082 C 
BRANCH  21  22
HETATM   22  C7  UNL     1      49.422  57.267  40.259  1.00  0.00     0.089 C 
BRANCH  22  23
HETATM   23  C8  UNL     1      48.097  56.596  40.298  1.00  0.00     0.113 A 
HETATM   24  N1  UNL     1      47.769  55.377  40.724  1.00  0.00    -0.272 N 
HETATM   25  N2  UNL     1      46.450  55.269  40.543  1.00  0.00    -0.227 N 
ATOM     26  H1  UNL     1      48.397  54.672  41.110  1.00  0.00     0.190 HD
HETATM   27  N3  UNL     1      45.959  56.365  40.026  1.00  0.00    -0.227 N 
ATOM     28  H2  UNL     1      45.899  54.443  40.777  1.00  0.00     0.210 HD
HETATM   29  N4  UNL     1      46.972  57.198  39.869  1.00  0.00    -0.272 N 
ATOM     30  H3  UNL     1      44.984  56.543  39.789  1.00  0.00     0.210 HD
ATOM     31  H4  UNL     1      46.912  58.141  39.485  1.00  0.00     0.190 HD
ENDBRANCH  22  23
ENDBRANCH  21  22
ENDBRANCH  20  21
ENDBRANCH  15  20
ENDBRANCH  12  15
ENDBRANCH   1  11
TORSDOF 8
ENDMDL
MODEL 4
REMARK VINA RESULT: -7.611860316      2.612      6.021
REMARK  8 active torsions:
REMARK  status: ('A' for Active; 'I' for Inactive)
REMARK    1  A    between atoms: C2_2  and  C4_4 
REMARK    2  A    between atoms: C4_4  and  C5_5 
REMARK    3  A    between atoms: C5_5  and  S1_6 
REMARK    4  A    between atoms: C5_5  and  C9_18 
REMARK    5  A    between atoms: S1_6  and  C6_7 
REMARK    6  A    between atoms: C6_7  and  C7_8 
REMARK    7  A    between atoms: C7_8  and  C8_9 
REMARK       I    between atoms: C9_18  and  N5_20 
REMARK    8  A    between atoms: N5_20  and  C10_22 
ROOT
HETATM    1  C10 UNL     1      53.483  53.511  42.064  1.00  0.00     0.128 C 
HETATM    2  C11 UNL     1      53.024  52.788  40.851  1.00  0.00     0.091 C 
HETATM    3  N6  UNL     1      52.664  52.237  39.887  1.00  0.00    -0.195 NA
HETATM    4  C12 UNL     1      54.930  53.317  42.245  1.00  0.00     0.025 C 
HETATM    5  C13 UNL     1      55.858  54.210  41.472  1.00  0.00     0.014 C 
HETATM    6  C14 UNL     1      55.249  51.891  41.783  1.00  0.00     0.008 C 
HETATM    7  C15 UNL     1      54.485  50.871  42.558  1.00  0.00     0.001 C 
HETATM    8  C16 UNL     1      53.079  51.238  42.872  1.00  0.00     0.008 C 
HETATM    9  C17 UNL     1      52.843  52.666  43.221  1.00  0.00     0.025 C 
HETATM   10  C18 UNL     1      53.464  53.016  44.532  1.00  0.00     0.014 C 
ENDROOT
BRANCH   1  11
HETATM   11  N5  UNL     1      52.941  54.816  42.103  1.00  0.00    -0.337 N 
HETATM   12  C9  UNL     1      51.586  55.217  42.104  1.00  0.00     0.233 C 
HETATM   13  O1  UNL     1      50.628  54.420  42.076  1.00  0.00    -0.272 OA
ATOM     14  H5  UNL     1      53.622  55.573  42.134  1.00  0.00     0.164 HD
BRANCH  12  15
HETATM   15  C5  UNL     1      51.232  56.683  42.142  1.00  0.00     0.139 C 
BRANCH  15  16
HETATM   16  C4  UNL     1      52.128  57.405  43.084  1.00  0.00     0.028 C 
BRANCH  16  17
HETATM   17  C2  UNL     1      51.434  58.519  43.820  1.00  0.00    -0.021 C 
HETATM   18  C1  UNL     1      51.761  58.510  45.298  1.00  0.00     0.009 C 
HETATM   19  C3  UNL     1      51.854  59.885  43.259  1.00  0.00     0.009 C 
ENDBRANCH  16  17
ENDBRANCH  15  16
BRANCH  15  20
HETATM   20  S1  UNL     1      51.463  57.243  40.425  1.00  0.00    -0.154 SA
BRANCH  20  21
HETATM   21  C6  UNL     1      49.940  57.951  39.749  1.00  0.00     0.082 C 
BRANCH  21  22
HETATM   22  C7  UNL     1      48.925  57.977  40.869  1.00  0.00     0.089 C 
BRANCH  22  23
HETATM   23  C8  UNL     1      47.863  56.959  40.659  1.00  0.00     0.113 A 
HETATM   24  N1  UNL     1      47.889  55.643  40.865  1.00  0.00    -0.272 N 
HETATM   25  N2  UNL     1      46.679  55.196  40.521  1.00  0.00    -0.227 N 
ATOM     26  H1  UNL     1      48.673  55.091  41.215  1.00  0.00     0.190 HD
HETATM   27  N3  UNL     1      45.917  56.178  40.115  1.00  0.00    -0.227 N 
ATOM     28  H2  UNL     1      46.387  54.220  40.569  1.00  0.00     0.210 HD
HETATM   29  N4  UNL     1      46.641  57.279  40.195  1.00  0.00    -0.272 N 
ATOM     30  H3  UNL     1      44.951  56.107  39.796  1.00  0.00     0.210 HD
ATOM     31  H4  UNL     1      46.327  58.217  39.947  1.00  0.00     0.190 HD
ENDBRANCH  22  23
ENDBRANCH  21  22
ENDBRANCH  20  21
ENDBRANCH  15  20
ENDBRANCH  12  15
ENDBRANCH   1  11
TORSDOF 8
ENDMDL
MODEL 5
REMARK VINA RESULT: -7.554453224      4.097      5.745
REMARK  8 active torsions:
REMARK  status: ('A' for Active; 'I' for Inactive)
REMARK    1  A    between atoms: C2_2  and  C4_4 
REMARK    2  A    between atoms: C4_4  and  C5_5 
REMARK    3  A    between atoms: C5_5  and  S1_6 
REMARK    4  A    between atoms: C5_5  and  C9_18 
REMARK    5  A    between atoms: S1_6  and  C6_7 
REMARK    6  A    between atoms: C6_7  and  C7_8 
REMARK    7  A    between atoms: C7_8  and  C8_9 
REMARK       I    between atoms: C9_18  and  N5_20 
REMARK    8  A    between atoms: N5_20  and  C10_22 
ROOT
HETATM    1  C10 UNL     1      52.805  54.102  42.047  1.00  0.00     0.128 C 
HETATM    2  C11 UNL     1      52.792  53.169  40.891  1.00  0.00     0.091 C 
HETATM    3  N6  UNL     1      52.789  52.451  39.970  1.00  0.00    -0.195 NA
HETATM    4  C12 UNL     1      53.970  53.823  42.901  1.00  0.00     0.025 C 
HETATM    5  C13 UNL     1      55.286  54.432  42.510  1.00  0.00     0.014 C 
HETATM    6  C14 UNL     1      54.192  52.307  42.871  1.00  0.00     0.008 C 
HETATM    7  C15 UNL     1      52.996  51.560  43.359  1.00  0.00     0.001 C 
HETATM    8  C16 UNL     1      51.685  52.114  42.928  1.00  0.00     0.008 C 
HETATM    9  C17 UNL     1      51.586  53.599  42.897  1.00  0.00     0.025 C 
HETATM   10  C18 UNL     1      51.632  54.176  44.273  1.00  0.00     0.014 C 
ENDROOT
BRANCH   1  11
HETATM   11  N5  UNL     1      52.546  55.425  41.623  1.00  0.00    -0.337 N 
HETATM   12  C9  UNL     1      51.512  55.907  40.790  1.00  0.00     0.233 C 
HETATM   13  O1  UNL     1      50.630  55.182  40.291  1.00  0.00    -0.272 OA
ATOM     14  H5  UNL     1      53.197  56.131  41.967  1.00  0.00     0.164 HD
BRANCH  12  15
HETATM   15  C5  UNL     1      51.431  57.377  40.459  1.00  0.00     0.139 C 
BRANCH  15  16
HETATM   16  C4  UNL     1      52.541  57.762  39.546  1.00  0.00     0.028 C 
BRANCH  16  17
HETATM   17  C2  UNL     1      53.580  58.621  40.214  1.00  0.00    -0.021 C 
HETATM   18  C1  UNL     1      53.127  59.102  41.576  1.00  0.00     0.009 C 
HETATM   19  C3  UNL     1      54.888  57.840  40.407  1.00  0.00     0.009 C 
ENDBRANCH  16  17
ENDBRANCH  15  16
BRANCH  15  20
HETATM   20  S1  UNL     1      49.804  57.567  39.662  1.00  0.00    -0.154 SA
BRANCH  20  21
HETATM   21  C6  UNL     1      48.524  57.997  40.868  1.00  0.00     0.082 C 
BRANCH  21  22
HETATM   22  C7  UNL     1      47.306  57.163  40.543  1.00  0.00     0.089 C 
BRANCH  22  23
HETATM   23  C8  UNL     1      46.130  58.021  40.246  1.00  0.00     0.113 A 
HETATM   24  N1  UNL     1      45.956  59.328  40.435  1.00  0.00    -0.272 N 
HETATM   25  N2  UNL     1      44.723  59.599  39.999  1.00  0.00    -0.227 N 
ATOM     26  H1  UNL     1      46.627  59.986  40.832  1.00  0.00     0.190 HD
HETATM   27  N3  UNL     1      44.138  58.518  39.552  1.00  0.00    -0.227 N 
ATOM     28  H2  UNL     1      44.295  60.525  40.011  1.00  0.00     0.210 HD
HETATM   29  N4  UNL     1      45.002  57.530  39.700  1.00  0.00    -0.272 N 
ATOM     30  H3  UNL     1      43.197  58.451  39.165  1.00  0.00     0.210 HD
ATOM     31  H4  UNL     1      44.840  56.557  39.444  1.00  0.00     0.190 HD
ENDBRANCH  22  23
ENDBRANCH  21  22
ENDBRANCH  20  21
ENDBRANCH  15  20
ENDBRANCH  12  15
ENDBRANCH   1  11
TORSDOF 8
ENDMDL
