MODEL 1
REMARK VINA RESULT: -7.568214376      0.000      0.000
REMARK  10 active torsions:
REMARK  status: ('A' for Active; 'I' for Inactive)
REMARK    1  A    between atoms: C2_2  and  C3_3 
REMARK    2  A    between atoms: C3_3  and  C4_4 
REMARK    3  A    between atoms: C4_4  and  C5_5 
REMARK    4  A    between atoms: C5_5  and  C6_6 
REMARK    5  A    between atoms: C6_6  and  N1_7 
REMARK    6  A    between atoms: N1_7  and  C7_9 
REMARK    7  A    between atoms: C9_13  and  C10_14 
REMARK    8  A    between atoms: C10_14  and  N3_15 
REMARK    9  A    between atoms: C13_18  and  C14_19 
REMARK   10  A    between atoms: C16_23  and  N5_24 
ROOT
HETATM    1  C10 UNL     1      51.607  59.985  42.921  1.00  0.00     0.320 C 
ENDROOT
BRANCH   1   2
HETATM    2  C9  UNL     1      52.263  60.221  44.254  1.00  0.00     0.029 A 
HETATM    3  C8  UNL     1      53.131  61.205  44.650  1.00  0.00     0.106 A 
HETATM    4  N2  UNL     1      53.555  61.184  45.881  1.00  0.00    -0.346 N 
HETATM    5  C7  UNL     1      53.125  60.210  46.687  1.00  0.00     0.144 A 
ATOM      6  H2  UNL     1      54.202  61.896  46.221  1.00  0.00     0.167 HD
HETATM    7  S2  UNL     1      52.092  59.300  45.681  1.00  0.00    -0.056 SA
BRANCH   5   8
HETATM    8  N1  UNL     1      53.441  60.024  47.954  1.00  0.00    -0.370 N 
ATOM      9  H1  UNL     1      54.066  60.658  48.453  1.00  0.00     0.161 HD
BRANCH   8  10
HETATM   10  C6  UNL     1      52.850  58.866  48.599  1.00  0.00     0.121 C 
BRANCH  10  11
HETATM   11  C5  UNL     1      52.033  59.375  49.810  1.00  0.00     0.020 C 
BRANCH  11  12
HETATM   12  C4  UNL     1      50.659  58.852  49.626  1.00  0.00     0.002 C 
BRANCH  12  13
HETATM   13  C3  UNL     1      49.803  59.644  48.739  1.00  0.00    -0.000 C 
BRANCH  13  14
HETATM   14  C2  UNL     1      49.978  61.101  48.658  1.00  0.00    -0.005 C 
HETATM   15  C1  UNL     1      49.016  61.958  49.404  1.00  0.00     0.005 C 
ENDBRANCH  13  14
ENDBRANCH  12  13
ENDBRANCH  11  12
ENDBRANCH  10  11
ENDBRANCH   8  10
ENDBRANCH   5   8
ENDBRANCH   1   2
BRANCH   1  16
HETATM   16  N3  UNL     1      51.942  58.647  42.516  1.00  0.00     0.093 N 
HETATM   17  C11 UNL     1      52.435  58.581  41.181  1.00  0.00     0.273 C 
HETATM   18  C12 UNL     1      51.335  57.912  40.404  1.00  0.00     0.042 C 
HETATM   19  C13 UNL     1      50.771  56.926  41.406  1.00  0.00     0.057 C 
HETATM   20  C18 UNL     1      50.814  57.788  42.673  1.00  0.00     0.282 C 
BRANCH  19  21
HETATM   21  C14 UNL     1      49.346  56.650  41.000  1.00  0.00     0.007 A 
HETATM   22  C15 UNL     1      48.739  55.433  40.826  1.00  0.00     0.105 A 
HETATM   23  N4  UNL     1      47.488  55.423  40.470  1.00  0.00    -0.346 N 
HETATM   24  C16 UNL     1      46.864  56.588  40.294  1.00  0.00     0.144 A 
ATOM     25  H4  UNL     1      46.995  54.542  40.327  1.00  0.00     0.167 HD
HETATM   26  S1  UNL     1      48.079  57.734  40.640  1.00  0.00    -0.057 SA
BRANCH  24  27
HETATM   27  N5  UNL     1      45.613  56.782  39.937  1.00  0.00    -0.375 N 
HETATM   28  C17 UNL     1      45.155  58.165  39.935  1.00  0.00     0.148 C 
ATOM     29  H5  UNL     1      44.999  56.010  39.677  1.00  0.00     0.161 HD
ENDBRANCH  24  27
ENDBRANCH  19  21
ENDBRANCH   1  16
TORSDOF 10
ENDMDL
MODEL 2
REMARK VINA RESULT: -7.475508913      1.091      1.326
REMARK  10 active torsions:
REMARK  status: ('A' for Active; 'I' for Inactive)
REMARK    1  A    between atoms: C2_2  and  C3_3 
REMARK    2  A    between atoms: C3_3  and  C4_4 
REMARK    3  A    between atoms: C4_4  and  C5_5 
REMARK    4  A    between atoms: C5_5  and  C6_6 
REMARK    5  A    between atoms: C6_6  and  N1_7 
REMARK    6  A    between atoms: N1_7  and  C7_9 
REMARK    7  A    between atoms: C9_13  and  C10_14 
REMARK    8  A    between atoms: C10_14  and  N3_15 
REMARK    9  A    between atoms: C13_18  and  C14_19 
REMARK   10  A    between atoms: C16_23  and  N5_24 
ROOT
HETATM    1  C10 UNL     1      51.416  59.516  42.156  1.00  0.00     0.320 C 
ENDROOT
BRANCH   1   2
HETATM    2  C9  UNL     1      51.855  59.604  43.591  1.00  0.00     0.029 A 
HETATM    3  C8  UNL     1      52.321  60.675  44.308  1.00  0.00     0.106 A 
HETATM    4  N2  UNL     1      52.635  60.481  45.557  1.00  0.00    -0.346 N 
HETATM    5  C7  UNL     1      52.489  59.257  46.069  1.00  0.00     0.144 A 
ATOM      6  H2  UNL     1      52.986  61.248  46.131  1.00  0.00     0.167 HD
HETATM    7  S2  UNL     1      51.889  58.354  44.753  1.00  0.00    -0.056 SA
BRANCH   5   8
HETATM    8  N1  UNL     1      52.753  58.869  47.302  1.00  0.00    -0.370 N 
ATOM      9  H1  UNL     1      53.421  58.125  47.502  1.00  0.00     0.161 HD
BRANCH   8  10
HETATM   10  C6  UNL     1      52.038  59.563  48.358  1.00  0.00     0.121 C 
BRANCH  10  11
HETATM   11  C5  UNL     1      50.528  59.298  48.148  1.00  0.00     0.020 C 
BRANCH  11  12
HETATM   12  C4  UNL     1      49.874  59.616  49.439  1.00  0.00     0.002 C 
BRANCH  12  13
HETATM   13  C3  UNL     1      48.971  60.769  49.414  1.00  0.00    -0.000 C 
BRANCH  13  14
HETATM   14  C2  UNL     1      49.505  62.116  49.162  1.00  0.00    -0.005 C 
HETATM   15  C1  UNL     1      50.668  62.564  49.978  1.00  0.00     0.005 C 
ENDBRANCH  13  14
ENDBRANCH  12  13
ENDBRANCH  11  12
ENDBRANCH  10  11
ENDBRANCH   8  10
ENDBRANCH   5   8
ENDBRANCH   1   2
BRANCH   1  16
HETATM   16  N3  UNL     1      51.371  58.122  41.811  1.00  0.00     0.093 N 
HETATM   17  C11 UNL     1      51.742  57.874  40.458  1.00  0.00     0.273 C 
HETATM   18  C12 UNL     1      50.459  57.480  39.780  1.00  0.00     0.042 C 
HETATM   19  C13 UNL     1      49.729  56.716  40.865  1.00  0.00     0.057 C 
HETATM   20  C18 UNL     1      50.073  57.591  42.076  1.00  0.00     0.282 C 
BRANCH  19  21
HETATM   21  C14 UNL     1      48.257  56.800  40.551  1.00  0.00     0.007 A 
HETATM   22  C15 UNL     1      47.333  55.788  40.564  1.00  0.00     0.105 A 
HETATM   23  N4  UNL     1      46.104  56.083  40.257  1.00  0.00    -0.346 N 
HETATM   24  C16 UNL     1      45.808  57.346  39.948  1.00  0.00     0.144 A 
ATOM     25  H4  UNL     1      45.382  55.363  40.252  1.00  0.00     0.167 HD
HETATM   26  S1  UNL     1      47.309  58.142  40.094  1.00  0.00    -0.057 SA
BRANCH  24  27
HETATM   27  N5  UNL     1      44.633  57.836  39.614  1.00  0.00    -0.375 N 
HETATM   28  C17 UNL     1      44.491  59.282  39.715  1.00  0.00     0.148 C 
ATOM     29  H5  UNL     1      43.867  57.238  39.302  1.00  0.00     0.161 HD
ENDBRANCH  24  27
ENDBRANCH  19  21
ENDBRANCH   1  16
TORSDOF 10
ENDMDL
MODEL 3
REMARK VINA RESULT: -7.428826614      1.236      1.702
REMARK  10 active torsions:
REMARK  status: ('A' for Active; 'I' for Inactive)
REMARK    1  A    between atoms: C2_2  and  C3_3 
REMARK    2  A    between atoms: C3_3  and  C4_4 
REMARK    3  A    between atoms: C4_4  and  C5_5 
REMARK    4  A    between atoms: C5_5  and  C6_6 
REMARK    5  A    between atoms: C6_6  and  N1_7 
REMARK    6  A    between atoms: N1_7  and  C7_9 
REMARK    7  A    between atoms: C9_13  and  C10_14 
REMARK    8  A    between atoms: C10_14  and  N3_15 
REMARK    9  A    between atoms: C13_18  and  C14_19 
REMARK   10  A    between atoms: C16_23  and  N5_24 
ROOT
HETATM    1  C10 UNL     1      51.666  59.482  42.140  1.00  0.00     0.320 C 
ENDROOT
BRANCH   1   2
HETATM    2  C9  UNL     1      52.022  59.627  43.594  1.00  0.00     0.029 A 
HETATM    3  C8  UNL     1      51.993  58.704  44.606  1.00  0.00     0.106 A 
HETATM    4  N2  UNL     1      52.361  59.091  45.794  1.00  0.00    -0.346 N 
HETATM    5  C7  UNL     1      52.743  60.360  45.962  1.00  0.00     0.144 A 
ATOM      6  H2  UNL     1      52.356  58.439  46.579  1.00  0.00     0.167 HD
HETATM    7  S2  UNL     1      52.581  61.024  44.400  1.00  0.00    -0.056 SA
BRANCH   5   8
HETATM    8  N1  UNL     1      53.144  60.932  47.080  1.00  0.00    -0.370 N 
ATOM      9  H1  UNL     1      53.816  61.700  47.082  1.00  0.00     0.161 HD
BRANCH   8  10
HETATM   10  C6  UNL     1      52.577  60.407  48.309  1.00  0.00     0.121 C 
BRANCH  10  11
HETATM   11  C5  UNL     1      51.582  61.461  48.849  1.00  0.00     0.020 C 
BRANCH  11  12
HETATM   12  C4  UNL     1      50.247  61.055  48.353  1.00  0.00     0.002 C 
BRANCH  12  13
HETATM   13  C3  UNL     1      49.413  60.338  49.320  1.00  0.00    -0.000 C 
BRANCH  13  14
HETATM   14  C2  UNL     1      49.354  58.869  49.293  1.00  0.00    -0.005 C 
HETATM   15  C1  UNL     1      49.664  58.186  48.007  1.00  0.00     0.005 C 
ENDBRANCH  13  14
ENDBRANCH  12  13
ENDBRANCH  11  12
ENDBRANCH  10  11
ENDBRANCH   8  10
ENDBRANCH   5   8
ENDBRANCH   1   2
BRANCH   1  16
HETATM   16  N3  UNL     1      51.634  58.075  41.849  1.00  0.00     0.093 N 
HETATM   17  C11 UNL     1      52.007  57.779  40.506  1.00  0.00     0.273 C 
HETATM   18  C12 UNL     1      50.729  57.348  39.844  1.00  0.00     0.042 C 
HETATM   19  C13 UNL     1      50.005  56.620  40.958  1.00  0.00     0.057 C 
HETATM   20  C18 UNL     1      50.341  57.543  42.134  1.00  0.00     0.282 C 
BRANCH  19  21
HETATM   21  C14 UNL     1      48.533  56.678  40.641  1.00  0.00     0.007 A 
HETATM   22  C15 UNL     1      47.637  55.641  40.596  1.00  0.00     0.105 A 
HETATM   23  N4  UNL     1      46.402  55.917  40.298  1.00  0.00    -0.346 N 
HETATM   24  C16 UNL     1      46.071  57.185  40.055  1.00  0.00     0.144 A 
ATOM     25  H4  UNL     1      45.700  55.178  40.252  1.00  0.00     0.167 HD
HETATM   26  S1  UNL     1      47.548  58.015  40.250  1.00  0.00    -0.057 SA
BRANCH  24  27
HETATM   27  N5  UNL     1      44.884  57.658  39.740  1.00  0.00    -0.375 N 
HETATM   28  C17 UNL     1      44.723  59.102  39.846  1.00  0.00     0.148 C 
ATOM     29  H5  UNL     1      44.122  57.050  39.440  1.00  0.00     0.161 HD
ENDBRANCH  24  27
ENDBRANCH  19  21
ENDBRANCH   1  16
TORSDOF 10
ENDMDL
MODEL 4
REMARK VINA RESULT: -7.379723864      0.912      1.418
REMARK  10 active torsions:
REMARK  status: ('A' for Active; 'I' for Inactive)
REMARK    1  A    between atoms: C2_2  and  C3_3 
REMARK    2  A    between atoms: C3_3  and  C4_4 
REMARK    3  A    between atoms: C4_4  and  C5_5 
REMARK    4  A    between atoms: C5_5  and  C6_6 
REMARK    5  A    between atoms: C6_6  and  N1_7 
REMARK    6  A    between atoms: N1_7  and  C7_9 
REMARK    7  A    between atoms: C9_13  and  C10_14 
REMARK    8  A    between atoms: C10_14  and  N3_15 
REMARK    9  A    between atoms: C13_18  and  C14_19 
REMARK   10  A    between atoms: C16_23  and  N5_24 
ROOT
HETATM    1  C10 UNL     1      51.726  60.170  42.994  1.00  0.00     0.320 C 
ENDROOT
BRANCH   1   2
HETATM    2  C9  UNL     1      52.230  60.506  44.371  1.00  0.00     0.029 A 
HETATM    3  C8  UNL     1      53.280  61.295  44.759  1.00  0.00     0.106 A 
HETATM    4  N2  UNL     1      53.506  61.426  46.035  1.00  0.00    -0.346 N 
HETATM    5  C7  UNL     1      52.706  60.787  46.892  1.00  0.00     0.144 A 
ATOM      6  H2  UNL     1      54.276  62.004  46.372  1.00  0.00     0.167 HD
HETATM    7  S2  UNL     1      51.605  59.981  45.870  1.00  0.00    -0.056 SA
BRANCH   5   8
HETATM    8  N1  UNL     1      52.776  60.797  48.210  1.00  0.00    -0.370 N 
ATOM      9  H1  UNL     1      53.068  59.976  48.740  1.00  0.00     0.161 HD
BRANCH   8  10
HETATM   10  C6  UNL     1      52.412  62.042  48.861  1.00  0.00     0.121 C 
BRANCH  10  11
HETATM   11  C5  UNL     1      51.388  61.704  49.970  1.00  0.00     0.020 C 
BRANCH  11  12
HETATM   12  C4  UNL     1      50.051  61.959  49.385  1.00  0.00     0.002 C 
BRANCH  12  13
HETATM   13  C3  UNL     1      49.190  60.781  49.261  1.00  0.00    -0.000 C 
BRANCH  13  14
HETATM   14  C2  UNL     1      49.711  59.449  49.603  1.00  0.00    -0.005 C 
HETATM   15  C1  UNL     1      49.624  58.383  48.568  1.00  0.00     0.005 C 
ENDBRANCH  13  14
ENDBRANCH  12  13
ENDBRANCH  11  12
ENDBRANCH  10  11
ENDBRANCH   8  10
ENDBRANCH   5   8
ENDBRANCH   1   2
BRANCH   1  16
HETATM   16  N3  UNL     1      52.107  58.811  42.723  1.00  0.00     0.093 N 
HETATM   17  C11 UNL     1      52.669  58.642  41.425  1.00  0.00     0.273 C 
HETATM   18  C12 UNL     1      51.624  57.884  40.656  1.00  0.00     0.042 C 
HETATM   19  C13 UNL     1      51.027  56.975  41.710  1.00  0.00     0.057 C 
HETATM   20  C18 UNL     1      50.988  57.943  42.898  1.00  0.00     0.282 C 
BRANCH  19  21
HETATM   21  C14 UNL     1      49.630  56.632  41.259  1.00  0.00     0.007 A 
HETATM   22  C15 UNL     1      49.032  55.398  41.230  1.00  0.00     0.105 A 
HETATM   23  N4  UNL     1      47.807  55.327  40.799  1.00  0.00    -0.346 N 
HETATM   24  C16 UNL     1      47.199  56.448  40.412  1.00  0.00     0.144 A 
ATOM     25  H4  UNL     1      47.321  54.431  40.758  1.00  0.00     0.167 HD
HETATM   26  S1  UNL     1      48.393  57.642  40.661  1.00  0.00    -0.057 SA
BRANCH  24  27
HETATM   27  N5  UNL     1      45.974  56.579  39.950  1.00  0.00    -0.375 N 
HETATM   28  C17 UNL     1      45.341  57.872  40.172  1.00  0.00     0.148 C 
ATOM     29  H5  UNL     1      45.495  55.819  39.466  1.00  0.00     0.161 HD
ENDBRANCH  24  27
ENDBRANCH  19  21
ENDBRANCH   1  16
TORSDOF 10
ENDMDL
MODEL 5
REMARK VINA RESULT: -7.193610603      1.758      1.947
REMARK  10 active torsions:
REMARK  status: ('A' for Active; 'I' for Inactive)
REMARK    1  A    between atoms: C2_2  and  C3_3 
REMARK    2  A    between atoms: C3_3  and  C4_4 
REMARK    3  A    between atoms: C4_4  and  C5_5 
REMARK    4  A    between atoms: C5_5  and  C6_6 
REMARK    5  A    between atoms: C6_6  and  N1_7 
REMARK    6  A    between atoms: N1_7  and  C7_9 
REMARK    7  A    between atoms: C9_13  and  C10_14 
REMARK    8  A    between atoms: C10_14  and  N3_15 
REMARK    9  A    between atoms: C13_18  and  C14_19 
REMARK   10  A    between atoms: C16_23  and  N5_24 
ROOT
HETATM    1  C10 UNL     1      51.808  58.493  42.780  1.00  0.00     0.320 C 
ENDROOT
BRANCH   1   2
HETATM    2  C9  UNL     1      51.954  57.954  44.176  1.00  0.00     0.029 A 
HETATM    3  C8  UNL     1      52.540  56.798  44.620  1.00  0.00     0.106 A 
HETATM    4  N2  UNL     1      52.535  56.565  45.901  1.00  0.00    -0.346 N 
HETATM    5  C7  UNL     1      51.962  57.460  46.710  1.00  0.00     0.144 A 
ATOM      6  H2  UNL     1      52.959  55.717  46.278  1.00  0.00     0.167 HD
HETATM    7  S2  UNL     1      51.417  58.664  45.633  1.00  0.00    -0.056 SA
BRANCH   5   8
HETATM    8  N1  UNL     1      51.860  57.399  48.024  1.00  0.00    -0.370 N 
ATOM      9  H1  UNL     1      51.873  56.510  48.525  1.00  0.00     0.161 HD
BRANCH   8  10
HETATM   10  C6  UNL     1      51.726  58.668  48.715  1.00  0.00     0.121 C 
BRANCH  10  11
HETATM   11  C5  UNL     1      50.569  58.523  49.732  1.00  0.00     0.020 C 
BRANCH  11  12
HETATM   12  C4  UNL     1      49.444  59.319  49.188  1.00  0.00     0.002 C 
BRANCH  12  13
HETATM   13  C3  UNL     1      49.821  60.588  48.562  1.00  0.00    -0.000 C 
BRANCH  13  14
HETATM   14  C2  UNL     1      49.532  61.858  49.244  1.00  0.00    -0.005 C 
HETATM   15  C1  UNL     1      50.644  62.519  49.980  1.00  0.00     0.005 C 
ENDBRANCH  13  14
ENDBRANCH  12  13
ENDBRANCH  11  12
ENDBRANCH  10  11
ENDBRANCH   8  10
ENDBRANCH   5   8
ENDBRANCH   1   2
BRANCH   1  16
HETATM   16  N3  UNL     1      51.771  57.364  41.891  1.00  0.00     0.093 N 
HETATM   17  C11 UNL     1      52.028  57.718  40.536  1.00  0.00     0.273 C 
HETATM   18  C12 UNL     1      50.703  57.560  39.845  1.00  0.00     0.042 C 
HETATM   19  C13 UNL     1      50.091  56.375  40.563  1.00  0.00     0.057 C 
HETATM   20  C18 UNL     1      50.516  56.693  42.000  1.00  0.00     0.282 C 
BRANCH  19  21
HETATM   21  C14 UNL     1      48.595  56.492  40.413  1.00  0.00     0.007 A 
HETATM   22  C15 UNL     1      47.654  55.504  40.554  1.00  0.00     0.105 A 
HETATM   23  N4  UNL     1      46.406  55.825  40.379  1.00  0.00    -0.346 N 
HETATM   24  C16 UNL     1      46.108  57.089  40.076  1.00  0.00     0.144 A 
ATOM     25  H4  UNL     1      45.671  55.125  40.472  1.00  0.00     0.167 HD
HETATM   26  S1  UNL     1      47.634  57.848  40.033  1.00  0.00    -0.057 SA
BRANCH  24  27
HETATM   27  N5  UNL     1      44.915  57.602  39.863  1.00  0.00    -0.375 N 
HETATM   28  C17 UNL     1      44.831  59.056  39.888  1.00  0.00     0.148 C 
ATOM     29  H5  UNL     1      44.097  57.017  39.691  1.00  0.00     0.161 HD
ENDBRANCH  24  27
ENDBRANCH  19  21
ENDBRANCH   1  16
TORSDOF 10
ENDMDL
