MODEL 1
REMARK VINA RESULT: -7.371829805      0.000      0.000
REMARK  11 active torsions:
REMARK  status: ('A' for Active; 'I' for Inactive)
REMARK    1  A    between atoms: C2_5  and  O2_6 
REMARK    2  A    between atoms: C4_9  and  N2_10 
REMARK    3  A    between atoms: C7_13  and  C8_14 
REMARK    4  A    between atoms: C8_14  and  N3_15 
REMARK    5  A    between atoms: N3_15  and  N4_17 
REMARK       I    between atoms: N4_17  and  C9_19 
REMARK       I    between atoms: C9_19  and  N6_24 
REMARK    6  A    between atoms: N5_20  and  O3_22 
REMARK    7  A    between atoms: N6_24  and  N7_26 
REMARK    8  A    between atoms: C10_28  and  C11_29 
REMARK    9  A    between atoms: C13_31  and  N8_32 
REMARK   10  A    between atoms: C15_36  and  O6_37 
REMARK   11  A    between atoms: C16_39  and  O7_40 
ROOT
HETATM    1  N4  UNL     1      11.048  47.677  -1.055  1.00  0.00    -0.129 N 
ATOM      2  H4  UNL     1      10.378  48.430  -0.897  1.00  0.00     0.205 HD
HETATM    3  C9  UNL     1      10.915  46.526  -0.253  1.00  0.00     0.731 C 
HETATM    4  N5  UNL     1      11.555  46.373   0.860  1.00  0.00    -0.096 N 
ATOM      5  H5  UNL     1      12.185  47.108   1.181  1.00  0.00     0.213 HD
HETATM    6  N6  UNL     1      10.041  45.492  -0.687  1.00  0.00    -0.129 N 
ATOM      7  H6  UNL     1      10.396  44.554  -0.873  1.00  0.00     0.205 HD
ENDROOT
BRANCH   1   8
HETATM    8  N3  UNL     1      11.993  47.881  -2.030  1.00  0.00    -0.296 N 
ATOM      9  H3  UNL     1      12.983  47.804  -1.796  1.00  0.00     0.186 HD
BRANCH   8  10
HETATM   10  C8  UNL     1      11.646  48.166  -3.233  1.00  0.00     0.127 C 
BRANCH  10  11
HETATM   11  C7  UNL     1      10.902  47.190  -4.029  1.00  0.00     0.075 A 
HETATM   12  C1  UNL     1      11.535  46.070  -4.514  1.00  0.00     0.261 A 
HETATM   13  O1  UNL     1      12.759  45.923  -4.249  1.00  0.00    -0.267 OA
HETATM   14  N1  UNL     1      10.842  45.183  -5.242  1.00  0.00    -0.303 N 
HETATM   15  C2  UNL     1       9.553  45.405  -5.481  1.00  0.00     0.144 A 
ATOM     16  H1  UNL     1      11.298  44.347  -5.608  1.00  0.00     0.171 HD
HETATM   17  C3  UNL     1       8.877  46.505  -5.019  1.00  0.00     0.086 A 
HETATM   18  C4  UNL     1       9.546  47.432  -4.274  1.00  0.00     0.051 A 
BRANCH  15  19
HETATM   19  O2  UNL     1       8.836  44.474  -6.241  1.00  0.00    -0.346 OA
ATOM     20  H2  UNL     1       8.848  44.550  -7.188  1.00  0.00     0.219 HD
ENDBRANCH  15  19
BRANCH  18  21
HETATM   21  N2  UNL     1       8.918  48.608  -3.755  1.00  0.00    -0.377 N 
HETATM   22  C5  UNL     1       8.522  49.987  -3.685  1.00  0.00     0.143 A 
HETATM   23  C6  UNL     1       8.066  49.100  -2.601  1.00  0.00     0.143 A 
ENDBRANCH  18  21
ENDBRANCH  10  11
ENDBRANCH   8  10
ENDBRANCH   1   8
BRANCH   4  24
HETATM   24  O3  UNL     1      11.402  45.238   1.616  1.00  0.00    -0.276 OA
ATOM     25  H3  UNL     1      11.311  44.385   1.210  1.00  0.00     0.245 HD
ENDBRANCH   4  24
BRANCH   6  26
HETATM   26  N7  UNL     1       8.684  45.792  -0.856  1.00  0.00    -0.297 N 
HETATM   27  C10 UNL     1       7.836  45.048  -0.266  1.00  0.00     0.122 C 
ATOM     28  H7  UNL     1       8.386  46.579  -1.431  1.00  0.00     0.186 HD
BRANCH  27  29
HETATM   29  C11 UNL     1       6.403  45.331  -0.418  1.00  0.00     0.019 A 
HETATM   30  C12 UNL     1       5.923  46.263  -1.302  1.00  0.00     0.052 A 
HETATM   31  C13 UNL     1       4.579  46.552  -1.468  1.00  0.00     0.106 A 
HETATM   32  C14 UNL     1       3.659  45.870  -0.707  1.00  0.00     0.075 A 
HETATM   33  C15 UNL     1       4.115  44.929   0.188  1.00  0.00     0.102 A 
HETATM   34  C16 UNL     1       5.450  44.648   0.346  1.00  0.00     0.110 A 
BRANCH  31  35
HETATM   35  N8  UNL     1       4.143  47.529  -2.398  1.00  0.00    -0.116 N 
HETATM   36  O4  UNL     1       4.931  47.859  -3.329  1.00  0.00    -0.532 OA
HETATM   37  O5  UNL     1       2.911  48.072  -2.264  1.00  0.00    -0.532 OA
ENDBRANCH  31  35
BRANCH  33  38
HETATM   38  O6  UNL     1       3.201  44.236   0.957  1.00  0.00    -0.358 OA
ATOM     39  H6  UNL     1       3.423  43.366   1.265  1.00  0.00     0.217 HD
ENDBRANCH  33  38
BRANCH  34  40
HETATM   40  O7  UNL     1       5.968  43.714   1.227  1.00  0.00    -0.357 OA
ATOM     41  H7  UNL     1       6.735  44.000   1.710  1.00  0.00     0.217 HD
ENDBRANCH  34  40
ENDBRANCH  27  29
ENDBRANCH   6  26
TORSDOF 11
ENDMDL
MODEL 2
REMARK VINA RESULT: -7.315864781      1.632      2.681
REMARK  11 active torsions:
REMARK  status: ('A' for Active; 'I' for Inactive)
REMARK    1  A    between atoms: C2_5  and  O2_6 
REMARK    2  A    between atoms: C4_9  and  N2_10 
REMARK    3  A    between atoms: C7_13  and  C8_14 
REMARK    4  A    between atoms: C8_14  and  N3_15 
REMARK    5  A    between atoms: N3_15  and  N4_17 
REMARK       I    between atoms: N4_17  and  C9_19 
REMARK       I    between atoms: C9_19  and  N6_24 
REMARK    6  A    between atoms: N5_20  and  O3_22 
REMARK    7  A    between atoms: N6_24  and  N7_26 
REMARK    8  A    between atoms: C10_28  and  C11_29 
REMARK    9  A    between atoms: C13_31  and  N8_32 
REMARK   10  A    between atoms: C15_36  and  O6_37 
REMARK   11  A    between atoms: C16_39  and  O7_40 
ROOT
HETATM    1  N4  UNL     1      11.078  46.692   0.319  1.00  0.00    -0.129 N 
ATOM      2  H4  UNL     1      10.412  47.408   0.609  1.00  0.00     0.205 HD
HETATM    3  C9  UNL     1      10.730  45.353   0.579  1.00  0.00     0.731 C 
HETATM    4  N5  UNL     1      11.088  44.734   1.656  1.00  0.00    -0.096 N 
ATOM      5  H5  UNL     1      11.647  45.226   2.354  1.00  0.00     0.213 HD
HETATM    6  N6  UNL     1       9.951  44.654  -0.384  1.00  0.00    -0.129 N 
ATOM      7  H6  UNL     1      10.312  43.812  -0.834  1.00  0.00     0.205 HD
ENDROOT
BRANCH   1   8
HETATM    8  N3  UNL     1      12.231  47.126  -0.290  1.00  0.00    -0.296 N 
ATOM      9  H3  UNL     1      13.120  47.049   0.202  1.00  0.00     0.186 HD
BRANCH   8  10
HETATM   10  C8  UNL     1      12.200  47.628  -1.472  1.00  0.00     0.127 C 
BRANCH  10  11
HETATM   11  C7  UNL     1      11.028  47.423  -2.322  1.00  0.00     0.075 A 
HETATM   12  C1  UNL     1       9.928  48.236  -2.187  1.00  0.00     0.261 A 
HETATM   13  O1  UNL     1       9.972  49.148  -1.316  1.00  0.00    -0.267 OA
HETATM   14  N1  UNL     1       8.860  48.039  -2.973  1.00  0.00    -0.303 N 
HETATM   15  C2  UNL     1       8.886  47.057  -3.869  1.00  0.00     0.144 A 
ATOM     16  H1  UNL     1       8.036  48.635  -2.884  1.00  0.00     0.171 HD
HETATM   17  C3  UNL     1       9.959  46.221  -4.043  1.00  0.00     0.086 A 
HETATM   18  C4  UNL     1      11.066  46.389  -3.263  1.00  0.00     0.051 A 
BRANCH  15  19
HETATM   19  O2  UNL     1       7.767  46.858  -4.686  1.00  0.00    -0.346 OA
ATOM     20  H2  UNL     1       7.874  46.904  -5.628  1.00  0.00     0.219 HD
ENDBRANCH  15  19
BRANCH  18  21
HETATM   21  N2  UNL     1      12.226  45.561  -3.378  1.00  0.00    -0.377 N 
HETATM   22  C5  UNL     1      13.119  44.471  -3.096  1.00  0.00     0.143 A 
HETATM   23  C6  UNL     1      13.525  45.419  -4.148  1.00  0.00     0.143 A 
ENDBRANCH  18  21
ENDBRANCH  10  11
ENDBRANCH   8  10
ENDBRANCH   1   8
BRANCH   4  24
HETATM   24  O3  UNL     1      10.730  43.428   1.878  1.00  0.00    -0.276 OA
ATOM     25  H3  UNL     1       9.934  43.210   2.346  1.00  0.00     0.245 HD
ENDBRANCH   4  24
BRANCH   6  26
HETATM   26  N7  UNL     1       8.680  45.147  -0.700  1.00  0.00    -0.297 N 
HETATM   27  C10 UNL     1       7.689  44.701  -0.035  1.00  0.00     0.122 C 
ATOM     28  H7  UNL     1       8.552  45.839  -1.437  1.00  0.00     0.186 HD
BRANCH  27  29
HETATM   29  C11 UNL     1       6.341  45.195  -0.338  1.00  0.00     0.019 A 
HETATM   30  C12 UNL     1       6.105  46.193  -1.248  1.00  0.00     0.052 A 
HETATM   31  C13 UNL     1       4.845  46.680  -1.555  1.00  0.00     0.106 A 
HETATM   32  C14 UNL     1       3.755  46.137  -0.915  1.00  0.00     0.075 A 
HETATM   33  C15 UNL     1       3.964  45.134   0.003  1.00  0.00     0.102 A 
HETATM   34  C16 UNL     1       5.217  44.657   0.301  1.00  0.00     0.110 A 
BRANCH  31  35
HETATM   35  N8  UNL     1       4.665  47.715  -2.506  1.00  0.00    -0.116 N 
HETATM   36  O4  UNL     1       5.660  48.067  -3.199  1.00  0.00    -0.532 OA
HETATM   37  O5  UNL     1       3.447  48.290  -2.641  1.00  0.00    -0.532 OA
ENDBRANCH  31  35
BRANCH  33  38
HETATM   38  O6  UNL     1       2.878  44.581   0.652  1.00  0.00    -0.358 OA
ATOM     39  H6  UNL     1       3.010  44.153   1.489  1.00  0.00     0.217 HD
ENDBRANCH  33  38
BRANCH  34  40
HETATM   40  O7  UNL     1       5.490  43.651   1.213  1.00  0.00    -0.357 OA
ATOM     41  H7  UNL     1       4.726  43.205   1.558  1.00  0.00     0.217 HD
ENDBRANCH  34  40
ENDBRANCH  27  29
ENDBRANCH   6  26
TORSDOF 11
ENDMDL
MODEL 3
REMARK VINA RESULT: -7.291956536      1.863      2.876
REMARK  11 active torsions:
REMARK  status: ('A' for Active; 'I' for Inactive)
REMARK    1  A    between atoms: C2_5  and  O2_6 
REMARK    2  A    between atoms: C4_9  and  N2_10 
REMARK    3  A    between atoms: C7_13  and  C8_14 
REMARK    4  A    between atoms: C8_14  and  N3_15 
REMARK    5  A    between atoms: N3_15  and  N4_17 
REMARK       I    between atoms: N4_17  and  C9_19 
REMARK       I    between atoms: C9_19  and  N6_24 
REMARK    6  A    between atoms: N5_20  and  O3_22 
REMARK    7  A    between atoms: N6_24  and  N7_26 
REMARK    8  A    between atoms: C10_28  and  C11_29 
REMARK    9  A    between atoms: C13_31  and  N8_32 
REMARK   10  A    between atoms: C15_36  and  O6_37 
REMARK   11  A    between atoms: C16_39  and  O7_40 
ROOT
HETATM    1  N4  UNL     1      11.106  46.272   0.938  1.00  0.00    -0.129 N 
ATOM      2  H4  UNL     1      10.502  46.984   1.350  1.00  0.00     0.205 HD
HETATM    3  C9  UNL     1      10.909  44.944   1.363  1.00  0.00     0.731 C 
HETATM    4  N5  UNL     1      11.570  44.419   2.342  1.00  0.00    -0.096 N 
ATOM      5  H5  UNL     1      12.266  44.979   2.835  1.00  0.00     0.213 HD
HETATM    6  N6  UNL     1       9.944  44.150   0.686  1.00  0.00    -0.129 N 
ATOM      7  H6  UNL     1      10.217  43.290   0.209  1.00  0.00     0.205 HD
ENDROOT
BRANCH   1   8
HETATM    8  N3  UNL     1      12.033  46.700   0.019  1.00  0.00    -0.296 N 
ATOM      9  H3  UNL     1      12.866  47.195   0.338  1.00  0.00     0.186 HD
BRANCH   8  10
HETATM   10  C8  UNL     1      11.864  46.484  -1.235  1.00  0.00     0.127 C 
BRANCH  10  11
HETATM   11  C7  UNL     1      10.763  47.133  -1.945  1.00  0.00     0.075 A 
HETATM   12  C1  UNL     1      10.449  48.445  -1.680  1.00  0.00     0.261 A 
HETATM   13  O1  UNL     1      11.137  49.053  -0.815  1.00  0.00    -0.267 OA
HETATM   14  N1  UNL     1       9.437  49.028  -2.339  1.00  0.00    -0.303 N 
HETATM   15  C2  UNL     1       8.756  48.324  -3.238  1.00  0.00     0.144 A 
ATOM     16  H1  UNL     1       9.193  50.001  -2.153  1.00  0.00     0.171 HD
HETATM   17  C3  UNL     1       9.030  47.014  -3.538  1.00  0.00     0.086 A 
HETATM   18  C4  UNL     1      10.052  46.384  -2.890  1.00  0.00     0.051 A 
BRANCH  15  19
HETATM   19  O2  UNL     1       7.701  48.940  -3.921  1.00  0.00    -0.346 OA
ATOM     20  H2  UNL     1       7.528  48.688  -4.820  1.00  0.00     0.219 HD
ENDBRANCH  15  19
BRANCH  18  21
HETATM   21  N2  UNL     1      10.404  45.021  -3.141  1.00  0.00    -0.377 N 
HETATM   22  C5  UNL     1      10.465  43.601  -2.936  1.00  0.00     0.143 A 
HETATM   23  C6  UNL     1      11.163  44.140  -4.115  1.00  0.00     0.143 A 
ENDBRANCH  18  21
ENDBRANCH  10  11
ENDBRANCH   8  10
ENDBRANCH   1   8
BRANCH   4  24
HETATM   24  O3  UNL     1      11.352  43.120   2.730  1.00  0.00    -0.276 OA
ATOM     25  H3  UNL     1      11.231  42.895   3.645  1.00  0.00     0.245 HD
ENDBRANCH   4  24
BRANCH   6  26
HETATM   26  N7  UNL     1       8.609  44.574   0.689  1.00  0.00    -0.297 N 
HETATM   27  C10 UNL     1       8.010  44.650  -0.432  1.00  0.00     0.122 C 
ATOM     28  H7  UNL     1       8.135  44.813   1.559  1.00  0.00     0.186 HD
BRANCH  27  29
HETATM   29  C11 UNL     1       6.610  45.091  -0.468  1.00  0.00     0.019 A 
HETATM   30  C12 UNL     1       6.172  46.100  -1.287  1.00  0.00     0.052 A 
HETATM   31  C13 UNL     1       4.859  46.537  -1.343  1.00  0.00     0.106 A 
HETATM   32  C14 UNL     1       3.927  45.930  -0.534  1.00  0.00     0.075 A 
HETATM   33  C15 UNL     1       4.341  44.915   0.298  1.00  0.00     0.102 A 
HETATM   34  C16 UNL     1       5.645  44.488   0.348  1.00  0.00     0.110 A 
BRANCH  31  35
HETATM   35  N8  UNL     1       4.467  47.586  -2.212  1.00  0.00    -0.116 N 
HETATM   36  O4  UNL     1       5.309  48.010  -3.051  1.00  0.00    -0.532 OA
HETATM   37  O5  UNL     1       3.217  48.097  -2.116  1.00  0.00    -0.532 OA
ENDBRANCH  31  35
BRANCH  33  38
HETATM   38  O6  UNL     1       3.414  44.298   1.116  1.00  0.00    -0.358 OA
ATOM     39  H6  UNL     1       3.696  43.954   1.955  1.00  0.00     0.217 HD
ENDBRANCH  33  38
BRANCH  34  40
HETATM   40  O7  UNL     1       6.120  43.472   1.161  1.00  0.00    -0.357 OA
ATOM     41  H7  UNL     1       6.982  43.625   1.531  1.00  0.00     0.217 HD
ENDBRANCH  34  40
ENDBRANCH  27  29
ENDBRANCH   6  26
TORSDOF 11
ENDMDL
MODEL 4
REMARK VINA RESULT: -7.194108292      2.526      4.492
REMARK  11 active torsions:
REMARK  status: ('A' for Active; 'I' for Inactive)
REMARK    1  A    between atoms: C2_5  and  O2_6 
REMARK    2  A    between atoms: C4_9  and  N2_10 
REMARK    3  A    between atoms: C7_13  and  C8_14 
REMARK    4  A    between atoms: C8_14  and  N3_15 
REMARK    5  A    between atoms: N3_15  and  N4_17 
REMARK       I    between atoms: N4_17  and  C9_19 
REMARK       I    between atoms: C9_19  and  N6_24 
REMARK    6  A    between atoms: N5_20  and  O3_22 
REMARK    7  A    between atoms: N6_24  and  N7_26 
REMARK    8  A    between atoms: C10_28  and  C11_29 
REMARK    9  A    between atoms: C13_31  and  N8_32 
REMARK   10  A    between atoms: C15_36  and  O6_37 
REMARK   11  A    between atoms: C16_39  and  O7_40 
ROOT
HETATM    1  N4  UNL     1      10.026  44.426   2.174  1.00  0.00    -0.129 N 
ATOM      2  H4  UNL     1       9.743  45.406   2.133  1.00  0.00     0.205 HD
HETATM    3  C9  UNL     1       8.997  43.464   2.175  1.00  0.00     0.731 C 
HETATM    4  N5  UNL     1       8.489  42.985   3.262  1.00  0.00    -0.096 N 
ATOM      5  H5  UNL     1       8.838  43.310   4.164  1.00  0.00     0.213 HD
HETATM    6  N6  UNL     1       8.499  43.001   0.926  1.00  0.00    -0.129 N 
ATOM      7  H6  UNL     1       8.562  42.014   0.673  1.00  0.00     0.205 HD
ENDROOT
BRANCH   1   8
HETATM    8  N3  UNL     1      11.375  44.171   2.222  1.00  0.00    -0.296 N 
ATOM      9  H3  UNL     1      11.779  43.756   3.061  1.00  0.00     0.186 HD
BRANCH   8  10
HETATM   10  C8  UNL     1      12.132  44.449   1.223  1.00  0.00     0.127 C 
BRANCH  10  11
HETATM   11  C7  UNL     1      11.606  45.226   0.102  1.00  0.00     0.075 A 
HETATM   12  C1  UNL     1      11.420  46.582   0.231  1.00  0.00     0.261 A 
HETATM   13  O1  UNL     1      11.716  47.117   1.334  1.00  0.00    -0.267 OA
HETATM   14  N1  UNL     1      10.937  47.284  -0.805  1.00  0.00    -0.303 N 
HETATM   15  C2  UNL     1      10.647  46.652  -1.938  1.00  0.00     0.144 A 
ATOM     16  H1  UNL     1      10.795  48.291  -0.724  1.00  0.00     0.171 HD
HETATM   17  C3  UNL     1      10.815  45.303  -2.116  1.00  0.00     0.086 A 
HETATM   18  C4  UNL     1      11.304  44.553  -1.086  1.00  0.00     0.051 A 
BRANCH  15  19
HETATM   19  O2  UNL     1      10.144  47.392  -3.014  1.00  0.00    -0.346 OA
ATOM     20  H2  UNL     1      10.589  47.343  -3.852  1.00  0.00     0.219 HD
ENDBRANCH  15  19
BRANCH  18  21
HETATM   21  N2  UNL     1      11.509  43.141  -1.187  1.00  0.00    -0.377 N 
HETATM   22  C5  UNL     1      11.212  41.740  -1.075  1.00  0.00     0.143 A 
HETATM   23  C6  UNL     1      12.529  42.107  -1.625  1.00  0.00     0.143 A 
ENDBRANCH  18  21
ENDBRANCH  10  11
ENDBRANCH   8  10
ENDBRANCH   1   8
BRANCH   4  24
HETATM   24  O3  UNL     1       7.487  42.048   3.226  1.00  0.00    -0.276 OA
ATOM     25  H3  UNL     1       7.296  41.504   3.980  1.00  0.00     0.245 HD
ENDBRANCH   4  24
BRANCH   6  26
HETATM   26  N7  UNL     1       7.922  43.929   0.052  1.00  0.00    -0.297 N 
HETATM   27  C10 UNL     1       6.808  44.446   0.388  1.00  0.00     0.122 C 
ATOM     28  H7  UNL     1       8.378  44.183  -0.824  1.00  0.00     0.186 HD
BRANCH  27  29
HETATM   29  C11 UNL     1       6.171  45.424  -0.503  1.00  0.00     0.019 A 
HETATM   30  C12 UNL     1       6.882  46.188  -1.393  1.00  0.00     0.052 A 
HETATM   31  C13 UNL     1       6.311  47.117  -2.246  1.00  0.00     0.106 A 
HETATM   32  C14 UNL     1       4.947  47.295  -2.209  1.00  0.00     0.075 A 
HETATM   33  C15 UNL     1       4.211  46.541  -1.324  1.00  0.00     0.102 A 
HETATM   34  C16 UNL     1       4.785  45.621  -0.482  1.00  0.00     0.110 A 
BRANCH  31  35
HETATM   35  N8  UNL     1       7.100  47.878  -3.144  1.00  0.00    -0.116 N 
HETATM   36  O4  UNL     1       7.388  49.066  -2.825  1.00  0.00    -0.532 OA
HETATM   37  O5  UNL     1       7.516  47.317  -4.303  1.00  0.00    -0.532 OA
ENDBRANCH  31  35
BRANCH  33  38
HETATM   38  O6  UNL     1       2.840  46.710  -1.278  1.00  0.00    -0.358 OA
ATOM     39  H6  UNL     1       2.287  45.951  -1.133  1.00  0.00     0.217 HD
ENDBRANCH  33  38
BRANCH  34  40
HETATM   40  O7  UNL     1       4.097  44.833   0.426  1.00  0.00    -0.357 OA
ATOM     41  H7  UNL     1       4.032  45.196   1.302  1.00  0.00     0.217 HD
ENDBRANCH  34  40
ENDBRANCH  27  29
ENDBRANCH   6  26
TORSDOF 11
ENDMDL
MODEL 5
REMARK VINA RESULT: -7.150353417      1.530      2.459
REMARK  11 active torsions:
REMARK  status: ('A' for Active; 'I' for Inactive)
REMARK    1  A    between atoms: C2_5  and  O2_6 
REMARK    2  A    between atoms: C4_9  and  N2_10 
REMARK    3  A    between atoms: C7_13  and  C8_14 
REMARK    4  A    between atoms: C8_14  and  N3_15 
REMARK    5  A    between atoms: N3_15  and  N4_17 
REMARK       I    between atoms: N4_17  and  C9_19 
REMARK       I    between atoms: C9_19  and  N6_24 
REMARK    6  A    between atoms: N5_20  and  O3_22 
REMARK    7  A    between atoms: N6_24  and  N7_26 
REMARK    8  A    between atoms: C10_28  and  C11_29 
REMARK    9  A    between atoms: C13_31  and  N8_32 
REMARK   10  A    between atoms: C15_36  and  O6_37 
REMARK   11  A    between atoms: C16_39  and  O7_40 
ROOT
HETATM    1  N4  UNL     1      11.288  46.571  -0.310  1.00  0.00    -0.129 N 
ATOM      2  H4  UNL     1      10.703  47.396  -0.177  1.00  0.00     0.205 HD
HETATM    3  C9  UNL     1      10.882  45.389   0.340  1.00  0.00     0.731 C 
HETATM    4  N5  UNL     1      11.309  45.055   1.513  1.00  0.00    -0.096 N 
ATOM      5  H5  UNL     1      11.967  45.664   1.999  1.00  0.00     0.213 HD
HETATM    6  N6  UNL     1       9.965  44.529  -0.325  1.00  0.00    -0.129 N 
ATOM      7  H6  UNL     1      10.222  43.568  -0.551  1.00  0.00     0.205 HD
ENDROOT
BRANCH   1   8
HETATM    8  N3  UNL     1      12.397  46.717  -1.107  1.00  0.00    -0.296 N 
ATOM      9  H3  UNL     1      13.327  46.670  -0.691  1.00  0.00     0.186 HD
BRANCH   8  10
HETATM   10  C8  UNL     1      12.277  46.913  -2.371  1.00  0.00     0.127 C 
BRANCH  10  11
HETATM   11  C7  UNL     1      11.118  47.636  -2.890  1.00  0.00     0.075 A 
HETATM   12  C1  UNL     1       9.987  46.949  -3.264  1.00  0.00     0.261 A 
HETATM   13  O1  UNL     1       9.992  45.694  -3.142  1.00  0.00    -0.267 OA
HETATM   14  N1  UNL     1       8.930  47.624  -3.739  1.00  0.00    -0.303 N 
HETATM   15  C2  UNL     1       8.997  48.948  -3.839  1.00  0.00     0.144 A 
ATOM     16  H1  UNL     1       8.084  47.128  -4.019  1.00  0.00     0.171 HD
HETATM   17  C3  UNL     1      10.101  49.679  -3.479  1.00  0.00     0.086 A 
HETATM   18  C4  UNL     1      11.197  49.030  -2.992  1.00  0.00     0.051 A 
BRANCH  15  19
HETATM   19  O2  UNL     1       7.890  49.645  -4.335  1.00  0.00    -0.346 OA
ATOM     20  H2  UNL     1       8.020  50.513  -4.699  1.00  0.00     0.219 HD
ENDBRANCH  15  19
BRANCH  18  21
HETATM   21  N2  UNL     1      12.389  49.714  -2.595  1.00  0.00    -0.377 N 
HETATM   22  C5  UNL     1      13.321  50.368  -1.719  1.00  0.00     0.143 A 
HETATM   23  C6  UNL     1      13.695  50.259  -3.140  1.00  0.00     0.143 A 
ENDBRANCH  18  21
ENDBRANCH  10  11
ENDBRANCH   8  10
ENDBRANCH   1   8
BRANCH   4  24
HETATM   24  O3  UNL     1      10.891  43.896   2.117  1.00  0.00    -0.276 OA
ATOM     25  H3  UNL     1      11.454  43.426   2.721  1.00  0.00     0.245 HD
ENDBRANCH   4  24
BRANCH   6  26
HETATM   26  N7  UNL     1       8.702  45.032  -0.661  1.00  0.00    -0.297 N 
HETATM   27  C10 UNL     1       7.708  44.651   0.038  1.00  0.00     0.122 C 
ATOM     28  H7  UNL     1       8.583  45.680  -1.439  1.00  0.00     0.186 HD
BRANCH  27  29
HETATM   29  C11 UNL     1       6.368  45.157  -0.285  1.00  0.00     0.019 A 
HETATM   30  C12 UNL     1       6.153  46.147  -1.210  1.00  0.00     0.052 A 
HETATM   31  C13 UNL     1       4.902  46.644  -1.535  1.00  0.00     0.106 A 
HETATM   32  C14 UNL     1       3.799  46.122  -0.900  1.00  0.00     0.075 A 
HETATM   33  C15 UNL     1       3.988  45.128   0.032  1.00  0.00     0.102 A 
HETATM   34  C16 UNL     1       5.232  44.640   0.349  1.00  0.00     0.110 A 
BRANCH  31  35
HETATM   35  N8  UNL     1       4.744  47.670  -2.500  1.00  0.00    -0.116 N 
HETATM   36  O4  UNL     1       5.753  48.009  -3.181  1.00  0.00    -0.532 OA
HETATM   37  O5  UNL     1       3.532  48.251  -2.662  1.00  0.00    -0.532 OA
ENDBRANCH  31  35
BRANCH  33  38
HETATM   38  O6  UNL     1       2.888  44.595   0.676  1.00  0.00    -0.358 OA
ATOM     39  H6  UNL     1       2.768  44.768   1.602  1.00  0.00     0.217 HD
ENDBRANCH  33  38
BRANCH  34  40
HETATM   40  O7  UNL     1       5.484  43.642   1.275  1.00  0.00    -0.357 OA
ATOM     41  H7  UNL     1       4.861  42.924   1.270  1.00  0.00     0.217 HD
ENDBRANCH  34  40
ENDBRANCH  27  29
ENDBRANCH   6  26
TORSDOF 11
ENDMDL
