MODEL 1
REMARK VINA RESULT: -6.221485344      0.000      0.000
REMARK  11 active torsions:
REMARK  status: ('A' for Active; 'I' for Inactive)
REMARK    1  A    between atoms: N1_2  and  C2_4 
REMARK    2  A    between atoms: C3_7  and  C4_8 
REMARK    3  A    between atoms: C4_8  and  N3_9 
REMARK    4  A    between atoms: C7_13  and  C8_14 
REMARK    5  A    between atoms: C11_24  and  C12_25 
REMARK    6  A    between atoms: C12_25  and  N8_26 
REMARK    7  A    between atoms: C12_25  and  N9_29 
REMARK    8  A    between atoms: N9_29  and  O1_31 
REMARK    9  A    between atoms: N11_35  and  C13_36 
REMARK   10  A    between atoms: C13_36  and  C14_37 
REMARK   11  A    between atoms: C14_37  and  N12_38 
ROOT
HETATM    1  N3  UNL     1       8.872  44.965  -0.591  1.00  0.00    -0.382 N 
ATOM      2  H3  UNL     1       9.874  44.778  -0.579  1.00  0.00     0.160 HD
HETATM    3  C5  UNL     1       8.457  45.887  -1.410  1.00  0.00     0.045 A 
HETATM    4  C6  UNL     1       7.111  46.129  -1.415  1.00  0.00     0.053 A 
HETATM    5  C7  UNL     1       6.412  47.029  -2.164  1.00  0.00     0.055 A 
HETATM    6  S1  UNL     1       7.419  47.928  -3.201  1.00  0.00    -0.066 SA
HETATM    7  C9  UNL     1       9.061  47.525  -3.090  1.00  0.00     0.107 A 
HETATM    8  C10 UNL     1       9.416  46.521  -2.182  1.00  0.00     0.058 A 
HETATM    9  C11 UNL     1      10.791  46.404  -2.303  1.00  0.00     0.108 A 
HETATM   10  N10 UNL     1      11.191  47.344  -3.276  1.00  0.00    -0.293 N 
ATOM     11  H10 UNL     1      12.152  47.492  -3.581  1.00  0.00     0.187 HD
HETATM   12  N11 UNL     1      10.166  47.990  -3.725  1.00  0.00    -0.282 N 
ENDROOT
BRANCH   1  13
HETATM   13  C4  UNL     1       8.061  44.192   0.291  1.00  0.00     0.198 C 
BRANCH  13  14
HETATM   14  C3  UNL     1       8.648  44.034   1.652  1.00  0.00     0.130 A 
HETATM   15  N2  UNL     1       8.135  43.526   2.776  1.00  0.00    -0.176 N 
HETATM   16  C2  UNL     1       9.049  43.593   3.774  1.00  0.00     0.693 A 
ATOM     17  H2  UNL     1       7.194  43.144   2.869  1.00  0.00     0.185 HD
HETATM   18  N14 UNL     1      10.141  44.157   3.229  1.00  0.00    -0.131 N 
HETATM   19  N13 UNL     1       9.898  44.421   1.958  1.00  0.00    -0.273 N 
ATOM     20  H14 UNL     1      11.014  44.351   3.719  1.00  0.00     0.205 HD
ATOM     21  H13 UNL     1      10.558  44.852   1.309  1.00  0.00     0.189 HD
BRANCH  16  22
HETATM   22  N1  UNL     1       8.977  43.226   4.992  1.00  0.00    -0.229 N 
HETATM   23  C1  UNL     1       7.781  43.278   5.795  1.00  0.00     0.165 C 
ATOM     24  H1  UNL     1       9.826  42.870   5.430  1.00  0.00     0.177 HD
ENDBRANCH  16  22
ENDBRANCH  13  14
ENDBRANCH   1  13
BRANCH   5  25
HETATM   25  C8  UNL     1       4.971  47.173  -2.059  1.00  0.00     0.148 A 
HETATM   26  N4  UNL     1       4.233  48.080  -2.712  1.00  0.00    -0.269 N 
HETATM   27  N5  UNL     1       2.945  47.927  -2.379  1.00  0.00    -0.007 NA
ATOM     28  H4  UNL     1       4.595  48.780  -3.360  1.00  0.00     0.185 HD
HETATM   29  N6  UNL     1       2.871  46.927  -1.521  1.00  0.00    -0.007 NA
HETATM   30  N7  UNL     1       4.109  46.464  -1.323  1.00  0.00    -0.269 N 
ATOM     31  H7  UNL     1       4.358  45.690  -0.707  1.00  0.00     0.185 HD
ENDBRANCH   5  25
BRANCH   9  32
HETATM   32  C12 UNL     1      11.756  45.567  -1.659  1.00  0.00     0.148 C 
BRANCH  32  33
HETATM   33  N8  UNL     1      12.306  44.364  -2.043  1.00  0.00    -0.382 N 
ATOM     34  H82 UNL     1      11.788  43.933  -2.809  1.00  0.00     0.157 HD
ATOM     35  H81 UNL     1      13.119  43.858  -1.691  1.00  0.00     0.157 HD
ENDBRANCH  32  33
BRANCH  32  36
HETATM   36  N9  UNL     1      12.235  45.986  -0.479  1.00  0.00    -0.251 N 
ATOM     37  H9  UNL     1      13.247  46.036  -0.363  1.00  0.00     0.196 HD
BRANCH  36  38
HETATM   38  O1  UNL     1      11.463  46.343   0.560  1.00  0.00    -0.288 OA
ATOM     39  H1  UNL     1      11.751  46.327   1.465  1.00  0.00     0.244 HD
ENDBRANCH  36  38
ENDBRANCH  32  36
ENDBRANCH   9  32
BRANCH  12  40
HETATM   40  C13 UNL     1      10.085  49.039  -4.723  1.00  0.00     0.177 C 
BRANCH  40  41
HETATM   41  C14 UNL     1      10.204  50.403  -4.060  1.00  0.00     0.251 C 
BRANCH  41  42
HETATM   42  N12 UNL     1       9.016  51.178  -4.248  1.00  0.00    -0.078 N 
ATOM     43 3H12 UNL     1       8.944  51.525  -5.204  1.00  0.00     0.274 HD
ATOM     44 2H12 UNL     1       8.181  50.593  -4.229  1.00  0.00     0.274 HD
ATOM     45 1H12 UNL     1       8.957  51.937  -3.569  1.00  0.00     0.274 HD
ENDBRANCH  41  42
ENDBRANCH  40  41
ENDBRANCH  12  40
TORSDOF 11
ENDMDL
MODEL 2
REMARK VINA RESULT: -5.990902200      0.821      1.341
REMARK  11 active torsions:
REMARK  status: ('A' for Active; 'I' for Inactive)
REMARK    1  A    between atoms: N1_2  and  C2_4 
REMARK    2  A    between atoms: C3_7  and  C4_8 
REMARK    3  A    between atoms: C4_8  and  N3_9 
REMARK    4  A    between atoms: C7_13  and  C8_14 
REMARK    5  A    between atoms: C11_24  and  C12_25 
REMARK    6  A    between atoms: C12_25  and  N8_26 
REMARK    7  A    between atoms: C12_25  and  N9_29 
REMARK    8  A    between atoms: N9_29  and  O1_31 
REMARK    9  A    between atoms: N11_35  and  C13_36 
REMARK   10  A    between atoms: C13_36  and  C14_37 
REMARK   11  A    between atoms: C14_37  and  N12_38 
ROOT
HETATM    1  N3  UNL     1       8.667  44.835  -0.236  1.00  0.00    -0.382 N 
ATOM      2  H3  UNL     1       9.655  44.599  -0.150  1.00  0.00     0.160 HD
HETATM    3  C5  UNL     1       8.354  45.745  -1.112  1.00  0.00     0.045 A 
HETATM    4  C6  UNL     1       7.026  46.053  -1.215  1.00  0.00     0.053 A 
HETATM    5  C7  UNL     1       6.425  46.957  -2.039  1.00  0.00     0.055 A 
HETATM    6  S1  UNL     1       7.542  47.766  -3.037  1.00  0.00    -0.066 SA
HETATM    7  C9  UNL     1       9.151  47.286  -2.803  1.00  0.00     0.107 A 
HETATM    8  C10 UNL     1       9.393  46.300  -1.840  1.00  0.00     0.058 A 
HETATM    9  C11 UNL     1      10.764  46.112  -1.864  1.00  0.00     0.108 A 
HETATM   10  N10 UNL     1      11.275  46.993  -2.840  1.00  0.00    -0.293 N 
ATOM     11  H10 UNL     1      12.261  47.082  -3.085  1.00  0.00     0.187 HD
HETATM   12  N11 UNL     1      10.317  47.672  -3.378  1.00  0.00    -0.282 N 
ENDROOT
BRANCH   1  13
HETATM   13  C4  UNL     1       7.762  44.137   0.616  1.00  0.00     0.198 C 
BRANCH  13  14
HETATM   14  C3  UNL     1       8.386  43.656   1.881  1.00  0.00     0.130 A 
HETATM   15  N2  UNL     1       9.403  44.142   2.598  1.00  0.00    -0.176 N 
HETATM   16  C2  UNL     1       9.618  43.363   3.685  1.00  0.00     0.693 A 
ATOM     17  H2  UNL     1       9.939  44.977   2.362  1.00  0.00     0.185 HD
HETATM   18  N14 UNL     1       8.701  42.382   3.616  1.00  0.00    -0.131 N 
HETATM   19  N13 UNL     1       7.964  42.560   2.534  1.00  0.00    -0.273 N 
ATOM     20  H14 UNL     1       8.592  41.623   4.288  1.00  0.00     0.205 HD
ATOM     21  H13 UNL     1       7.194  41.958   2.239  1.00  0.00     0.189 HD
BRANCH  16  22
HETATM   22  N1  UNL     1      10.477  43.461   4.620  1.00  0.00    -0.229 N 
HETATM   23  C1  UNL     1      11.906  43.449   4.427  1.00  0.00     0.165 C 
ATOM     24  H1  UNL     1      10.129  43.554   5.575  1.00  0.00     0.177 HD
ENDBRANCH  16  22
ENDBRANCH  13  14
ENDBRANCH   1  13
BRANCH   5  25
HETATM   25  C8  UNL     1       4.989  47.177  -2.036  1.00  0.00     0.148 A 
HETATM   26  N4  UNL     1       4.100  46.485  -1.312  1.00  0.00    -0.269 N 
HETATM   27  N5  UNL     1       2.870  46.954  -1.553  1.00  0.00    -0.007 NA
ATOM     28  H4  UNL     1       4.325  45.720  -0.676  1.00  0.00     0.185 HD
HETATM   29  N6  UNL     1       2.982  47.938  -2.426  1.00  0.00    -0.007 NA
HETATM   30  N7  UNL     1       4.278  48.076  -2.723  1.00  0.00    -0.269 N 
ATOM     31  H7  UNL     1       4.663  48.761  -3.373  1.00  0.00     0.185 HD
ENDBRANCH   5  25
BRANCH   9  32
HETATM   32  C12 UNL     1      11.641  45.252  -1.130  1.00  0.00     0.148 C 
BRANCH  32  33
HETATM   33  N8  UNL     1      12.115  43.990  -1.413  1.00  0.00    -0.382 N 
ATOM     34  H82 UNL     1      11.943  43.337  -0.648  1.00  0.00     0.157 HD
ATOM     35  H81 UNL     1      12.592  43.624  -2.237  1.00  0.00     0.157 HD
ENDBRANCH  32  33
BRANCH  32  36
HETATM   36  N9  UNL     1      12.107  45.713   0.041  1.00  0.00    -0.251 N 
ATOM     37  H9  UNL     1      13.100  45.934   0.109  1.00  0.00     0.196 HD
BRANCH  36  38
HETATM   38  O1  UNL     1      11.343  45.902   1.129  1.00  0.00    -0.288 OA
ATOM     39  H1  UNL     1      10.906  46.719   1.335  1.00  0.00     0.244 HD
ENDBRANCH  36  38
ENDBRANCH  32  36
ENDBRANCH   9  32
BRANCH  12  40
HETATM   40  C13 UNL     1      10.356  48.686  -4.414  1.00  0.00     0.177 C 
BRANCH  40  41
HETATM   41  C14 UNL     1      10.471  50.068  -3.791  1.00  0.00     0.251 C 
BRANCH  41  42
HETATM   42  N12 UNL     1       9.347  50.886  -4.126  1.00  0.00    -0.078 N 
ATOM     43 3H12 UNL     1       8.917  50.589  -5.002  1.00  0.00     0.274 HD
ATOM     44 2H12 UNL     1       8.560  50.716  -3.500  1.00  0.00     0.274 HD
ATOM     45 1H12 UNL     1       9.599  51.874  -4.149  1.00  0.00     0.274 HD
ENDBRANCH  41  42
ENDBRANCH  40  41
ENDBRANCH  12  40
TORSDOF 11
ENDMDL
MODEL 3
REMARK VINA RESULT: -5.893321094      0.980      1.233
REMARK  11 active torsions:
REMARK  status: ('A' for Active; 'I' for Inactive)
REMARK    1  A    between atoms: N1_2  and  C2_4 
REMARK    2  A    between atoms: C3_7  and  C4_8 
REMARK    3  A    between atoms: C4_8  and  N3_9 
REMARK    4  A    between atoms: C7_13  and  C8_14 
REMARK    5  A    between atoms: C11_24  and  C12_25 
REMARK    6  A    between atoms: C12_25  and  N8_26 
REMARK    7  A    between atoms: C12_25  and  N9_29 
REMARK    8  A    between atoms: N9_29  and  O1_31 
REMARK    9  A    between atoms: N11_35  and  C13_36 
REMARK   10  A    between atoms: C13_36  and  C14_37 
REMARK   11  A    between atoms: C14_37  and  N12_38 
ROOT
HETATM    1  N3  UNL     1       8.658  44.664  -0.306  1.00  0.00    -0.382 N 
ATOM      2  H3  UNL     1       9.645  44.418  -0.226  1.00  0.00     0.160 HD
HETATM    3  C5  UNL     1       8.357  45.628  -1.125  1.00  0.00     0.045 A 
HETATM    4  C6  UNL     1       7.031  45.948  -1.221  1.00  0.00     0.053 A 
HETATM    5  C7  UNL     1       6.440  46.905  -1.991  1.00  0.00     0.055 A 
HETATM    6  S1  UNL     1       7.570  47.770  -2.926  1.00  0.00    -0.066 SA
HETATM    7  C9  UNL     1       9.174  47.270  -2.709  1.00  0.00     0.107 A 
HETATM    8  C10 UNL     1       9.405  46.224  -1.808  1.00  0.00     0.058 A 
HETATM    9  C11 UNL     1      10.775  46.031  -1.832  1.00  0.00     0.108 A 
HETATM   10  N10 UNL     1      11.298  46.970  -2.746  1.00  0.00    -0.293 N 
ATOM     11  H10 UNL     1      12.286  47.069  -2.977  1.00  0.00     0.187 HD
HETATM   12  N11 UNL     1      10.347  47.685  -3.249  1.00  0.00    -0.282 N 
ENDROOT
BRANCH   1  13
HETATM   13  C4  UNL     1       7.742  43.917   0.493  1.00  0.00     0.198 C 
BRANCH  13  14
HETATM   14  C3  UNL     1       8.289  43.539   1.827  1.00  0.00     0.130 A 
HETATM   15  N2  UNL     1       9.215  44.120   2.594  1.00  0.00    -0.176 N 
HETATM   16  C2  UNL     1       9.385  43.410   3.735  1.00  0.00     0.693 A 
ATOM     17  H2  UNL     1       9.720  44.974   2.356  1.00  0.00     0.185 HD
HETATM   18  N14 UNL     1       8.534  42.373   3.647  1.00  0.00    -0.131 N 
HETATM   19  N13 UNL     1       7.878  42.452   2.503  1.00  0.00    -0.273 N 
ATOM     20  H14 UNL     1       8.414  41.643   4.349  1.00  0.00     0.205 HD
ATOM     21  H13 UNL     1       7.170  41.791   2.182  1.00  0.00     0.189 HD
BRANCH  16  22
HETATM   22  N1  UNL     1      10.158  43.606   4.728  1.00  0.00    -0.229 N 
HETATM   23  C1  UNL     1       9.862  43.226   6.086  1.00  0.00     0.165 C 
ATOM     24  H1  UNL     1      11.051  44.064   4.549  1.00  0.00     0.177 HD
ENDBRANCH  16  22
ENDBRANCH  13  14
ENDBRANCH   1  13
BRANCH   5  25
HETATM   25  C8  UNL     1       5.006  47.131  -1.987  1.00  0.00     0.148 A 
HETATM   26  N4  UNL     1       4.363  48.050  -2.717  1.00  0.00    -0.269 N 
HETATM   27  N5  UNL     1       3.050  47.979  -2.465  1.00  0.00    -0.007 NA
ATOM     28  H4  UNL     1       4.804  48.704  -3.365  1.00  0.00     0.185 HD
HETATM   29  N6  UNL     1       2.865  47.018  -1.579  1.00  0.00    -0.007 NA
HETATM   30  N7  UNL     1       4.061  46.498  -1.284  1.00  0.00    -0.269 N 
ATOM     31  H7  UNL     1       4.226  45.736  -0.626  1.00  0.00     0.185 HD
ENDBRANCH   5  25
BRANCH   9  32
HETATM   32  C12 UNL     1      11.642  45.123  -1.145  1.00  0.00     0.148 C 
BRANCH  32  33
HETATM   33  N8  UNL     1      12.164  43.908  -1.529  1.00  0.00    -0.382 N 
ATOM     34  H82 UNL     1      12.588  43.950  -2.456  1.00  0.00     0.157 HD
ATOM     35  H81 UNL     1      12.190  43.009  -1.048  1.00  0.00     0.157 HD
ENDBRANCH  32  33
BRANCH  32  36
HETATM   36  N9  UNL     1      12.040  45.475   0.086  1.00  0.00    -0.251 N 
ATOM     37  H9  UNL     1      13.042  45.519   0.273  1.00  0.00     0.196 HD
BRANCH  36  38
HETATM   38  O1  UNL     1      11.199  45.772   1.090  1.00  0.00    -0.288 OA
ATOM     39  H1  UNL     1      10.258  45.652   1.046  1.00  0.00     0.244 HD
ENDBRANCH  36  38
ENDBRANCH  32  36
ENDBRANCH   9  32
BRANCH  12  40
HETATM   40  C13 UNL     1      10.399  48.762  -4.219  1.00  0.00     0.177 C 
BRANCH  40  41
HETATM   41  C14 UNL     1      10.347  48.199  -5.631  1.00  0.00     0.251 C 
BRANCH  41  42
HETATM   42  N12 UNL     1       9.179  48.643  -6.326  1.00  0.00    -0.078 N 
ATOM     43 3H12 UNL     1       9.361  48.768  -7.322  1.00  0.00     0.274 HD
ATOM     44 2H12 UNL     1       8.476  47.906  -6.386  1.00  0.00     0.274 HD
ATOM     45 1H12 UNL     1       8.796  49.491  -5.907  1.00  0.00     0.274 HD
ENDBRANCH  41  42
ENDBRANCH  40  41
ENDBRANCH  12  40
TORSDOF 11
ENDMDL
MODEL 4
REMARK VINA RESULT: -5.643064953      2.182      6.380
REMARK  11 active torsions:
REMARK  status: ('A' for Active; 'I' for Inactive)
REMARK    1  A    between atoms: N1_2  and  C2_4 
REMARK    2  A    between atoms: C3_7  and  C4_8 
REMARK    3  A    between atoms: C4_8  and  N3_9 
REMARK    4  A    between atoms: C7_13  and  C8_14 
REMARK    5  A    between atoms: C11_24  and  C12_25 
REMARK    6  A    between atoms: C12_25  and  N8_26 
REMARK    7  A    between atoms: C12_25  and  N9_29 
REMARK    8  A    between atoms: N9_29  and  O1_31 
REMARK    9  A    between atoms: N11_35  and  C13_36 
REMARK   10  A    between atoms: C13_36  and  C14_37 
REMARK   11  A    between atoms: C14_37  and  N12_38 
ROOT
HETATM    1  N3  UNL     1       9.618  46.565  -2.300  1.00  0.00    -0.382 N 
ATOM      2  H3  UNL     1      10.554  46.215  -2.099  1.00  0.00     0.160 HD
HETATM    3  C5  UNL     1       8.642  46.073  -1.594  1.00  0.00     0.045 A 
HETATM    4  C6  UNL     1       7.392  46.550  -1.875  1.00  0.00     0.053 A 
HETATM    5  C7  UNL     1       6.204  46.214  -1.297  1.00  0.00     0.055 A 
HETATM    6  S1  UNL     1       6.388  45.043  -0.075  1.00  0.00    -0.066 SA
HETATM    7  C9  UNL     1       7.989  44.543   0.168  1.00  0.00     0.107 A 
HETATM    8  C10 UNL     1       8.973  45.126  -0.638  1.00  0.00     0.058 A 
HETATM    9  C11 UNL     1      10.159  44.541  -0.229  1.00  0.00     0.108 A 
HETATM   10  N10 UNL     1       9.827  43.637   0.802  1.00  0.00    -0.293 N 
ATOM     11  H10 UNL     1      10.497  43.054   1.304  1.00  0.00     0.187 HD
HETATM   12  N11 UNL     1       8.554  43.652   1.020  1.00  0.00    -0.282 N 
ENDROOT
BRANCH   1  13
HETATM   13  C4  UNL     1       9.504  47.544  -3.330  1.00  0.00     0.198 C 
BRANCH  13  14
HETATM   14  C3  UNL     1       9.603  46.976  -4.705  1.00  0.00     0.130 A 
HETATM   15  N2  UNL     1       9.489  45.721  -5.146  1.00  0.00    -0.176 N 
HETATM   16  C2  UNL     1       9.655  45.685  -6.490  1.00  0.00     0.693 A 
ATOM     17  H2  UNL     1       9.304  44.908  -4.558  1.00  0.00     0.185 HD
HETATM   18  N14 UNL     1       9.874  46.959  -6.863  1.00  0.00    -0.131 N 
HETATM   19  N13 UNL     1       9.842  47.731  -5.791  1.00  0.00    -0.273 N 
ATOM     20  H14 UNL     1      10.039  47.277  -7.818  1.00  0.00     0.205 HD
ATOM     21  H13 UNL     1       9.979  48.742  -5.788  1.00  0.00     0.189 HD
BRANCH  16  22
HETATM   22  N1  UNL     1       9.627  44.707  -7.305  1.00  0.00    -0.229 N 
HETATM   23  C1  UNL     1      10.003  43.355  -6.977  1.00  0.00     0.165 C 
ATOM     24  H1  UNL     1       9.317  44.893  -8.259  1.00  0.00     0.177 HD
ENDBRANCH  16  22
ENDBRANCH  13  14
ENDBRANCH   1  13
BRANCH   5  25
HETATM   25  C8  UNL     1       4.945  46.810  -1.706  1.00  0.00     0.148 A 
HETATM   26  N4  UNL     1       4.811  47.821  -2.575  1.00  0.00    -0.269 N 
HETATM   27  N5  UNL     1       3.513  48.114  -2.717  1.00  0.00    -0.007 NA
ATOM     28  H4  UNL     1       5.578  48.293  -3.053  1.00  0.00     0.185 HD
HETATM   29  N6  UNL     1       2.830  47.293  -1.942  1.00  0.00    -0.007 NA
HETATM   30  N7  UNL     1       3.704  46.494  -1.322  1.00  0.00    -0.269 N 
ATOM     31  H7  UNL     1       3.462  45.758  -0.658  1.00  0.00     0.185 HD
ENDBRANCH   5  25
BRANCH   9  32
HETATM   32  C12 UNL     1      11.518  44.700  -0.648  1.00  0.00     0.148 C 
BRANCH  32  33
HETATM   33  N8  UNL     1      12.207  44.147  -1.705  1.00  0.00    -0.382 N 
ATOM     34  H82 UNL     1      12.341  43.142  -1.590  1.00  0.00     0.157 HD
ATOM     35  H81 UNL     1      12.588  44.573  -2.550  1.00  0.00     0.157 HD
ENDBRANCH  32  33
BRANCH  32  36
HETATM   36  N9  UNL     1      12.290  45.516   0.084  1.00  0.00    -0.251 N 
ATOM     37  H9  UNL     1      13.270  45.616  -0.182  1.00  0.00     0.196 HD
BRANCH  36  38
HETATM   38  O1  UNL     1      11.851  46.211   1.146  1.00  0.00    -0.288 OA
ATOM     39  H1  UNL     1      12.371  46.857   1.609  1.00  0.00     0.244 HD
ENDBRANCH  36  38
ENDBRANCH  32  36
ENDBRANCH   9  32
BRANCH  12  40
HETATM   40  C13 UNL     1       7.759  42.900   1.972  1.00  0.00     0.177 C 
BRANCH  40  41
HETATM   41  C14 UNL     1       8.482  42.812   3.306  1.00  0.00     0.251 C 
BRANCH  41  42
HETATM   42  N12 UNL     1       8.494  44.076   3.977  1.00  0.00    -0.078 N 
ATOM     43 3H12 UNL     1       8.269  44.839   3.339  1.00  0.00     0.274 HD
ATOM     44 2H12 UNL     1       7.705  44.167   4.617  1.00  0.00     0.274 HD
ATOM     45 1H12 UNL     1       9.382  44.235   4.453  1.00  0.00     0.274 HD
ENDBRANCH  41  42
ENDBRANCH  40  41
ENDBRANCH  12  40
TORSDOF 11
ENDMDL
MODEL 5
REMARK VINA RESULT: -5.637075848      2.467      6.607
REMARK  11 active torsions:
REMARK  status: ('A' for Active; 'I' for Inactive)
REMARK    1  A    between atoms: N1_2  and  C2_4 
REMARK    2  A    between atoms: C3_7  and  C4_8 
REMARK    3  A    between atoms: C4_8  and  N3_9 
REMARK    4  A    between atoms: C7_13  and  C8_14 
REMARK    5  A    between atoms: C11_24  and  C12_25 
REMARK    6  A    between atoms: C12_25  and  N8_26 
REMARK    7  A    between atoms: C12_25  and  N9_29 
REMARK    8  A    between atoms: N9_29  and  O1_31 
REMARK    9  A    between atoms: N11_35  and  C13_36 
REMARK   10  A    between atoms: C13_36  and  C14_37 
REMARK   11  A    between atoms: C14_37  and  N12_38 
ROOT
HETATM    1  N3  UNL     1       9.601  46.355  -2.498  1.00  0.00    -0.382 N 
ATOM      2  H3  UNL     1      10.532  45.973  -2.336  1.00  0.00     0.160 HD
HETATM    3  C5  UNL     1       8.648  45.929  -1.720  1.00  0.00     0.045 A 
HETATM    4  C6  UNL     1       7.404  46.448  -1.949  1.00  0.00     0.053 A 
HETATM    5  C7  UNL     1       6.238  46.183  -1.293  1.00  0.00     0.055 A 
HETATM    6  S1  UNL     1       6.445  45.048  -0.042  1.00  0.00    -0.066 SA
HETATM    7  C9  UNL     1       8.035  44.489   0.130  1.00  0.00     0.107 A 
HETATM    8  C10 UNL     1       8.995  45.002  -0.751  1.00  0.00     0.058 A 
HETATM    9  C11 UNL     1      10.177  44.382  -0.387  1.00  0.00     0.108 A 
HETATM   10  N10 UNL     1       9.868  43.528   0.693  1.00  0.00    -0.293 N 
ATOM     11  H10 UNL     1      10.542  42.935   1.178  1.00  0.00     0.187 HD
HETATM   12  N11 UNL     1       8.611  43.604   0.981  1.00  0.00    -0.282 N 
ENDROOT
BRANCH   1  13
HETATM   13  C4  UNL     1       9.468  47.302  -3.555  1.00  0.00     0.198 C 
BRANCH  13  14
HETATM   14  C3  UNL     1       9.586  46.699  -4.912  1.00  0.00     0.130 A 
HETATM   15  N2  UNL     1       9.486  45.432  -5.322  1.00  0.00    -0.176 N 
HETATM   16  C2  UNL     1       9.669  45.363  -6.663  1.00  0.00     0.693 A 
ATOM     17  H2  UNL     1       9.300  44.634  -4.715  1.00  0.00     0.185 HD
HETATM   18  N14 UNL     1       9.884  46.627  -7.066  1.00  0.00    -0.131 N 
HETATM   19  N13 UNL     1       9.834  47.427  -6.015  1.00  0.00    -0.273 N 
ATOM     20  H14 UNL     1      10.058  46.922  -8.027  1.00  0.00     0.205 HD
ATOM     21  H13 UNL     1       9.964  48.439  -6.037  1.00  0.00     0.189 HD
BRANCH  16  22
HETATM   22  N1  UNL     1       9.657  44.363  -7.452  1.00  0.00    -0.229 N 
HETATM   23  C1  UNL     1       9.681  44.453  -8.891  1.00  0.00     0.165 C 
ATOM     24  H1  UNL     1       9.629  43.432  -7.037  1.00  0.00     0.177 HD
ENDBRANCH  16  22
ENDBRANCH  13  14
ENDBRANCH   1  13
BRANCH   5  25
HETATM   25  C8  UNL     1       4.983  46.818  -1.653  1.00  0.00     0.148 A 
HETATM   26  N4  UNL     1       4.860  47.941  -2.373  1.00  0.00    -0.269 N 
HETATM   27  N5  UNL     1       3.562  48.237  -2.513  1.00  0.00    -0.007 NA
ATOM     28  H4  UNL     1       5.633  48.485  -2.754  1.00  0.00     0.185 HD
HETATM   29  N6  UNL     1       2.869  47.306  -1.885  1.00  0.00    -0.007 NA
HETATM   30  N7  UNL     1       3.736  46.436  -1.358  1.00  0.00    -0.269 N 
ATOM     31  H7  UNL     1       3.486  45.610  -0.815  1.00  0.00     0.185 HD
ENDBRANCH   5  25
BRANCH   9  32
HETATM   32  C12 UNL     1      11.515  44.468  -0.886  1.00  0.00     0.148 C 
BRANCH  32  33
HETATM   33  N8  UNL     1      12.606  45.174  -0.429  1.00  0.00    -0.382 N 
ATOM     34  H82 UNL     1      12.647  45.195   0.590  1.00  0.00     0.157 HD
ATOM     35  H81 UNL     1      13.348  45.659  -0.933  1.00  0.00     0.157 HD
ENDBRANCH  32  33
BRANCH  32  36
HETATM   36  N9  UNL     1      11.802  43.758  -1.987  1.00  0.00    -0.251 N 
ATOM     37  H9  UNL     1      12.303  42.877  -1.872  1.00  0.00     0.196 HD
BRANCH  36  38
HETATM   38  O1  UNL     1      11.468  44.135  -3.231  1.00  0.00    -0.288 OA
ATOM     39  H1  UNL     1      11.386  43.536  -3.964  1.00  0.00     0.244 HD
ENDBRANCH  36  38
ENDBRANCH  32  36
ENDBRANCH   9  32
BRANCH  12  40
HETATM   40  C13 UNL     1       7.843  42.920   2.002  1.00  0.00     0.177 C 
BRANCH  40  41
HETATM   41  C14 UNL     1       8.617  42.889   3.310  1.00  0.00     0.251 C 
BRANCH  41  42
HETATM   42  N12 UNL     1       8.693  44.189   3.902  1.00  0.00    -0.078 N 
ATOM     43 3H12 UNL     1       9.180  44.848   3.294  1.00  0.00     0.274 HD
ATOM     44 2H12 UNL     1       7.780  44.643   3.926  1.00  0.00     0.274 HD
ATOM     45 1H12 UNL     1       9.116  44.152   4.829  1.00  0.00     0.274 HD
ENDBRANCH  41  42
ENDBRANCH  40  41
ENDBRANCH  12  40
TORSDOF 11
ENDMDL
