MODEL 1
REMARK VINA RESULT: -5.540666577      0.000      0.000
REMARK  10 active torsions:
REMARK  status: ('A' for Active; 'I' for Inactive)
REMARK    1  A    between atoms: C2_3  and  N2_4 
REMARK    2  A    between atoms: C3_6  and  O1_7 
REMARK    3  A    between atoms: C3_6  and  C4_9 
REMARK    4  A    between atoms: C4_9  and  S1_10 
REMARK    5  A    between atoms: S1_10  and  C5_11 
REMARK    6  A    between atoms: N4_19  and  C9_20 
REMARK    7  A    between atoms: C10_26  and  N7_27 
REMARK    8  A    between atoms: C12_31  and  N8_32 
REMARK    9  A    between atoms: C13_35  and  C14_36 
REMARK   10  A    between atoms: C14_36  and  N9_37 
ROOT
HETATM    1  C4  UNL     1      11.225  45.784   0.830  1.00  0.00     0.165 C 
ENDROOT
BRANCH   1   2
HETATM    2  C3  UNL     1      12.407  46.401   0.142  1.00  0.00     0.126 C 
HETATM    3  N2  UNL     1      12.570  47.135  -0.937  1.00  0.00    -0.326 N 
ATOM      4  H2  UNL     1      13.539  47.406  -1.101  1.00  0.00     0.169 HD
BRANCH   3   5
HETATM    5  C2  UNL     1      11.654  47.635  -1.937  1.00  0.00     0.111 A 
HETATM    6  N1  UNL     1      11.257  47.000  -3.079  1.00  0.00    -0.337 N 
HETATM    7  C1  UNL     1      12.011  45.864  -3.633  1.00  0.00     0.158 C 
HETATM    8  C13 UNL     1      10.273  47.677  -3.699  1.00  0.00     0.071 A 
HETATM    9  C12 UNL     1      10.104  48.846  -2.864  1.00  0.00     0.130 A 
HETATM   10  C11 UNL     1      10.905  48.761  -1.843  1.00  0.00     0.086 A 
BRANCH   8  11
HETATM   11  C14 UNL     1       9.601  47.448  -4.965  1.00  0.00     0.289 C 
BRANCH  11  12
HETATM   12  N9  UNL     1       8.170  47.050  -4.668  1.00  0.00    -0.074 N 
ATOM     13  H93 UNL     1       7.921  47.174  -3.687  1.00  0.00     0.274 HD
ATOM     14  H92 UNL     1       7.489  47.700  -5.064  1.00  0.00     0.274 HD
ATOM     15  H91 UNL     1       8.036  46.092  -4.992  1.00  0.00     0.274 HD
ENDBRANCH  11  12
ENDBRANCH   8  11
BRANCH   9  16
HETATM   16  N8  UNL     1       9.104  49.798  -3.190  1.00  0.00    -0.113 N 
HETATM   17  O5  UNL     1       9.303  50.808  -3.859  1.00  0.00    -0.532 OA
HETATM   18  O6  UNL     1       7.802  49.586  -2.737  1.00  0.00    -0.532 OA
ENDBRANCH   9  16
ENDBRANCH   3   5
BRANCH   2  19
HETATM   19  O1  UNL     1      13.505  46.071   0.833  1.00  0.00    -0.349 OA
ATOM     20  H1  UNL     1      13.420  45.388   1.487  1.00  0.00     0.219 HD
ENDBRANCH   2  19
ENDBRANCH   1   2
BRANCH   1  21
HETATM   21  S1  UNL     1      10.256  44.756  -0.227  1.00  0.00    -0.103 SA
BRANCH  21  22
HETATM   22  C5  UNL     1       8.586  45.160  -0.468  1.00  0.00     0.088 A 
HETATM   23  C6  UNL     1       8.025  45.993  -1.373  1.00  0.00     0.112 A 
HETATM   24  C7  UNL     1       6.678  46.145  -1.447  1.00  0.00     0.251 A 
HETATM   25  O2  UNL     1       6.227  46.959  -2.322  1.00  0.00    -0.268 OA
HETATM   26  N3  UNL     1       5.830  45.486  -0.633  1.00  0.00    -0.275 N 
HETATM   27  C8  UNL     1       6.361  44.667   0.290  1.00  0.00     0.336 A 
ATOM     28  H3  UNL     1       4.821  45.604  -0.716  1.00  0.00     0.173 HD
HETATM   29  O3  UNL     1       5.601  44.030   1.067  1.00  0.00    -0.246 OA
HETATM   30  N4  UNL     1       7.684  44.514   0.372  1.00  0.00    -0.238 N 
BRANCH  30  31
HETATM   31  C9  UNL     1       8.278  43.710   1.391  1.00  0.00     0.185 A 
HETATM   32  N5  UNL     1       8.612  44.018   2.626  1.00  0.00    -0.221 N 
HETATM   33  O4  UNL     1       9.068  42.954   3.202  1.00  0.00    -0.153 OA
ATOM     34  H5  UNL     1       8.526  44.940   3.056  1.00  0.00     0.198 HD
HETATM   35  N6  UNL     1       9.028  41.963   2.420  1.00  0.00    -0.222 N 
HETATM   36  C10 UNL     1       8.537  42.354   1.212  1.00  0.00     0.168 A 
ATOM     37  H6  UNL     1       9.320  41.015   2.657  1.00  0.00     0.198 HD
BRANCH  36  38
HETATM   38  N7  UNL     1       8.403  41.691   0.107  1.00  0.00    -0.381 N 
ATOM     39  H72 UNL     1       8.082  41.997  -0.812  1.00  0.00     0.157 HD
ATOM     40  H71 UNL     1       8.541  40.688  -0.012  1.00  0.00     0.157 HD
ENDBRANCH  36  38
ENDBRANCH  30  31
ENDBRANCH  21  22
ENDBRANCH   1  21
TORSDOF 10
ENDMDL
MODEL 2
REMARK VINA RESULT: -5.366203839      1.956      6.172
REMARK  10 active torsions:
REMARK  status: ('A' for Active; 'I' for Inactive)
REMARK    1  A    between atoms: C2_3  and  N2_4 
REMARK    2  A    between atoms: C3_6  and  O1_7 
REMARK    3  A    between atoms: C3_6  and  C4_9 
REMARK    4  A    between atoms: C4_9  and  S1_10 
REMARK    5  A    between atoms: S1_10  and  C5_11 
REMARK    6  A    between atoms: N4_19  and  C9_20 
REMARK    7  A    between atoms: C10_26  and  N7_27 
REMARK    8  A    between atoms: C12_31  and  N8_32 
REMARK    9  A    between atoms: C13_35  and  C14_36 
REMARK   10  A    between atoms: C14_36  and  N9_37 
ROOT
HETATM    1  C4  UNL     1      10.452  47.068  -0.849  1.00  0.00     0.165 C 
ENDROOT
BRANCH   1   2
HETATM    2  C3  UNL     1      11.310  46.577   0.279  1.00  0.00     0.126 C 
HETATM    3  N2  UNL     1      11.327  45.495   1.025  1.00  0.00    -0.326 N 
ATOM      4  H2  UNL     1      12.088  45.481   1.704  1.00  0.00     0.169 HD
BRANCH   3   5
HETATM    5  C2  UNL     1      10.486  44.321   1.079  1.00  0.00     0.111 A 
HETATM    6  N1  UNL     1      10.784  43.073   0.608  1.00  0.00    -0.337 N 
HETATM    7  C1  UNL     1      11.867  42.853  -0.363  1.00  0.00     0.158 C 
HETATM    8  C13 UNL     1       9.847  42.177   0.968  1.00  0.00     0.071 A 
HETATM    9  C12 UNL     1       8.881  42.983   1.683  1.00  0.00     0.130 A 
HETATM   10  C11 UNL     1       9.310  44.209   1.744  1.00  0.00     0.086 A 
BRANCH   8  11
HETATM   11  C14 UNL     1       9.685  40.773   0.639  1.00  0.00     0.289 C 
BRANCH  11  12
HETATM   12  N9  UNL     1       8.715  40.675  -0.521  1.00  0.00    -0.074 N 
ATOM     13  H93 UNL     1       8.316  39.742  -0.625  1.00  0.00     0.274 HD
ATOM     14  H92 UNL     1       7.844  41.178  -0.351  1.00  0.00     0.274 HD
ATOM     15  H91 UNL     1       9.198  40.993  -1.362  1.00  0.00     0.274 HD
ENDBRANCH  11  12
ENDBRANCH   8  11
BRANCH   9  16
HETATM   16  N8  UNL     1       7.742  42.362   2.258  1.00  0.00    -0.113 N 
HETATM   17  O5  UNL     1       7.680  41.974   3.421  1.00  0.00    -0.532 OA
HETATM   18  O6  UNL     1       6.607  42.180   1.469  1.00  0.00    -0.532 OA
ENDBRANCH   9  16
ENDBRANCH   3   5
BRANCH   2  19
HETATM   19  O1  UNL     1      12.232  47.514   0.534  1.00  0.00    -0.349 OA
ATOM     20  H1  UNL     1      12.137  48.350   0.094  1.00  0.00     0.219 HD
ENDBRANCH   2  19
ENDBRANCH   1   2
BRANCH   1  21
HETATM   21  S1  UNL     1       9.460  45.803  -1.578  1.00  0.00    -0.103 SA
BRANCH  21  22
HETATM   22  C5  UNL     1       7.741  45.866  -1.348  1.00  0.00     0.088 A 
HETATM   23  C6  UNL     1       6.971  45.232  -0.436  1.00  0.00     0.112 A 
HETATM   24  C7  UNL     1       5.633  45.449  -0.375  1.00  0.00     0.251 A 
HETATM   25  O2  UNL     1       4.975  44.803   0.510  1.00  0.00    -0.268 OA
HETATM   26  N3  UNL     1       4.999  46.296  -1.209  1.00  0.00    -0.275 N 
HETATM   27  C8  UNL     1       5.735  46.924  -2.140  1.00  0.00     0.336 A 
ATOM     28  H3  UNL     1       3.994  46.454  -1.135  1.00  0.00     0.173 HD
HETATM   29  O3  UNL     1       5.179  47.726  -2.936  1.00  0.00    -0.246 OA
HETATM   30  N4  UNL     1       7.052  46.715  -2.210  1.00  0.00    -0.238 N 
BRANCH  30  31
HETATM   31  C9  UNL     1       7.846  47.310  -3.235  1.00  0.00     0.185 A 
HETATM   32  N5  UNL     1       8.330  46.788  -4.342  1.00  0.00    -0.221 N 
HETATM   33  O4  UNL     1       8.944  47.718  -4.996  1.00  0.00    -0.153 OA
ATOM     34  H5  UNL     1       8.237  45.814  -4.634  1.00  0.00     0.198 HD
HETATM   35  N6  UNL     1       8.868  48.825  -4.390  1.00  0.00    -0.222 N 
HETATM   36  C10 UNL     1       8.179  48.662  -3.228  1.00  0.00     0.168 A 
ATOM     37  H6  UNL     1       9.262  49.705  -4.722  1.00  0.00     0.198 HD
BRANCH  36  38
HETATM   38  N7  UNL     1       7.938  49.501  -2.271  1.00  0.00    -0.381 N 
ATOM     39  H72 UNL     1       7.246  49.468  -1.522  1.00  0.00     0.157 HD
ATOM     40  H71 UNL     1       8.380  50.411  -2.145  1.00  0.00     0.157 HD
ENDBRANCH  36  38
ENDBRANCH  30  31
ENDBRANCH  21  22
ENDBRANCH   1  21
TORSDOF 10
ENDMDL
MODEL 3
REMARK VINA RESULT: -5.351449654      3.061      4.788
REMARK  10 active torsions:
REMARK  status: ('A' for Active; 'I' for Inactive)
REMARK    1  A    between atoms: C2_3  and  N2_4 
REMARK    2  A    between atoms: C3_6  and  O1_7 
REMARK    3  A    between atoms: C3_6  and  C4_9 
REMARK    4  A    between atoms: C4_9  and  S1_10 
REMARK    5  A    between atoms: S1_10  and  C5_11 
REMARK    6  A    between atoms: N4_19  and  C9_20 
REMARK    7  A    between atoms: C10_26  and  N7_27 
REMARK    8  A    between atoms: C12_31  and  N8_32 
REMARK    9  A    between atoms: C13_35  and  C14_36 
REMARK   10  A    between atoms: C14_36  and  N9_37 
ROOT
HETATM    1  C4  UNL     1       7.398  47.587  -3.091  1.00  0.00     0.165 C 
ENDROOT
BRANCH   1   2
HETATM    2  C3  UNL     1       7.981  48.959  -3.258  1.00  0.00     0.126 C 
HETATM    3  N2  UNL     1       8.514  49.622  -4.261  1.00  0.00    -0.326 N 
ATOM      4  H2  UNL     1       8.793  50.572  -4.017  1.00  0.00     0.169 HD
BRANCH   3   5
HETATM    5  C2  UNL     1       8.785  49.277  -5.637  1.00  0.00     0.111 A 
HETATM    6  N1  UNL     1       8.799  50.123  -6.710  1.00  0.00    -0.337 N 
HETATM    7  C1  UNL     1       8.163  51.449  -6.655  1.00  0.00     0.158 C 
HETATM    8  C13 UNL     1       9.250  49.504  -7.816  1.00  0.00     0.071 A 
HETATM    9  C12 UNL     1       9.482  48.150  -7.362  1.00  0.00     0.130 A 
HETATM   10  C11 UNL     1       9.226  48.077  -6.089  1.00  0.00     0.086 A 
BRANCH   8  11
HETATM   11  C14 UNL     1       9.362  49.956  -9.191  1.00  0.00     0.289 C 
BRANCH  11  12
HETATM   12  N9  UNL     1       8.146  49.460  -9.946  1.00  0.00    -0.074 N 
ATOM     13  H93 UNL     1       7.882  48.508  -9.689  1.00  0.00     0.274 HD
ATOM     14  H92 UNL     1       7.284  49.923  -9.654  1.00  0.00     0.274 HD
ATOM     15  H91 UNL     1       8.332  49.562 -10.944  1.00  0.00     0.274 HD
ENDBRANCH  11  12
ENDBRANCH   8  11
BRANCH   9  16
HETATM   16  N8  UNL     1      10.008  47.191  -8.266  1.00  0.00    -0.113 N 
HETATM   17  O5  UNL     1      11.199  46.909  -8.358  1.00  0.00    -0.532 OA
HETATM   18  O6  UNL     1       9.129  46.506  -9.105  1.00  0.00    -0.532 OA
ENDBRANCH   9  16
ENDBRANCH   3   5
BRANCH   2  19
HETATM   19  O1  UNL     1       7.923  49.578  -2.073  1.00  0.00    -0.349 OA
ATOM     20  H1  UNL     1       7.247  49.299  -1.467  1.00  0.00     0.219 HD
ENDBRANCH   2  19
ENDBRANCH   1   2
BRANCH   1  21
HETATM   21  S1  UNL     1       8.444  46.484  -2.195  1.00  0.00    -0.103 SA
BRANCH  21  22
HETATM   22  C5  UNL     1       7.756  45.569  -0.892  1.00  0.00     0.088 A 
HETATM   23  C6  UNL     1       6.458  45.352  -0.584  1.00  0.00     0.112 A 
HETATM   24  C7  UNL     1       6.107  44.555   0.456  1.00  0.00     0.251 A 
HETATM   25  O2  UNL     1       4.858  44.409   0.688  1.00  0.00    -0.268 OA
HETATM   26  N3  UNL     1       7.017  43.940   1.236  1.00  0.00    -0.275 N 
HETATM   27  C8  UNL     1       8.316  44.153   0.967  1.00  0.00     0.336 A 
ATOM     28  H3  UNL     1       6.730  43.334   2.004  1.00  0.00     0.173 HD
HETATM   29  O3  UNL     1       9.198  43.594   1.671  1.00  0.00    -0.246 OA
HETATM   30  N4  UNL     1       8.671  44.939  -0.052  1.00  0.00    -0.238 N 
BRANCH  30  31
HETATM   31  C9  UNL     1      10.040  45.244  -0.314  1.00  0.00     0.185 A 
HETATM   32  N5  UNL     1      10.803  46.200   0.171  1.00  0.00    -0.221 N 
HETATM   33  O4  UNL     1      11.994  46.054  -0.310  1.00  0.00    -0.153 OA
ATOM     34  H5  UNL     1      10.505  46.932   0.817  1.00  0.00     0.198 HD
HETATM   35  N6  UNL     1      12.058  45.042  -1.064  1.00  0.00    -0.222 N 
HETATM   36  C10 UNL     1      10.834  44.451  -1.139  1.00  0.00     0.168 A 
ATOM     37  H6  UNL     1      12.898  44.718  -1.543  1.00  0.00     0.198 HD
BRANCH  36  38
HETATM   38  N7  UNL     1      10.429  43.448  -1.853  1.00  0.00    -0.381 N 
ATOM     39  H72 UNL     1       9.934  43.430  -2.745  1.00  0.00     0.157 HD
ATOM     40  H71 UNL     1      10.483  42.464  -1.590  1.00  0.00     0.157 HD
ENDBRANCH  36  38
ENDBRANCH  30  31
ENDBRANCH  21  22
ENDBRANCH   1  21
TORSDOF 10
ENDMDL
MODEL 4
REMARK VINA RESULT: -5.340884543      1.464      1.651
REMARK  10 active torsions:
REMARK  status: ('A' for Active; 'I' for Inactive)
REMARK    1  A    between atoms: C2_3  and  N2_4 
REMARK    2  A    between atoms: C3_6  and  O1_7 
REMARK    3  A    between atoms: C3_6  and  C4_9 
REMARK    4  A    between atoms: C4_9  and  S1_10 
REMARK    5  A    between atoms: S1_10  and  C5_11 
REMARK    6  A    between atoms: N4_19  and  C9_20 
REMARK    7  A    between atoms: C10_26  and  N7_27 
REMARK    8  A    between atoms: C12_31  and  N8_32 
REMARK    9  A    between atoms: C13_35  and  C14_36 
REMARK   10  A    between atoms: C14_36  and  N9_37 
ROOT
HETATM    1  C4  UNL     1      11.664  45.742  -0.539  1.00  0.00     0.165 C 
ENDROOT
BRANCH   1   2
HETATM    2  C3  UNL     1      11.452  47.145  -0.050  1.00  0.00     0.126 C 
HETATM    3  N2  UNL     1      11.124  48.283  -0.621  1.00  0.00    -0.326 N 
ATOM      4  H2  UNL     1      11.043  49.059   0.037  1.00  0.00     0.169 HD
BRANCH   3   5
HETATM    5  C2  UNL     1      10.856  48.658  -1.990  1.00  0.00     0.111 A 
HETATM    6  N1  UNL     1      11.774  48.882  -2.977  1.00  0.00    -0.337 N 
HETATM    7  C1  UNL     1      13.190  49.138  -2.669  1.00  0.00     0.158 C 
HETATM    8  C13 UNL     1      11.178  49.051  -4.171  1.00  0.00     0.071 A 
HETATM    9  C12 UNL     1       9.770  48.961  -3.850  1.00  0.00     0.130 A 
HETATM   10  C11 UNL     1       9.637  48.705  -2.582  1.00  0.00     0.086 A 
BRANCH   8  11
HETATM   11  C14 UNL     1      11.719  49.393  -5.474  1.00  0.00     0.289 C 
BRANCH  11  12
HETATM   12  N9  UNL     1      11.762  48.129  -6.308  1.00  0.00    -0.074 N 
ATOM     13  H93 UNL     1      12.661  47.650  -6.252  1.00  0.00     0.274 HD
ATOM     14  H92 UNL     1      11.185  47.381  -5.922  1.00  0.00     0.274 HD
ATOM     15  H91 UNL     1      11.504  48.374  -7.264  1.00  0.00     0.274 HD
ENDBRANCH  11  12
ENDBRANCH   8  11
BRANCH   9  16
HETATM   16  N8  UNL     1       8.809  49.058  -4.889  1.00  0.00    -0.113 N 
HETATM   17  O5  UNL     1       8.114  50.048  -5.098  1.00  0.00    -0.532 OA
HETATM   18  O6  UNL     1       8.634  47.971  -5.746  1.00  0.00    -0.532 OA
ENDBRANCH   9  16
ENDBRANCH   3   5
BRANCH   2  19
HETATM   19  O1  UNL     1      11.681  47.161   1.269  1.00  0.00    -0.349 OA
ATOM     20  H1  UNL     1      11.254  46.495   1.794  1.00  0.00     0.219 HD
ENDBRANCH   2  19
ENDBRANCH   1   2
BRANCH   1  21
HETATM   21  S1  UNL     1      10.386  44.629  -0.051  1.00  0.00    -0.103 SA
BRANCH  21  22
HETATM   22  C5  UNL     1       8.738  45.075  -0.364  1.00  0.00     0.088 A 
HETATM   23  C6  UNL     1       8.235  45.901  -1.309  1.00  0.00     0.112 A 
HETATM   24  C7  UNL     1       6.897  46.089  -1.436  1.00  0.00     0.251 A 
HETATM   25  O2  UNL     1       6.502  46.893  -2.347  1.00  0.00    -0.268 OA
HETATM   26  N3  UNL     1       6.001  45.475  -0.638  1.00  0.00    -0.275 N 
HETATM   27  C8  UNL     1       6.473  44.665   0.323  1.00  0.00     0.336 A 
ATOM     28  H3  UNL     1       5.000  45.620  -0.761  1.00  0.00     0.173 HD
HETATM   29  O3  UNL     1       5.667  44.070   1.087  1.00  0.00    -0.246 OA
HETATM   30  N4  UNL     1       7.788  44.476   0.458  1.00  0.00    -0.238 N 
BRANCH  30  31
HETATM   31  C9  UNL     1       8.320  43.681   1.517  1.00  0.00     0.185 A 
HETATM   32  N5  UNL     1       8.649  44.018   2.746  1.00  0.00    -0.221 N 
HETATM   33  O4  UNL     1       9.038  42.954   3.370  1.00  0.00    -0.153 OA
ATOM     34  H5  UNL     1       8.606  44.958   3.139  1.00  0.00     0.198 HD
HETATM   35  N6  UNL     1       8.958  41.937   2.624  1.00  0.00    -0.222 N 
HETATM   36  C10 UNL     1       8.509  42.307   1.394  1.00  0.00     0.168 A 
ATOM     37  H6  UNL     1       9.193  40.984   2.902  1.00  0.00     0.198 HD
BRANCH  36  38
HETATM   38  N7  UNL     1       8.358  41.611   0.311  1.00  0.00    -0.381 N 
ATOM     39  H72 UNL     1       7.819  41.809  -0.532  1.00  0.00     0.157 HD
ATOM     40  H71 UNL     1       8.718  40.671   0.147  1.00  0.00     0.157 HD
ENDBRANCH  36  38
ENDBRANCH  30  31
ENDBRANCH  21  22
ENDBRANCH   1  21
TORSDOF 10
ENDMDL
MODEL 5
REMARK VINA RESULT: -5.332687522      1.831      2.462
REMARK  10 active torsions:
REMARK  status: ('A' for Active; 'I' for Inactive)
REMARK    1  A    between atoms: C2_3  and  N2_4 
REMARK    2  A    between atoms: C3_6  and  O1_7 
REMARK    3  A    between atoms: C3_6  and  C4_9 
REMARK    4  A    between atoms: C4_9  and  S1_10 
REMARK    5  A    between atoms: S1_10  and  C5_11 
REMARK    6  A    between atoms: N4_19  and  C9_20 
REMARK    7  A    between atoms: C10_26  and  N7_27 
REMARK    8  A    between atoms: C12_31  and  N8_32 
REMARK    9  A    between atoms: C13_35  and  C14_36 
REMARK   10  A    between atoms: C14_36  and  N9_37 
ROOT
HETATM    1  C4  UNL     1      11.880  45.483  -0.663  1.00  0.00     0.165 C 
ENDROOT
BRANCH   1   2
HETATM    2  C3  UNL     1      11.310  46.649   0.088  1.00  0.00     0.126 C 
HETATM    3  N2  UNL     1      10.747  47.786  -0.258  1.00  0.00    -0.326 N 
ATOM      4  H2  UNL     1      10.446  48.349   0.537  1.00  0.00     0.169 HD
BRANCH   3   5
HETATM    5  C2  UNL     1      10.468  48.399  -1.537  1.00  0.00     0.111 A 
HETATM    6  N1  UNL     1      11.324  49.149  -2.293  1.00  0.00    -0.337 N 
HETATM    7  C1  UNL     1      12.538  49.750  -1.718  1.00  0.00     0.158 C 
HETATM    8  C13 UNL     1      10.797  49.425  -3.500  1.00  0.00     0.071 A 
HETATM    9  C12 UNL     1       9.486  48.816  -3.433  1.00  0.00     0.130 A 
HETATM   10  C11 UNL     1       9.356  48.211  -2.289  1.00  0.00     0.086 A 
BRANCH   8  11
HETATM   11  C14 UNL     1      11.282  50.246  -4.594  1.00  0.00     0.289 C 
BRANCH  11  12
HETATM   12  N9  UNL     1      10.672  51.625  -4.449  1.00  0.00    -0.074 N 
ATOM     13  H93 UNL     1       9.679  51.595  -4.220  1.00  0.00     0.274 HD
ATOM     14  H92 UNL     1      10.991  52.111  -3.611  1.00  0.00     0.274 HD
ATOM     15  H91 UNL     1      10.865  52.145  -5.306  1.00  0.00     0.274 HD
ENDBRANCH  11  12
ENDBRANCH   8  11
BRANCH   9  16
HETATM   16  N8  UNL     1       8.632  48.870  -4.563  1.00  0.00    -0.113 N 
HETATM   17  O5  UNL     1       8.044  49.881  -4.937  1.00  0.00    -0.532 OA
HETATM   18  O6  UNL     1       8.440  47.712  -5.317  1.00  0.00    -0.532 OA
ENDBRANCH   9  16
ENDBRANCH   3   5
BRANCH   2  19
HETATM   19  O1  UNL     1      11.458  46.410   1.396  1.00  0.00    -0.349 OA
ATOM     20  H1  UNL     1      11.577  45.506   1.664  1.00  0.00     0.219 HD
ENDBRANCH   2  19
ENDBRANCH   1   2
BRANCH   1  21
HETATM   21  S1  UNL     1      10.871  44.038  -0.586  1.00  0.00    -0.103 SA
BRANCH  21  22
HETATM   22  C5  UNL     1       9.193  44.222  -0.183  1.00  0.00     0.088 A 
HETATM   23  C6  UNL     1       8.257  45.022  -0.741  1.00  0.00     0.112 A 
HETATM   24  C7  UNL     1       6.967  44.991  -0.321  1.00  0.00     0.251 A 
HETATM   25  O2  UNL     1       6.146  45.786  -0.892  1.00  0.00    -0.268 OA
HETATM   26  N3  UNL     1       6.547  44.175   0.665  1.00  0.00    -0.275 N 
HETATM   27  C8  UNL     1       7.459  43.384   1.253  1.00  0.00     0.336 A 
ATOM     28  H3  UNL     1       5.569  44.159   0.955  1.00  0.00     0.173 HD
HETATM   29  O3  UNL     1       7.105  42.605   2.177  1.00  0.00    -0.246 OA
HETATM   30  N4  UNL     1       8.731  43.410   0.849  1.00  0.00    -0.238 N 
BRANCH  30  31
HETATM   31  C9  UNL     1       9.735  42.636   1.505  1.00  0.00     0.185 A 
HETATM   32  N5  UNL     1      10.159  41.415   1.259  1.00  0.00    -0.221 N 
HETATM   33  O4  UNL     1      11.124  41.146   2.076  1.00  0.00    -0.153 OA
ATOM     34  H5  UNL     1       9.789  40.787   0.545  1.00  0.00     0.198 HD
HETATM   35  N6  UNL     1      11.370  42.133   2.827  1.00  0.00    -0.222 N 
HETATM   36  C10 UNL     1      10.513  43.150   2.539  1.00  0.00     0.168 A 
ATOM     37  H6  UNL     1      12.099  42.162   3.539  1.00  0.00     0.198 HD
BRANCH  36  38
HETATM   38  N7  UNL     1      10.356  44.303   3.111  1.00  0.00    -0.381 N 
ATOM     39  H72 UNL     1      10.874  45.174   2.994  1.00  0.00     0.157 HD
ATOM     40  H71 UNL     1       9.698  44.516   3.859  1.00  0.00     0.157 HD
ENDBRANCH  36  38
ENDBRANCH  30  31
ENDBRANCH  21  22
ENDBRANCH   1  21
TORSDOF 10
ENDMDL
