MODEL 1
REMARK VINA RESULT: -6.201880220      0.000      0.000
REMARK  2 active torsions:
REMARK  status: ('A' for Active; 'I' for Inactive)
REMARK    1  A    between atoms: C7_9  and  C8_10 
REMARK    2  A    between atoms: C8_10  and  N2_11 
ROOT
HETATM    1  C1  UNL     1      82.931  68.506 -11.227  1.00  0.00     0.026 C 
HETATM    2  C2  UNL     1      82.658  69.013 -10.048  1.00  0.00    -0.010 A 
HETATM    3  C3  UNL     1      81.343  69.139  -9.573  1.00  0.00    -0.028 A 
HETATM    4  C4  UNL     1      80.111  68.739 -10.291  1.00  0.00     0.051 C 
HETATM    5  C5  UNL     1      81.404  69.698  -8.327  1.00  0.00     0.012 A 
HETATM    6  C6  UNL     1      80.240  70.025  -7.419  1.00  0.00     0.068 C 
HETATM    7  N1  UNL     1      82.687  69.898  -8.064  1.00  0.00    -0.358 N 
ATOM      8  H1  UNL     1      83.025  70.307  -7.193  1.00  0.00     0.166 HD
HETATM    9  C7  UNL     1      83.511  69.500  -9.079  1.00  0.00     0.058 A 
ENDROOT
BRANCH   9  10
HETATM   10  C8  UNL     1      84.822  69.591  -9.068  1.00  0.00     0.115 C 
BRANCH  10  11
HETATM   11  N2  UNL     1      85.715  69.502 -10.119  1.00  0.00    -0.397 N 
HETATM   12  C9  UNL     1      85.918  70.626 -11.026  1.00  0.00     0.148 C 
HETATM   13  C10 UNL     1      86.509  68.270 -10.301  1.00  0.00     0.148 C 
ENDBRANCH  10  11
ENDBRANCH   9  10
TORSDOF 2
ENDMDL
MODEL 2
REMARK VINA RESULT: -6.188493669      0.019      1.035
REMARK  2 active torsions:
REMARK  status: ('A' for Active; 'I' for Inactive)
REMARK    1  A    between atoms: C7_9  and  C8_10 
REMARK    2  A    between atoms: C8_10  and  N2_11 
ROOT
HETATM    1  C1  UNL     1      82.946  68.515 -11.230  1.00  0.00     0.026 C 
HETATM    2  C2  UNL     1      82.666  69.019 -10.051  1.00  0.00    -0.010 A 
HETATM    3  C3  UNL     1      81.348  69.145  -9.583  1.00  0.00    -0.028 A 
HETATM    4  C4  UNL     1      80.120  68.751 -10.311  1.00  0.00     0.051 C 
HETATM    5  C5  UNL     1      81.403  69.699  -8.335  1.00  0.00     0.012 A 
HETATM    6  C6  UNL     1      80.234  70.025  -7.433  1.00  0.00     0.068 C 
HETATM    7  N1  UNL     1      82.684  69.895  -8.064  1.00  0.00    -0.358 N 
ATOM      8  H1  UNL     1      83.018  70.301  -7.189  1.00  0.00     0.166 HD
HETATM    9  C7  UNL     1      83.514  69.500  -9.074  1.00  0.00     0.058 A 
ENDROOT
BRANCH   9  10
HETATM   10  C8  UNL     1      84.825  69.588  -9.055  1.00  0.00     0.115 C 
BRANCH  10  11
HETATM   11  N2  UNL     1      85.726  69.491 -10.099  1.00  0.00    -0.397 N 
HETATM   12  C9  UNL     1      86.478  68.261 -10.326  1.00  0.00     0.148 C 
HETATM   13  C10 UNL     1      85.897  70.628 -11.025  1.00  0.00     0.148 C 
ENDBRANCH  10  11
ENDBRANCH   9  10
TORSDOF 2
ENDMDL
MODEL 3
REMARK VINA RESULT: -6.114230439      1.433      2.560
REMARK  2 active torsions:
REMARK  status: ('A' for Active; 'I' for Inactive)
REMARK    1  A    between atoms: C7_9  and  C8_10 
REMARK    2  A    between atoms: C8_10  and  N2_11 
ROOT
HETATM    1  C1  UNL     1      84.608  69.707  -8.806  1.00  0.00     0.026 C 
HETATM    2  C2  UNL     1      83.669  69.282  -9.618  1.00  0.00    -0.010 A 
HETATM    3  C3  UNL     1      82.309  69.310  -9.271  1.00  0.00    -0.028 A 
HETATM    4  C4  UNL     1      81.743  69.800  -7.993  1.00  0.00     0.051 C 
HETATM    5  C5  UNL     1      81.601  68.804 -10.325  1.00  0.00     0.012 A 
HETATM    6  C6  UNL     1      80.101  68.636 -10.416  1.00  0.00     0.068 C 
HETATM    7  N1  UNL     1      82.486  68.487 -11.258  1.00  0.00    -0.358 N 
ATOM      8  H1  UNL     1      82.232  68.084 -12.160  1.00  0.00     0.166 HD
HETATM    9  C7  UNL     1      83.774  68.754 -10.890  1.00  0.00     0.058 A 
ENDROOT
BRANCH   9  10
HETATM   10  C8  UNL     1      84.835  68.532 -11.632  1.00  0.00     0.115 C 
BRANCH  10  11
HETATM   11  N2  UNL     1      86.173  68.605 -11.294  1.00  0.00    -0.397 N 
HETATM   12  C9  UNL     1      86.822  67.517 -10.569  1.00  0.00     0.148 C 
HETATM   13  C10 UNL     1      86.969  69.777 -11.708  1.00  0.00     0.148 C 
ENDBRANCH  10  11
ENDBRANCH   9  10
TORSDOF 2
ENDMDL
MODEL 4
REMARK VINA RESULT: -6.109370286      1.579      2.440
REMARK  2 active torsions:
REMARK  status: ('A' for Active; 'I' for Inactive)
REMARK    1  A    between atoms: C7_9  and  C8_10 
REMARK    2  A    between atoms: C8_10  and  N2_11 
ROOT
HETATM    1  C1  UNL     1      84.434  69.713  -8.691  1.00  0.00     0.026 C 
HETATM    2  C2  UNL     1      83.500  69.281  -9.506  1.00  0.00    -0.010 A 
HETATM    3  C3  UNL     1      82.138  69.306  -9.166  1.00  0.00    -0.028 A 
HETATM    4  C4  UNL     1      81.563  69.801  -7.894  1.00  0.00     0.051 C 
HETATM    5  C5  UNL     1      81.438  68.791 -10.221  1.00  0.00     0.012 A 
HETATM    6  C6  UNL     1      79.939  68.618 -10.319  1.00  0.00     0.068 C 
HETATM    7  N1  UNL     1      82.329  68.473 -11.147  1.00  0.00    -0.358 N 
ATOM      8  H1  UNL     1      82.081  68.064 -12.049  1.00  0.00     0.166 HD
HETATM    9  C7  UNL     1      83.614  68.746 -10.773  1.00  0.00     0.058 A 
ENDROOT
BRANCH   9  10
HETATM   10  C8  UNL     1      84.680  68.524 -11.509  1.00  0.00     0.115 C 
BRANCH  10  11
HETATM   11  N2  UNL     1      85.525  69.429 -12.124  1.00  0.00    -0.397 N 
HETATM   12  C9  UNL     1      85.038  70.309 -13.181  1.00  0.00     0.148 C 
HETATM   13  C10 UNL     1      86.928  69.540 -11.676  1.00  0.00     0.148 C 
ENDBRANCH  10  11
ENDBRANCH   9  10
TORSDOF 2
ENDMDL
MODEL 5
REMARK VINA RESULT: -6.107514323      1.439      2.362
REMARK  2 active torsions:
REMARK  status: ('A' for Active; 'I' for Inactive)
REMARK    1  A    between atoms: C7_9  and  C8_10 
REMARK    2  A    between atoms: C8_10  and  N2_11 
ROOT
HETATM    1  C1  UNL     1      84.640  69.700  -8.823  1.00  0.00     0.026 C 
HETATM    2  C2  UNL     1      83.694  69.278  -9.629  1.00  0.00    -0.010 A 
HETATM    3  C3  UNL     1      82.337  69.299  -9.269  1.00  0.00    -0.028 A 
HETATM    4  C4  UNL     1      81.782  69.779  -7.983  1.00  0.00     0.051 C 
HETATM    5  C5  UNL     1      81.621  68.798 -10.319  1.00  0.00     0.012 A 
HETATM    6  C6  UNL     1      80.121  68.626 -10.397  1.00  0.00     0.068 C 
HETATM    7  N1  UNL     1      82.498  68.491 -11.263  1.00  0.00    -0.358 N 
ATOM      8  H1  UNL     1      82.237  68.094 -12.166  1.00  0.00     0.166 HD
HETATM    9  C7  UNL     1      83.789  68.759 -10.905  1.00  0.00     0.058 A 
ENDROOT
BRANCH   9  10
HETATM   10  C8  UNL     1      84.843  68.546 -11.659  1.00  0.00     0.115 C 
BRANCH  10  11
HETATM   11  N2  UNL     1      86.184  68.609 -11.330  1.00  0.00    -0.397 N 
HETATM   12  C9  UNL     1      86.986  69.778 -11.678  1.00  0.00     0.148 C 
HETATM   13  C10 UNL     1      86.805  67.501 -10.577  1.00  0.00     0.148 C 
ENDBRANCH  10  11
ENDBRANCH   9  10
TORSDOF 2
ENDMDL
