MODEL 1
REMARK VINA RESULT: -5.297343524      0.000      0.000
REMARK  3 active torsions:
REMARK  status: ('A' for Active; 'I' for Inactive)
REMARK    1  A    between atoms: N2_3  and  C2_4 
REMARK    2  A    between atoms: N2_3  and  C5_7 
REMARK    3  A    between atoms: C5_7  and  N3_9 
ROOT
HETATM    1  C1  UNL     1      85.244  69.582  -8.892  1.00  0.00     0.258 C 
HETATM    2  N1  UNL     1      84.330  69.279  -9.553  1.00  0.00    -0.345 NA
HETATM    3  N2  UNL     1      83.258  68.946 -10.294  1.00  0.00    -0.190 N 
ENDROOT
BRANCH   3   4
HETATM    4  C2  UNL     1      83.434  68.339 -11.609  1.00  0.00     0.259 C 
HETATM    5  C3  UNL     1      84.316  69.227 -12.399  1.00  0.00    -0.095 C 
HETATM    6  C4  UNL     1      85.042  69.961 -13.015  1.00  0.00     0.014 C 
ENDBRANCH   3   4
BRANCH   3   7
HETATM    7  C5  UNL     1      81.960  69.226  -9.799  1.00  0.00     0.211 C 
HETATM    8  S1  UNL     1      80.668  68.319 -10.280  1.00  0.00    -0.038 SA
BRANCH   7   9
HETATM    9  N3  UNL     1      81.677  70.277  -8.875  1.00  0.00    -0.291 N 
HETATM   10  C6  UNL     1      80.952  70.072  -7.695  1.00  0.00     0.001 C 
HETATM   11  C7  UNL     1      80.299  69.917  -6.686  1.00  0.00     0.037 C 
ATOM     12  H3  UNL     1      82.017  71.215  -9.083  1.00  0.00     0.178 HD
ENDBRANCH   7   9
ENDBRANCH   3   7
TORSDOF 3
ENDMDL
MODEL 2
REMARK VINA RESULT: -5.277093005      1.254      2.142
REMARK  3 active torsions:
REMARK  status: ('A' for Active; 'I' for Inactive)
REMARK    1  A    between atoms: N2_3  and  C2_4 
REMARK    2  A    between atoms: N2_3  and  C5_7 
REMARK    3  A    between atoms: C5_7  and  N3_9 
ROOT
HETATM    1  C1  UNL     1      84.347  68.304 -12.464  1.00  0.00     0.258 C 
HETATM    2  N1  UNL     1      84.234  68.704 -11.373  1.00  0.00    -0.345 NA
HETATM    3  N2  UNL     1      84.073  69.159 -10.117  1.00  0.00    -0.190 N 
ENDROOT
BRANCH   3   4
HETATM    4  C2  UNL     1      85.236  69.436  -9.282  1.00  0.00     0.259 C 
HETATM    5  C3  UNL     1      86.357  69.797 -10.179  1.00  0.00    -0.095 C 
HETATM    6  C4  UNL     1      87.248  70.095 -10.928  1.00  0.00     0.014 C 
ENDBRANCH   3   4
BRANCH   3   7
HETATM    7  C5  UNL     1      82.763  69.328  -9.605  1.00  0.00     0.211 C 
HETATM    8  S1  UNL     1      81.526  68.378 -10.142  1.00  0.00    -0.038 SA
BRANCH   7   9
HETATM    9  N3  UNL     1      82.420  70.300  -8.617  1.00  0.00    -0.291 N 
HETATM   10  C6  UNL     1      81.382  70.110  -7.697  1.00  0.00     0.001 C 
HETATM   11  C7  UNL     1      80.467  69.974  -6.914  1.00  0.00     0.037 C 
ATOM     12  H3  UNL     1      82.954  71.168  -8.579  1.00  0.00     0.178 HD
ENDBRANCH   7   9
ENDBRANCH   3   7
TORSDOF 3
ENDMDL
MODEL 3
REMARK VINA RESULT: -5.196370185      1.827      5.136
REMARK  3 active torsions:
REMARK  status: ('A' for Active; 'I' for Inactive)
REMARK    1  A    between atoms: N2_3  and  C2_4 
REMARK    2  A    between atoms: N2_3  and  C5_7 
REMARK    3  A    between atoms: C5_7  and  N3_9 
ROOT
HETATM    1  C1  UNL     1      79.834  68.748 -10.769  1.00  0.00     0.258 C 
HETATM    2  N1  UNL     1      80.797  68.754 -10.108  1.00  0.00    -0.345 NA
HETATM    3  N2  UNL     1      81.923  68.768  -9.371  1.00  0.00    -0.190 N 
ENDROOT
BRANCH   3   4
HETATM    4  C2  UNL     1      81.851  68.676  -7.918  1.00  0.00     0.259 C 
HETATM    5  C3  UNL     1      80.725  69.527  -7.469  1.00  0.00    -0.095 C 
HETATM    6  C4  UNL     1      79.800  70.216  -7.133  1.00  0.00     0.014 C 
ENDBRANCH   3   4
BRANCH   3   7
HETATM    7  C5  UNL     1      83.173  68.911 -10.022  1.00  0.00     0.211 C 
HETATM    8  S1  UNL     1      84.456  69.582  -9.230  1.00  0.00    -0.038 SA
BRANCH   7   9
HETATM    9  N3  UNL     1      83.416  68.499 -11.368  1.00  0.00    -0.291 N 
HETATM   10  C6  UNL     1      84.281  69.188 -12.225  1.00  0.00     0.001 C 
HETATM   11  C7  UNL     1      85.004  69.790 -12.989  1.00  0.00     0.037 C 
ATOM     12  H3  UNL     1      82.937  67.669 -11.718  1.00  0.00     0.178 HD
ENDBRANCH   7   9
ENDBRANCH   3   7
TORSDOF 3
ENDMDL
MODEL 4
REMARK VINA RESULT: -5.092298219      2.107      2.924
REMARK  3 active torsions:
REMARK  status: ('A' for Active; 'I' for Inactive)
REMARK    1  A    between atoms: N2_3  and  C2_4 
REMARK    2  A    between atoms: N2_3  and  C5_7 
REMARK    3  A    between atoms: C5_7  and  N3_9 
ROOT
HETATM    1  C1  UNL     1      84.384  68.388 -12.451  1.00  0.00     0.258 C 
HETATM    2  N1  UNL     1      84.333  68.703 -11.327  1.00  0.00    -0.345 NA
HETATM    3  N2  UNL     1      84.246  69.055 -10.032  1.00  0.00    -0.190 N 
ENDROOT
BRANCH   3   4
HETATM    4  C2  UNL     1      85.441  69.450  -9.296  1.00  0.00     0.259 C 
HETATM    5  C3  UNL     1      86.478  69.816 -10.286  1.00  0.00    -0.095 C 
HETATM    6  C4  UNL     1      87.298  70.116 -11.111  1.00  0.00     0.014 C 
ENDBRANCH   3   4
BRANCH   3   7
HETATM    7  C5  UNL     1      82.987  69.002  -9.384  1.00  0.00     0.211 C 
HETATM    8  S1  UNL     1      82.632  70.049  -8.159  1.00  0.00    -0.038 SA
BRANCH   7   9
HETATM    9  N3  UNL     1      81.959  68.073  -9.729  1.00  0.00    -0.291 N 
HETATM   10  C6  UNL     1      80.740  68.467 -10.293  1.00  0.00     0.001 C 
HETATM   11  C7  UNL     1      79.668  68.796 -10.752  1.00  0.00     0.037 C 
ATOM     12  H3  UNL     1      82.120  67.080  -9.557  1.00  0.00     0.178 HD
ENDBRANCH   7   9
ENDBRANCH   3   7
TORSDOF 3
ENDMDL
MODEL 5
REMARK VINA RESULT: -4.993928066      1.619      2.513
REMARK  3 active torsions:
REMARK  status: ('A' for Active; 'I' for Inactive)
REMARK    1  A    between atoms: N2_3  and  C2_4 
REMARK    2  A    between atoms: N2_3  and  C5_7 
REMARK    3  A    between atoms: C5_7  and  N3_9 
ROOT
HETATM    1  C1  UNL     1      84.642  69.601 -12.816  1.00  0.00     0.258 C 
HETATM    2  N1  UNL     1      84.611  69.518 -11.652  1.00  0.00    -0.345 NA
HETATM    3  N2  UNL     1      84.545  69.416 -10.312  1.00  0.00    -0.190 N 
ENDROOT
BRANCH   3   4
HETATM    4  C2  UNL     1      85.767  69.332  -9.520  1.00  0.00     0.259 C 
HETATM    5  C3  UNL     1      86.560  68.194 -10.039  1.00  0.00    -0.095 C 
HETATM    6  C4  UNL     1      87.189  67.273 -10.485  1.00  0.00     0.014 C 
ENDBRANCH   3   4
BRANCH   3   7
HETATM    7  C5  UNL     1      83.276  69.354  -9.685  1.00  0.00     0.211 C 
HETATM    8  S1  UNL     1      82.095  68.369 -10.282  1.00  0.00    -0.038 SA
BRANCH   7   9
HETATM    9  N3  UNL     1      82.931  70.111  -8.525  1.00  0.00    -0.291 N 
HETATM   10  C6  UNL     1      81.725  69.933  -7.836  1.00  0.00     0.001 C 
HETATM   11  C7  UNL     1      80.673  69.812  -7.247  1.00  0.00     0.037 C 
ATOM     12  H3  UNL     1      83.590  70.811  -8.184  1.00  0.00     0.178 HD
ENDBRANCH   7   9
ENDBRANCH   3   7
TORSDOF 3
ENDMDL
