MODEL 1
REMARK VINA RESULT: -6.173587088      0.000      0.000
REMARK  5 active torsions:
REMARK  status: ('A' for Active; 'I' for Inactive)
REMARK    1  A    between atoms: C2_2  and  C4_4 
REMARK    2  A    between atoms: C4_4  and  N1_5 
REMARK    3  A    between atoms: C4_4  and  C5_9 
REMARK    4  A    between atoms: C6_10  and  C7_11 
REMARK    5  A    between atoms: C8_12  and  C9_13 
ROOT
HETATM    1  C9  UNL     1      81.336  69.123  -8.896  1.00  0.00    -0.015 C 
HETATM    2  C10 UNL     1      80.667  69.420  -7.927  1.00  0.00    -0.097 C 
HETATM    3  C11 UNL     1      79.863  69.805  -6.753  1.00  0.00     0.113 C 
ENDROOT
BRANCH   1   4
HETATM    4  C8  UNL     1      82.130  68.797 -10.021  1.00  0.00    -0.011 C 
HETATM    5  C7  UNL     1      82.816  68.536 -10.979  1.00  0.00    -0.065 C 
BRANCH   5   6
HETATM    6  C6  UNL     1      83.659  68.242 -12.132  1.00  0.00     0.064 C 
HETATM    7  C5  UNL     1      84.783  68.919 -12.317  1.00  0.00     0.019 C 
BRANCH   7   8
HETATM    8  C4  UNL     1      85.200  69.987 -11.350  1.00  0.00     0.234 C 
BRANCH   8   9
HETATM    9  C2  UNL     1      86.562  69.659 -10.852  1.00  0.00    -0.059 C 
HETATM   10  C1  UNL     1      87.575  69.689 -11.706  1.00  0.00     0.016 C 
HETATM   11  C3  UNL     1      86.757  69.306  -9.410  1.00  0.00     0.045 C 
ENDBRANCH   8   9
BRANCH   8  12
HETATM   12  N1  UNL     1      85.243  71.281 -12.036  1.00  0.00    -0.068 N 
ATOM     13  H13 UNL     1      85.936  71.912 -11.633  1.00  0.00     0.275 HD
ATOM     14  H12 UNL     1      85.640  71.212 -12.972  1.00  0.00     0.275 HD
ATOM     15  H11 UNL     1      84.306  71.685 -12.040  1.00  0.00     0.275 HD
ENDBRANCH   8  12
ENDBRANCH   7   8
ENDBRANCH   5   6
ENDBRANCH   1   4
TORSDOF 5
ENDMDL
MODEL 2
REMARK VINA RESULT: -6.109535689      0.160      1.017
REMARK  5 active torsions:
REMARK  status: ('A' for Active; 'I' for Inactive)
REMARK    1  A    between atoms: C2_2  and  C4_4 
REMARK    2  A    between atoms: C4_4  and  N1_5 
REMARK    3  A    between atoms: C4_4  and  C5_9 
REMARK    4  A    between atoms: C6_10  and  C7_11 
REMARK    5  A    between atoms: C8_12  and  C9_13 
ROOT
HETATM    1  C9  UNL     1      81.377  69.249  -8.756  1.00  0.00    -0.015 C 
HETATM    2  C10 UNL     1      80.729  69.551  -7.774  1.00  0.00    -0.097 C 
HETATM    3  C11 UNL     1      79.957  69.938  -6.580  1.00  0.00     0.113 C 
ENDROOT
BRANCH   1   4
HETATM    4  C8  UNL     1      82.152  68.910  -9.890  1.00  0.00    -0.011 C 
HETATM    5  C7  UNL     1      82.821  68.639 -10.857  1.00  0.00    -0.065 C 
BRANCH   5   6
HETATM    6  C6  UNL     1      83.645  68.331 -12.020  1.00  0.00     0.064 C 
HETATM    7  C5  UNL     1      84.772  68.997 -12.225  1.00  0.00     0.019 C 
BRANCH   7   8
HETATM    8  C4  UNL     1      85.212  70.067 -11.270  1.00  0.00     0.234 C 
BRANCH   8   9
HETATM    9  C2  UNL     1      86.557  69.701 -10.750  1.00  0.00    -0.059 C 
HETATM   10  C1  UNL     1      86.674  69.361  -9.474  1.00  0.00     0.016 C 
HETATM   11  C3  UNL     1      87.738  69.724 -11.670  1.00  0.00     0.045 C 
ENDBRANCH   8   9
BRANCH   8  12
HETATM   12  N1  UNL     1      85.307  71.347 -11.975  1.00  0.00    -0.068 N 
ATOM     13  H13 UNL     1      84.760  72.080 -11.524  1.00  0.00     0.275 HD
ATOM     14  H12 UNL     1      86.227  71.776 -11.880  1.00  0.00     0.275 HD
ATOM     15  H11 UNL     1      85.041  71.209 -12.950  1.00  0.00     0.275 HD
ENDBRANCH   8  12
ENDBRANCH   7   8
ENDBRANCH   5   6
ENDBRANCH   1   4
TORSDOF 5
ENDMDL
MODEL 3
REMARK VINA RESULT: -5.819644298      2.988      5.670
REMARK  5 active torsions:
REMARK  status: ('A' for Active; 'I' for Inactive)
REMARK    1  A    between atoms: C2_2  and  C4_4 
REMARK    2  A    between atoms: C4_4  and  N1_5 
REMARK    3  A    between atoms: C4_4  and  C5_9 
REMARK    4  A    between atoms: C6_10  and  C7_11 
REMARK    5  A    between atoms: C8_12  and  C9_13 
ROOT
HETATM    1  C9  UNL     1      87.828  65.863  -9.984  1.00  0.00    -0.015 C 
HETATM    2  C10 UNL     1      88.259  64.801  -9.581  1.00  0.00    -0.097 C 
HETATM    3  C11 UNL     1      88.764  63.501  -9.106  1.00  0.00     0.113 C 
ENDROOT
BRANCH   1   4
HETATM    4  C8  UNL     1      87.304  67.089 -10.458  1.00  0.00    -0.011 C 
HETATM    5  C7  UNL     1      86.874  68.143 -10.859  1.00  0.00    -0.065 C 
BRANCH   5   6
HETATM    6  C6  UNL     1      86.379  69.425 -11.345  1.00  0.00     0.064 C 
HETATM    7  C5  UNL     1      85.081  69.687 -11.310  1.00  0.00     0.019 C 
BRANCH   7   8
HETATM    8  C4  UNL     1      84.111  68.675 -10.775  1.00  0.00     0.234 C 
BRANCH   8   9
HETATM    9  C2  UNL     1      83.574  69.183  -9.485  1.00  0.00    -0.059 C 
HETATM   10  C1  UNL     1      84.384  69.853  -8.678  1.00  0.00     0.016 C 
HETATM   11  C3  UNL     1      82.141  68.930  -9.129  1.00  0.00     0.045 C 
ENDBRANCH   8   9
BRANCH   8  12
HETATM   12  N1  UNL     1      83.004  68.508 -11.719  1.00  0.00    -0.068 N 
ATOM     13  H13 UNL     1      82.484  67.645 -11.560  1.00  0.00     0.275 HD
ATOM     14  H12 UNL     1      82.243  69.166 -11.547  1.00  0.00     0.275 HD
ATOM     15  H11 UNL     1      83.366  68.573 -12.670  1.00  0.00     0.275 HD
ENDBRANCH   8  12
ENDBRANCH   7   8
ENDBRANCH   5   6
ENDBRANCH   1   4
TORSDOF 5
ENDMDL
MODEL 4
REMARK VINA RESULT: -5.766355701      2.162      3.032
REMARK  5 active torsions:
REMARK  status: ('A' for Active; 'I' for Inactive)
REMARK    1  A    between atoms: C2_2  and  C4_4 
REMARK    2  A    between atoms: C4_4  and  N1_5 
REMARK    3  A    between atoms: C4_4  and  C5_9 
REMARK    4  A    between atoms: C6_10  and  C7_11 
REMARK    5  A    between atoms: C8_12  and  C9_13 
ROOT
HETATM    1  C9  UNL     1      81.086  68.043 -10.217  1.00  0.00    -0.015 C 
HETATM    2  C10 UNL     1      80.100  67.495 -10.666  1.00  0.00    -0.097 C 
HETATM    3  C11 UNL     1      78.916  66.807 -11.211  1.00  0.00     0.113 C 
ENDROOT
BRANCH   1   4
HETATM    4  C8  UNL     1      82.249  68.664  -9.705  1.00  0.00    -0.011 C 
HETATM    5  C7  UNL     1      83.251  69.176  -9.268  1.00  0.00    -0.065 C 
BRANCH   5   6
HETATM    6  C6  UNL     1      84.475  69.774  -8.749  1.00  0.00     0.064 C 
HETATM    7  C5  UNL     1      85.640  69.488  -9.311  1.00  0.00     0.019 C 
BRANCH   7   8
HETATM    8  C4  UNL     1      85.714  68.552 -10.481  1.00  0.00     0.234 C 
BRANCH   8   9
HETATM    9  C2  UNL     1      86.040  69.349 -11.694  1.00  0.00    -0.059 C 
HETATM   10  C1  UNL     1      87.259  69.854 -11.815  1.00  0.00     0.016 C 
HETATM   11  C3  UNL     1      84.992  69.560 -12.743  1.00  0.00     0.045 C 
ENDBRANCH   8   9
BRANCH   8  12
HETATM   12  N1  UNL     1      86.777  67.569 -10.258  1.00  0.00    -0.068 N 
ATOM     13  H13 UNL     1      87.308  67.371 -11.107  1.00  0.00     0.275 HD
ATOM     14  H12 UNL     1      87.542  67.944  -9.697  1.00  0.00     0.275 HD
ATOM     15  H11 UNL     1      86.370  66.729  -9.849  1.00  0.00     0.275 HD
ENDBRANCH   8  12
ENDBRANCH   7   8
ENDBRANCH   5   6
ENDBRANCH   1   4
TORSDOF 5
ENDMDL
MODEL 5
REMARK VINA RESULT: -5.662180608      2.981      5.694
REMARK  5 active torsions:
REMARK  status: ('A' for Active; 'I' for Inactive)
REMARK    1  A    between atoms: C2_2  and  C4_4 
REMARK    2  A    between atoms: C4_4  and  N1_5 
REMARK    3  A    between atoms: C4_4  and  C5_9 
REMARK    4  A    between atoms: C6_10  and  C7_11 
REMARK    5  A    between atoms: C8_12  and  C9_13 
ROOT
HETATM    1  C9  UNL     1      87.845  65.868  -9.972  1.00  0.00    -0.015 C 
HETATM    2  C10 UNL     1      88.268  64.804  -9.567  1.00  0.00    -0.097 C 
HETATM    3  C11 UNL     1      88.759  63.507  -9.069  1.00  0.00     0.113 C 
ENDROOT
BRANCH   1   4
HETATM    4  C8  UNL     1      87.331  67.105 -10.427  1.00  0.00    -0.011 C 
HETATM    5  C7  UNL     1      86.903  68.170 -10.801  1.00  0.00    -0.065 C 
BRANCH   5   6
HETATM    6  C6  UNL     1      86.403  69.468 -11.239  1.00  0.00     0.064 C 
HETATM    7  C5  UNL     1      85.099  69.702 -11.255  1.00  0.00     0.019 C 
BRANCH   7   8
HETATM    8  C4  UNL     1      84.128  68.643 -10.825  1.00  0.00     0.234 C 
BRANCH   8   9
HETATM    9  C2  UNL     1      83.426  69.123  -9.605  1.00  0.00    -0.059 C 
HETATM   10  C1  UNL     1      82.131  68.872  -9.475  1.00  0.00     0.016 C 
HETATM   11  C3  UNL     1      84.192  69.872  -8.558  1.00  0.00     0.045 C 
ENDBRANCH   8   9
BRANCH   8  12
HETATM   12  N1  UNL     1      83.141  68.421 -11.885  1.00  0.00    -0.068 N 
ATOM     13  H13 UNL     1      82.654  67.531 -11.782  1.00  0.00     0.275 HD
ATOM     14  H12 UNL     1      82.333  69.037 -11.799  1.00  0.00     0.275 HD
ATOM     15  H11 UNL     1      83.602  68.510 -12.790  1.00  0.00     0.275 HD
ENDBRANCH   8  12
ENDBRANCH   7   8
ENDBRANCH   5   6
ENDBRANCH   1   4
TORSDOF 5
ENDMDL
