MODEL 1
REMARK VINA RESULT: -4.489543939      0.000      0.000
REMARK  2 active torsions:
REMARK  status: ('A' for Active; 'I' for Inactive)
REMARK    1  A    between atoms: C2_2  and  N1_3 
REMARK       I    between atoms: N1_3  and  C4_5 
REMARK    2  A    between atoms: N3_7  and  C5_9 
ROOT
HETATM    1  N1  UNL     1      81.433  69.374  -9.104  1.00  0.00    -0.360 N 
HETATM    2  C3  UNL     1      82.271  70.541  -8.819  1.00  0.00     0.152 C 
HETATM    3  C4  UNL     1      81.288  68.963 -10.437  1.00  0.00     0.191 C 
HETATM    4  N2  UNL     1      79.947  68.767 -10.934  1.00  0.00    -0.063 NA
HETATM    5  N3  UNL     1      82.219  68.739 -11.268  1.00  0.00    -0.325 N 
ATOM      6  H3  UNL     1      81.918  68.445 -12.197  1.00  0.00     0.169 HD
ENDROOT
BRANCH   1   7
HETATM    7  C2  UNL     1      80.825  68.751  -7.953  1.00  0.00     0.120 C 
HETATM    8  C1  UNL     1      80.302  69.774  -6.960  1.00  0.00     0.026 C 
ENDBRANCH   1   7
BRANCH   5   9
HETATM    9  C5  UNL     1      83.601  68.838 -11.088  1.00  0.00     0.075 C 
HETATM   10  C6  UNL     1      84.348  68.482  -9.861  1.00  0.00     0.082 C 
HETATM   11  S1  UNL     1      84.485  69.401 -12.340  1.00  0.00    -0.066 SA
ENDBRANCH   5   9
TORSDOF 2
ENDMDL
MODEL 2
REMARK VINA RESULT: -4.351649954      1.945      2.875
REMARK  2 active torsions:
REMARK  status: ('A' for Active; 'I' for Inactive)
REMARK    1  A    between atoms: C2_2  and  N1_3 
REMARK       I    between atoms: N1_3  and  C4_5 
REMARK    2  A    between atoms: N3_7  and  C5_9 
ROOT
HETATM    1  N1  UNL     1      82.165  69.041  -9.644  1.00  0.00    -0.360 N 
HETATM    2  C3  UNL     1      82.439  67.655 -10.028  1.00  0.00     0.152 C 
HETATM    3  C4  UNL     1      83.193  69.788  -9.051  1.00  0.00     0.191 C 
HETATM    4  N2  UNL     1      82.898  70.464  -7.811  1.00  0.00    -0.063 NA
HETATM    5  N3  UNL     1      84.373  69.939  -9.492  1.00  0.00    -0.325 N 
ATOM      6  H3  UNL     1      84.984  70.522  -8.919  1.00  0.00     0.169 HD
ENDROOT
BRANCH   1   7
HETATM    7  C2  UNL     1      80.828  69.510  -9.923  1.00  0.00     0.120 C 
HETATM    8  C1  UNL     1      79.947  68.412 -10.494  1.00  0.00     0.026 C 
ENDBRANCH   1   7
BRANCH   5   9
HETATM    9  C5  UNL     1      84.952  69.419 -10.652  1.00  0.00     0.075 C 
HETATM   10  C6  UNL     1      84.547  69.726 -12.042  1.00  0.00     0.082 C 
HETATM   11  S1  UNL     1      86.191  68.370 -10.470  1.00  0.00    -0.066 SA
ENDBRANCH   5   9
TORSDOF 2
ENDMDL
MODEL 3
REMARK VINA RESULT: -4.307211841      1.995      2.460
REMARK  2 active torsions:
REMARK  status: ('A' for Active; 'I' for Inactive)
REMARK    1  A    between atoms: C2_2  and  N1_3 
REMARK       I    between atoms: N1_3  and  C4_5 
REMARK    2  A    between atoms: N3_7  and  C5_9 
ROOT
HETATM    1  N1  UNL     1      83.558  68.918  -9.604  1.00  0.00    -0.360 N 
HETATM    2  C3  UNL     1      84.328  69.935  -8.884  1.00  0.00     0.152 C 
HETATM    3  C4  UNL     1      83.738  68.796 -10.989  1.00  0.00     0.191 C 
HETATM    4  N2  UNL     1      82.559  68.808 -11.821  1.00  0.00    -0.063 NA
HETATM    5  N3  UNL     1      84.842  68.672 -11.603  1.00  0.00    -0.325 N 
ATOM      6  H3  UNL     1      84.773  68.596 -12.618  1.00  0.00     0.169 HD
ENDROOT
BRANCH   1   7
HETATM    7  C2  UNL     1      82.667  68.124  -8.791  1.00  0.00     0.120 C 
HETATM    8  C1  UNL     1      81.523  68.949  -8.227  1.00  0.00     0.026 C 
ENDBRANCH   1   7
BRANCH   5   9
HETATM    9  C5  UNL     1      86.137  68.626 -11.082  1.00  0.00     0.075 C 
HETATM   10  C6  UNL     1      86.760  67.473 -10.395  1.00  0.00     0.082 C 
HETATM   11  S1  UNL     1      87.059  69.965 -11.238  1.00  0.00    -0.066 SA
ENDBRANCH   5   9
TORSDOF 2
ENDMDL
MODEL 4
REMARK VINA RESULT: -4.207535183      2.483      4.353
REMARK  2 active torsions:
REMARK  status: ('A' for Active; 'I' for Inactive)
REMARK    1  A    between atoms: C2_2  and  N1_3 
REMARK       I    between atoms: N1_3  and  C4_5 
REMARK    2  A    between atoms: N3_7  and  C5_9 
ROOT
HETATM    1  N1  UNL     1      84.880  69.577 -10.556  1.00  0.00    -0.360 N 
HETATM    2  C3  UNL     1      84.976  69.370  -9.109  1.00  0.00     0.152 C 
HETATM    3  C4  UNL     1      84.014  68.758 -11.294  1.00  0.00     0.191 C 
HETATM    4  N2  UNL     1      84.551  68.094 -12.457  1.00  0.00    -0.063 NA
HETATM    5  N3  UNL     1      82.790  68.532 -11.049  1.00  0.00    -0.325 N 
ATOM      6  H3  UNL     1      82.320  67.904 -11.703  1.00  0.00     0.169 HD
ENDROOT
BRANCH   1   7
HETATM    7  C2  UNL     1      85.709  70.632 -11.088  1.00  0.00     0.120 C 
HETATM    8  C1  UNL     1      87.161  70.205 -11.218  1.00  0.00     0.026 C 
ENDBRANCH   1   7
BRANCH   5   9
HETATM    9  C5  UNL     1      81.996  69.022 -10.010  1.00  0.00     0.075 C 
HETATM   10  C6  UNL     1      82.484  69.617  -8.746  1.00  0.00     0.082 C 
HETATM   11  S1  UNL     1      80.375  68.934 -10.194  1.00  0.00    -0.066 SA
ENDBRANCH   5   9
TORSDOF 2
ENDMDL
MODEL 5
REMARK VINA RESULT: -4.134130224      2.003      2.866
REMARK  2 active torsions:
REMARK  status: ('A' for Active; 'I' for Inactive)
REMARK    1  A    between atoms: C2_2  and  N1_3 
REMARK       I    between atoms: N1_3  and  C4_5 
REMARK    2  A    between atoms: N3_7  and  C5_9 
ROOT
HETATM    1  N1  UNL     1      82.430  69.079  -9.773  1.00  0.00    -0.360 N 
HETATM    2  C3  UNL     1      82.823  67.757 -10.268  1.00  0.00     0.152 C 
HETATM    3  C4  UNL     1      83.258  69.719  -8.840  1.00  0.00     0.191 C 
HETATM    4  N2  UNL     1      82.644  70.215  -7.632  1.00  0.00    -0.063 NA
HETATM    5  N3  UNL     1      84.507  69.914  -8.941  1.00  0.00    -0.325 N 
ATOM      6  H3  UNL     1      84.940  70.401  -8.156  1.00  0.00     0.169 HD
ENDROOT
BRANCH   1   7
HETATM    7  C2  UNL     1      81.197  69.602 -10.312  1.00  0.00     0.120 C 
HETATM    8  C1  UNL     1      80.090  68.562 -10.314  1.00  0.00     0.026 C 
ENDBRANCH   1   7
BRANCH   5   9
HETATM    9  C5  UNL     1      85.372  69.556  -9.978  1.00  0.00     0.075 C 
HETATM   10  C6  UNL     1      86.192  68.326 -10.044  1.00  0.00     0.082 C 
HETATM   11  S1  UNL     1      85.499  70.584 -11.241  1.00  0.00    -0.066 SA
ENDBRANCH   5   9
TORSDOF 2
ENDMDL
