MODEL 1
REMARK VINA RESULT: -5.455083550      0.000      0.000
REMARK  8 active torsions:
REMARK  status: ('A' for Active; 'I' for Inactive)
REMARK    1  A    between atoms: N1_1  and  C1_4 
REMARK    2  A    between atoms: C3_8  and  C4_9 
REMARK    3  A    between atoms: C4_9  and  N3_10 
REMARK    4  A    between atoms: C4_9  and  C5_14 
REMARK    5  A    between atoms: C5_14  and  C6_15 
REMARK    6  A    between atoms: C6_15  and  N4_16 
REMARK    7  A    between atoms: N4_16  and  C7_18 
REMARK    8  A    between atoms: N6_23  and  O1_24 
ROOT
HETATM    1  C4  UNL     1       6.884  13.814  37.064  1.00  0.00     0.235 C 
ENDROOT
BRANCH   1   2
HETATM    2  C3  UNL     1       8.151  13.625  36.318  1.00  0.00     0.055 A 
HETATM    3  N2  UNL     1       9.257  14.368  36.617  1.00  0.00    -0.363 N 
HETATM    4  C2  UNL     1      10.403  14.203  35.946  1.00  0.00     0.136 A 
ATOM      5  H2  UNL     1       9.210  15.060  37.365  1.00  0.00     0.165 HD
HETATM    6  C1  UNL     1      10.514  13.281  34.928  1.00  0.00     0.114 A 
HETATM    7  N7  UNL     1       9.433  12.542  34.624  1.00  0.00    -0.350 N 
HETATM    8  C10 UNL     1       8.273  12.711  35.305  1.00  0.00     0.117 A 
ATOM      9  H7  UNL     1       9.486  11.851  33.876  1.00  0.00     0.166 HD
BRANCH   6  10
HETATM   10  N1  UNL     1      11.617  13.121  34.281  1.00  0.00    -0.384 N 
ATOM     11  H12 UNL     1      12.501  13.438  34.680  1.00  0.00     0.157 HD
ATOM     12  H11 UNL     1      11.637  12.681  33.361  1.00  0.00     0.157 HD
ENDBRANCH   6  10
ENDBRANCH   1   2
BRANCH   1  13
HETATM   13  N3  UNL     1       6.573  12.667  37.912  1.00  0.00    -0.070 N 
ATOM     14  H33 UNL     1       6.747  11.788  37.426  1.00  0.00     0.275 HD
ATOM     15  H32 UNL     1       7.253  12.570  38.667  1.00  0.00     0.275 HD
ATOM     16  H31 UNL     1       5.620  12.707  38.275  1.00  0.00     0.275 HD
ENDBRANCH   1  13
BRANCH   1  17
HETATM   17  C5  UNL     1       6.878  15.062  37.886  1.00  0.00     0.059 C 
BRANCH  17  18
HETATM   18  C6  UNL     1       5.855  16.065  37.382  1.00  0.00     0.140 C 
BRANCH  18  19
HETATM   19  N4  UNL     1       4.868  15.355  36.608  1.00  0.00    -0.225 N 
ATOM     20  H4  UNL     1       5.129  14.866  35.752  1.00  0.00     0.177 HD
BRANCH  19  21
HETATM   21  C7  UNL     1       3.500  15.352  37.072  1.00  0.00     0.695 C 
HETATM   22  N5  UNL     1       2.559  16.153  36.708  1.00  0.00    -0.223 N 
HETATM   23  C8  UNL     1       1.308  15.861  37.378  1.00  0.00     0.161 C 
ATOM     24  H5  UNL     1       2.680  16.904  36.028  1.00  0.00     0.177 HD
HETATM   25  C9  UNL     1       1.677  14.893  38.490  1.00  0.00     0.195 C 
HETATM   26  N6  UNL     1       2.975  14.438  38.024  1.00  0.00    -0.089 N 
BRANCH  26  27
HETATM   27  O1  UNL     1       3.641  13.305  38.411  1.00  0.00    -0.274 OA
ATOM     28  H1  UNL     1       4.295  13.303  39.100  1.00  0.00     0.245 HD
ENDBRANCH  26  27
ENDBRANCH  19  21
ENDBRANCH  18  19
ENDBRANCH  17  18
ENDBRANCH   1  17
TORSDOF 8
ENDMDL
MODEL 2
REMARK VINA RESULT: -5.341821162      0.697      1.135
REMARK  8 active torsions:
REMARK  status: ('A' for Active; 'I' for Inactive)
REMARK    1  A    between atoms: N1_1  and  C1_4 
REMARK    2  A    between atoms: C3_8  and  C4_9 
REMARK    3  A    between atoms: C4_9  and  N3_10 
REMARK    4  A    between atoms: C4_9  and  C5_14 
REMARK    5  A    between atoms: C5_14  and  C6_15 
REMARK    6  A    between atoms: C6_15  and  N4_16 
REMARK    7  A    between atoms: N4_16  and  C7_18 
REMARK    8  A    between atoms: N6_23  and  O1_24 
ROOT
HETATM    1  C4  UNL     1       6.842  13.972  37.226  1.00  0.00     0.235 C 
ENDROOT
BRANCH   1   2
HETATM    2  C3  UNL     1       8.105  13.705  36.499  1.00  0.00     0.055 A 
HETATM    3  N2  UNL     1       8.165  12.747  35.527  1.00  0.00    -0.363 N 
HETATM    4  C2  UNL     1       9.304  12.500  34.869  1.00  0.00     0.136 A 
ATOM      5  H2  UNL     1       7.327  12.211  35.299  1.00  0.00     0.165 HD
HETATM    6  C1  UNL     1      10.459  13.198  35.144  1.00  0.00     0.114 A 
HETATM    7  N7  UNL     1      10.415  14.144  36.097  1.00  0.00    -0.350 N 
HETATM    8  C10 UNL     1       9.259  14.393  36.764  1.00  0.00     0.117 A 
ATOM      9  H7  UNL     1      11.254  14.678  36.321  1.00  0.00     0.166 HD
BRANCH   6  10
HETATM   10  N1  UNL     1      11.557  12.961  34.511  1.00  0.00    -0.384 N 
ATOM     11  H12 UNL     1      11.853  12.001  34.332  1.00  0.00     0.157 HD
ATOM     12  H11 UNL     1      12.153  13.716  34.176  1.00  0.00     0.157 HD
ENDBRANCH   6  10
ENDBRANCH   1   2
BRANCH   1  13
HETATM   13  N3  UNL     1       6.491  12.882  38.132  1.00  0.00    -0.070 N 
ATOM     14  H33 UNL     1       6.846  11.989  37.792  1.00  0.00     0.275 HD
ATOM     15  H32 UNL     1       7.016  12.942  39.004  1.00  0.00     0.275 HD
ATOM     16  H31 UNL     1       5.486  12.839  38.306  1.00  0.00     0.275 HD
ENDBRANCH   1  13
BRANCH   1  17
HETATM   17  C5  UNL     1       6.871  15.262  37.981  1.00  0.00     0.059 C 
BRANCH  17  18
HETATM   18  C6  UNL     1       5.705  16.160  37.609  1.00  0.00     0.140 C 
BRANCH  18  19
HETATM   19  N4  UNL     1       4.877  15.459  36.661  1.00  0.00    -0.225 N 
ATOM     20  H4  UNL     1       5.285  15.020  35.836  1.00  0.00     0.177 HD
BRANCH  19  21
HETATM   21  C7  UNL     1       3.455  15.391  36.905  1.00  0.00     0.695 C 
HETATM   22  N5  UNL     1       2.540  16.111  36.353  1.00  0.00    -0.223 N 
HETATM   23  C8  UNL     1       1.218  15.773  36.836  1.00  0.00     0.161 C 
ATOM     24  H5  UNL     1       2.726  16.834  35.658  1.00  0.00     0.177 HD
HETATM   25  C9  UNL     1       1.458  14.885  38.046  1.00  0.00     0.195 C 
HETATM   26  N6  UNL     1       2.837  14.493  37.815  1.00  0.00    -0.089 N 
BRANCH  26  27
HETATM   27  O1  UNL     1       3.495  13.425  38.367  1.00  0.00    -0.274 OA
ATOM     28  H1  UNL     1       3.046  12.724  38.824  1.00  0.00     0.245 HD
ENDBRANCH  26  27
ENDBRANCH  19  21
ENDBRANCH  18  19
ENDBRANCH  17  18
ENDBRANCH   1  17
TORSDOF 8
ENDMDL
MODEL 3
REMARK VINA RESULT: -5.327787556      1.433      2.016
REMARK  8 active torsions:
REMARK  status: ('A' for Active; 'I' for Inactive)
REMARK    1  A    between atoms: N1_1  and  C1_4 
REMARK    2  A    between atoms: C3_8  and  C4_9 
REMARK    3  A    between atoms: C4_9  and  N3_10 
REMARK    4  A    between atoms: C4_9  and  C5_14 
REMARK    5  A    between atoms: C5_14  and  C6_15 
REMARK    6  A    between atoms: C6_15  and  N4_16 
REMARK    7  A    between atoms: N4_16  and  C7_18 
REMARK    8  A    between atoms: N6_23  and  O1_24 
ROOT
HETATM    1  C4  UNL     1       7.065  15.298  35.875  1.00  0.00     0.235 C 
ENDROOT
BRANCH   1   2
HETATM    2  C3  UNL     1       8.303  14.548  35.556  1.00  0.00     0.055 A 
HETATM    3  N2  UNL     1       9.503  14.916  36.094  1.00  0.00    -0.363 N 
HETATM    4  C2  UNL     1      10.624  14.243  35.808  1.00  0.00     0.136 A 
ATOM      5  H2  UNL     1       9.546  15.716  36.725  1.00  0.00     0.165 HD
HETATM    6  C1  UNL     1      10.614  13.156  34.960  1.00  0.00     0.114 A 
HETATM    7  N7  UNL     1       9.440  12.783  34.424  1.00  0.00    -0.350 N 
HETATM    8  C10 UNL     1       8.304  13.466  34.716  1.00  0.00     0.117 A 
ATOM      9  H7  UNL     1       9.402  11.982  33.795  1.00  0.00     0.166 HD
BRANCH   6  10
HETATM   10  N1  UNL     1      11.693  12.508  34.683  1.00  0.00    -0.384 N 
ATOM     11  H12 UNL     1      12.581  12.776  35.109  1.00  0.00     0.157 HD
ATOM     12  H11 UNL     1      11.691  11.719  34.038  1.00  0.00     0.157 HD
ENDBRANCH   6  10
ENDBRANCH   1   2
BRANCH   1  13
HETATM   13  N3  UNL     1       5.912  14.792  35.135  1.00  0.00    -0.070 N 
ATOM     14  H33 UNL     1       5.174  15.493  35.076  1.00  0.00     0.275 HD
ATOM     15  H32 UNL     1       6.123  14.698  34.142  1.00  0.00     0.275 HD
ATOM     16  H31 UNL     1       5.562  13.917  35.525  1.00  0.00     0.275 HD
ENDBRANCH   1  13
BRANCH   1  17
HETATM   17  C5  UNL     1       6.757  15.308  37.338  1.00  0.00     0.059 C 
BRANCH  17  18
HETATM   18  C6  UNL     1       6.828  13.915  37.939  1.00  0.00     0.140 C 
BRANCH  18  19
HETATM   19  N4  UNL     1       5.489  13.390  38.029  1.00  0.00    -0.225 N 
ATOM     20  H4  UNL     1       5.260  12.477  37.637  1.00  0.00     0.177 HD
BRANCH  19  21
HETATM   21  C7  UNL     1       4.479  14.185  38.687  1.00  0.00     0.695 C 
HETATM   22  N5  UNL     1       4.441  14.510  39.933  1.00  0.00    -0.223 N 
HETATM   23  C8  UNL     1       3.281  15.317  40.249  1.00  0.00     0.161 C 
ATOM     24  H5  UNL     1       5.146  14.232  40.616  1.00  0.00     0.177 HD
HETATM   25  C9  UNL     1       2.388  15.215  39.022  1.00  0.00     0.195 C 
HETATM   26  N6  UNL     1       3.346  14.744  38.038  1.00  0.00    -0.089 N 
BRANCH  26  27
HETATM   27  O1  UNL     1       3.226  14.803  36.675  1.00  0.00    -0.274 OA
ATOM     28  H1  UNL     1       2.740  14.159  36.172  1.00  0.00     0.245 HD
ENDBRANCH  26  27
ENDBRANCH  19  21
ENDBRANCH  18  19
ENDBRANCH  17  18
ENDBRANCH   1  17
TORSDOF 8
ENDMDL
MODEL 4
REMARK VINA RESULT: -5.228144626      1.328      1.744
REMARK  8 active torsions:
REMARK  status: ('A' for Active; 'I' for Inactive)
REMARK    1  A    between atoms: N1_1  and  C1_4 
REMARK    2  A    between atoms: C3_8  and  C4_9 
REMARK    3  A    between atoms: C4_9  and  N3_10 
REMARK    4  A    between atoms: C4_9  and  C5_14 
REMARK    5  A    between atoms: C5_14  and  C6_15 
REMARK    6  A    between atoms: C6_15  and  N4_16 
REMARK    7  A    between atoms: N4_16  and  C7_18 
REMARK    8  A    between atoms: N6_23  and  O1_24 
ROOT
HETATM    1  C4  UNL     1       7.054  14.567  36.968  1.00  0.00     0.235 C 
ENDROOT
BRANCH   1   2
HETATM    2  C3  UNL     1       8.281  14.054  36.314  1.00  0.00     0.055 A 
HETATM    3  N2  UNL     1       9.496  14.630  36.557  1.00  0.00    -0.363 N 
HETATM    4  C2  UNL     1      10.607  14.172  35.967  1.00  0.00     0.136 A 
ATOM      5  H2  UNL     1       9.557  15.421  37.197  1.00  0.00     0.165 HD
HETATM    6  C1  UNL     1      10.573  13.107  35.095  1.00  0.00     0.114 A 
HETATM    7  N7  UNL     1       9.384  12.530  34.849  1.00  0.00    -0.350 N 
HETATM    8  C10 UNL     1       8.258  12.995  35.447  1.00  0.00     0.117 A 
ATOM      9  H7  UNL     1       9.327  11.738  34.208  1.00  0.00     0.166 HD
BRANCH   6  10
HETATM   10  N1  UNL     1      11.642  12.665  34.527  1.00  0.00    -0.384 N 
ATOM     11  H12 UNL     1      11.589  12.188  33.627  1.00  0.00     0.157 HD
ATOM     12  H11 UNL     1      12.560  12.778  34.957  1.00  0.00     0.157 HD
ENDBRANCH   6  10
ENDBRANCH   1   2
BRANCH   1  13
HETATM   13  N3  UNL     1       6.011  14.889  35.998  1.00  0.00    -0.070 N 
ATOM     14  H33 UNL     1       6.407  15.072  35.076  1.00  0.00     0.275 HD
ATOM     15  H32 UNL     1       5.450  14.069  35.772  1.00  0.00     0.275 HD
ATOM     16  H31 UNL     1       5.426  15.665  36.310  1.00  0.00     0.275 HD
ENDBRANCH   1  13
BRANCH   1  17
HETATM   17  C5  UNL     1       6.510  13.626  37.995  1.00  0.00     0.059 C 
BRANCH  17  18
HETATM   18  C6  UNL     1       5.342  14.232  38.752  1.00  0.00     0.140 C 
BRANCH  18  19
HETATM   19  N4  UNL     1       4.156  13.474  38.440  1.00  0.00    -0.225 N 
ATOM     20  H4  UNL     1       4.210  12.471  38.262  1.00  0.00     0.177 HD
BRANCH  19  21
HETATM   21  C7  UNL     1       2.890  14.165  38.387  1.00  0.00     0.695 C 
HETATM   22  N5  UNL     1       1.998  14.220  39.315  1.00  0.00    -0.223 N 
HETATM   23  C8  UNL     1       0.847  15.004  38.918  1.00  0.00     0.161 C 
ATOM     24  H5  UNL     1       2.093  13.765  40.223  1.00  0.00     0.177 HD
HETATM   25  C9  UNL     1       1.015  15.214  37.422  1.00  0.00     0.195 C 
HETATM   26  N6  UNL     1       2.426  14.910  37.270  1.00  0.00    -0.089 N 
BRANCH  26  27
HETATM   27  O1  UNL     1       3.239  15.264  36.225  1.00  0.00    -0.274 OA
ATOM     28  H1  UNL     1       3.941  14.708  35.907  1.00  0.00     0.245 HD
ENDBRANCH  26  27
ENDBRANCH  19  21
ENDBRANCH  18  19
ENDBRANCH  17  18
ENDBRANCH   1  17
TORSDOF 8
ENDMDL
MODEL 5
REMARK VINA RESULT: -5.192042052      2.071      3.355
REMARK  8 active torsions:
REMARK  status: ('A' for Active; 'I' for Inactive)
REMARK    1  A    between atoms: N1_1  and  C1_4 
REMARK    2  A    between atoms: C3_8  and  C4_9 
REMARK    3  A    between atoms: C4_9  and  N3_10 
REMARK    4  A    between atoms: C4_9  and  C5_14 
REMARK    5  A    between atoms: C5_14  and  C6_15 
REMARK    6  A    between atoms: C6_15  and  N4_16 
REMARK    7  A    between atoms: N4_16  and  C7_18 
REMARK    8  A    between atoms: N6_23  and  O1_24 
ROOT
HETATM    1  C4  UNL     1       7.007  15.309  35.202  1.00  0.00     0.235 C 
ENDROOT
BRANCH   1   2
HETATM    2  C3  UNL     1       8.272  14.544  35.100  1.00  0.00     0.055 A 
HETATM    3  N2  UNL     1       9.341  14.851  35.893  1.00  0.00    -0.363 N 
HETATM    4  C2  UNL     1      10.488  14.165  35.804  1.00  0.00     0.136 A 
ATOM      5  H2  UNL     1       9.265  15.615  36.565  1.00  0.00     0.165 HD
HETATM    6  C1  UNL     1      10.636  13.126  34.911  1.00  0.00     0.114 A 
HETATM    7  N7  UNL     1       9.592  12.813  34.126  1.00  0.00    -0.350 N 
HETATM    8  C10 UNL     1       8.431  13.509  34.217  1.00  0.00     0.117 A 
ATOM      9  H7  UNL     1       9.672  12.048  33.457  1.00  0.00     0.166 HD
BRANCH   6  10
HETATM   10  N1  UNL     1      11.739  12.466  34.824  1.00  0.00    -0.384 N 
ATOM     11  H12 UNL     1      11.800  11.638  34.230  1.00  0.00     0.157 HD
ATOM     12  H11 UNL     1      12.572  12.746  35.341  1.00  0.00     0.157 HD
ENDBRANCH   6  10
ENDBRANCH   1   2
BRANCH   1  13
HETATM   13  N3  UNL     1       5.895  14.615  34.557  1.00  0.00    -0.070 N 
ATOM     14  H33 UNL     1       5.027  15.141  34.651  1.00  0.00     0.275 HD
ATOM     15  H32 UNL     1       5.986  14.635  33.542  1.00  0.00     0.275 HD
ATOM     16  H31 UNL     1       5.789  13.661  34.902  1.00  0.00     0.275 HD
ENDBRANCH   1  13
BRANCH   1  17
HETATM   17  C5  UNL     1       6.642  15.636  36.615  1.00  0.00     0.059 C 
BRANCH  17  18
HETATM   18  C6  UNL     1       5.159  15.434  36.875  1.00  0.00     0.140 C 
BRANCH  18  19
HETATM   19  N4  UNL     1       5.010  14.415  37.883  1.00  0.00    -0.225 N 
ATOM     20  H4  UNL     1       4.130  13.910  37.987  1.00  0.00     0.177 HD
BRANCH  19  21
HETATM   21  C7  UNL     1       6.134  14.125  38.742  1.00  0.00     0.695 C 
HETATM   22  N5  UNL     1       6.403  14.675  39.876  1.00  0.00    -0.223 N 
HETATM   23  C8  UNL     1       7.612  14.140  40.466  1.00  0.00     0.161 C 
ATOM     24  H5  UNL     1       5.831  15.401  40.307  1.00  0.00     0.177 HD
HETATM   25  C9  UNL     1       8.265  13.332  39.355  1.00  0.00     0.195 C 
HETATM   26  N6  UNL     1       7.137  13.161  38.457  1.00  0.00    -0.089 N 
BRANCH  26  27
HETATM   27  O1  UNL     1       7.008  12.227  37.463  1.00  0.00    -0.274 OA
ATOM     28  H1  UNL     1       7.690  12.058  36.823  1.00  0.00     0.245 HD
ENDBRANCH  26  27
ENDBRANCH  19  21
ENDBRANCH  18  19
ENDBRANCH  17  18
ENDBRANCH   1  17
TORSDOF 8
ENDMDL
