MODEL 1
REMARK VINA RESULT: -5.372720692      0.000      0.000
REMARK  5 active torsions:
REMARK  status: ('A' for Active; 'I' for Inactive)
REMARK    1  A    between atoms: N1_1  and  C1_4 
REMARK    2  A    between atoms: N3_7  and  C2_8 
REMARK    3  A    between atoms: C2_8  and  C3_9 
REMARK    4  A    between atoms: C3_9  and  N4_10 
REMARK       I    between atoms: N4_10  and  C4_12 
REMARK    5  A    between atoms: N7_20  and  C8_21 
ROOT
HETATM    1  C1  UNL     1      10.811  13.321  35.160  1.00  0.00     0.145 A 
HETATM    2  N2  UNL     1      10.959  14.330  35.996  1.00  0.00    -0.280 N 
ATOM      3  H2  UNL     1      11.854  14.607  36.400  1.00  0.00     0.189 HD
HETATM    4  N3  UNL     1       9.795  14.951  36.254  1.00  0.00    -0.271 N 
HETATM    5  C5  UNL     1       8.853  14.287  35.531  1.00  0.00     0.163 A 
HETATM    6  C6  UNL     1       9.469  13.264  34.840  1.00  0.00     0.125 A 
HETATM    7  N6  UNL     1       8.579  12.591  34.120  1.00  0.00    -0.346 N 
ATOM      8  H6  UNL     1       8.756  11.789  33.515  1.00  0.00     0.167 HD
HETATM    9  C7  UNL     1       7.411  13.178  34.349  1.00  0.00     0.193 A 
HETATM   10  N7  UNL     1       7.546  14.232  35.219  1.00  0.00    -0.268 N 
ENDROOT
BRANCH   4  11
HETATM   11  C2  UNL     1       9.606  16.081  37.119  1.00  0.00     0.170 C 
BRANCH  11  12
HETATM   12  C3  UNL     1       9.563  15.709  38.595  1.00  0.00     0.145 C 
BRANCH  12  13
HETATM   13  N4  UNL     1       8.242  15.248  38.931  1.00  0.00    -0.344 N 
HETATM   14  C4  UNL     1       8.128  14.100  39.755  1.00  0.00     0.328 C 
HETATM   15  N5  UNL     1       6.821  13.652  40.084  1.00  0.00    -0.040 NA
HETATM   16  O1  UNL     1       9.143  13.482  40.194  1.00  0.00    -0.251 OA
ATOM     17  H4  UNL     1       7.413  15.733  38.588  1.00  0.00     0.163 HD
ENDBRANCH  12  13
ENDBRANCH  11  12
ENDBRANCH   4  11
BRANCH   1  18
HETATM   18  N1  UNL     1      11.702  12.511  34.696  1.00  0.00    -0.382 N 
ATOM     19  H12 UNL     1      12.666  12.469  35.026  1.00  0.00     0.157 HD
ATOM     20  H11 UNL     1      11.613  11.808  33.962  1.00  0.00     0.157 HD
ENDBRANCH   1  18
BRANCH  10  21
HETATM   21  C8  UNL     1       6.503  15.060  35.667  1.00  0.00     0.362 C 
HETATM   22  O2  UNL     1       6.134  15.326  36.807  1.00  0.00    -0.283 OA
ENDBRANCH  10  21
TORSDOF 5
ENDMDL
MODEL 2
REMARK VINA RESULT: -5.325914161      2.426      3.530
REMARK  5 active torsions:
REMARK  status: ('A' for Active; 'I' for Inactive)
REMARK    1  A    between atoms: N1_1  and  C1_4 
REMARK    2  A    between atoms: N3_7  and  C2_8 
REMARK    3  A    between atoms: C2_8  and  C3_9 
REMARK    4  A    between atoms: C3_9  and  N4_10 
REMARK       I    between atoms: N4_10  and  C4_12 
REMARK    5  A    between atoms: N7_20  and  C8_21 
ROOT
HETATM    1  C1  UNL     1       6.837  13.761  37.799  1.00  0.00     0.145 A 
HETATM    2  N2  UNL     1       7.680  14.352  38.622  1.00  0.00    -0.280 N 
ATOM      3  H2  UNL     1       7.422  14.707  39.543  1.00  0.00     0.189 HD
HETATM    4  N3  UNL     1       8.920  14.431  38.108  1.00  0.00    -0.271 N 
HETATM    5  C5  UNL     1       8.850  13.851  36.880  1.00  0.00     0.163 A 
HETATM    6  C6  UNL     1       7.555  13.426  36.668  1.00  0.00     0.125 A 
HETATM    7  N6  UNL     1       7.446  12.852  35.475  1.00  0.00    -0.346 N 
ATOM      8  H6  UNL     1       6.606  12.449  35.060  1.00  0.00     0.167 HD
HETATM    9  C7  UNL     1       8.657  12.912  34.934  1.00  0.00     0.193 A 
HETATM   10  N7  UNL     1       9.549  13.525  35.778  1.00  0.00    -0.268 N 
ENDROOT
BRANCH   4  11
HETATM   11  C2  UNL     1      10.069  15.015  38.743  1.00  0.00     0.170 C 
BRANCH  11  12
HETATM   12  C3  UNL     1       9.733  15.768  40.022  1.00  0.00     0.145 C 
BRANCH  12  13
HETATM   13  N4  UNL     1      10.229  15.032  41.154  1.00  0.00    -0.344 N 
HETATM   14  C4  UNL     1       9.311  14.237  41.886  1.00  0.00     0.328 C 
HETATM   15  N5  UNL     1       9.810  13.512  43.001  1.00  0.00    -0.040 NA
HETATM   16  O1  UNL     1       8.087  14.162  41.572  1.00  0.00    -0.251 OA
ATOM     17  H4  UNL     1      11.213  15.079  41.421  1.00  0.00     0.163 HD
ENDBRANCH  12  13
ENDBRANCH  11  12
ENDBRANCH   4  11
BRANCH   1  18
HETATM   18  N1  UNL     1       5.580  13.516  37.959  1.00  0.00    -0.382 N 
ATOM     19  H12 UNL     1       5.208  12.841  38.628  1.00  0.00     0.157 HD
ATOM     20  H11 UNL     1       4.778  13.924  37.478  1.00  0.00     0.157 HD
ENDBRANCH   1  18
BRANCH  10  21
HETATM   21  C8  UNL     1      10.910  13.747  35.507  1.00  0.00     0.362 C 
HETATM   22  O2  UNL     1      11.470  14.066  34.464  1.00  0.00    -0.283 OA
ENDBRANCH  10  21
TORSDOF 5
ENDMDL
MODEL 3
REMARK VINA RESULT: -5.315641771      2.120      3.236
REMARK  5 active torsions:
REMARK  status: ('A' for Active; 'I' for Inactive)
REMARK    1  A    between atoms: N1_1  and  C1_4 
REMARK    2  A    between atoms: N3_7  and  C2_8 
REMARK    3  A    between atoms: C2_8  and  C3_9 
REMARK    4  A    between atoms: C3_9  and  N4_10 
REMARK       I    between atoms: N4_10  and  C4_12 
REMARK    5  A    between atoms: N7_20  and  C8_21 
ROOT
HETATM    1  C1  UNL     1       6.763  14.981  36.487  1.00  0.00     0.145 A 
HETATM    2  N2  UNL     1       7.713  15.581  37.176  1.00  0.00    -0.280 N 
ATOM      3  H2  UNL     1       7.537  16.280  37.898  1.00  0.00     0.189 HD
HETATM    4  N3  UNL     1       8.940  15.166  36.817  1.00  0.00    -0.271 N 
HETATM    5  C5  UNL     1       8.747  14.243  35.837  1.00  0.00     0.163 A 
HETATM    6  C6  UNL     1       7.391  14.114  35.616  1.00  0.00     0.125 A 
HETATM    7  N6  UNL     1       7.162  13.217  34.663  1.00  0.00    -0.346 N 
ATOM      8  H6  UNL     1       6.255  12.924  34.300  1.00  0.00     0.167 HD
HETATM    9  C7  UNL     1       8.356  12.782  34.281  1.00  0.00     0.193 A 
HETATM   10  N7  UNL     1       9.359  13.398  34.988  1.00  0.00    -0.268 N 
ENDROOT
BRANCH   4  11
HETATM   11  C2  UNL     1      10.187  15.620  37.367  1.00  0.00     0.170 C 
BRANCH  11  12
HETATM   12  C3  UNL     1      10.041  16.270  38.735  1.00  0.00     0.145 C 
BRANCH  12  13
HETATM   13  N4  UNL     1      10.285  15.289  39.758  1.00  0.00    -0.344 N 
HETATM   14  C4  UNL     1       9.166  14.721  40.418  1.00  0.00     0.328 C 
HETATM   15  N5  UNL     1       9.416  13.752  41.426  1.00  0.00    -0.040 NA
HETATM   16  O1  UNL     1       7.977  15.052  40.133  1.00  0.00    -0.251 OA
ATOM     17  H4  UNL     1      11.236  15.009  40.001  1.00  0.00     0.163 HD
ENDBRANCH  12  13
ENDBRANCH  11  12
ENDBRANCH   4  11
BRANCH   1  18
HETATM   18  N1  UNL     1       5.483  15.130  36.564  1.00  0.00    -0.382 N 
ATOM     19  H12 UNL     1       5.018  16.026  36.712  1.00  0.00     0.157 HD
ATOM     20  H11 UNL     1       4.747  14.426  36.495  1.00  0.00     0.157 HD
ENDBRANCH   1  18
BRANCH  10  21
HETATM   21  C8  UNL     1      10.735  13.164  34.826  1.00  0.00     0.362 C 
HETATM   22  O2  UNL     1      11.644  13.936  34.539  1.00  0.00    -0.283 OA
ENDBRANCH  10  21
TORSDOF 5
ENDMDL
MODEL 4
REMARK VINA RESULT: -5.255953243      2.745      4.004
REMARK  5 active torsions:
REMARK  status: ('A' for Active; 'I' for Inactive)
REMARK    1  A    between atoms: N1_1  and  C1_4 
REMARK    2  A    between atoms: N3_7  and  C2_8 
REMARK    3  A    between atoms: C2_8  and  C3_9 
REMARK    4  A    between atoms: C3_9  and  N4_10 
REMARK       I    between atoms: N4_10  and  C4_12 
REMARK    5  A    between atoms: N7_20  and  C8_21 
ROOT
HETATM    1  C1  UNL     1       6.869  14.724  36.811  1.00  0.00     0.145 A 
HETATM    2  N2  UNL     1       7.836  15.165  37.590  1.00  0.00    -0.280 N 
ATOM      3  H2  UNL     1       7.680  15.727  38.427  1.00  0.00     0.189 HD
HETATM    4  N3  UNL     1       9.051  14.789  37.155  1.00  0.00    -0.271 N 
HETATM    5  C5  UNL     1       8.831  14.062  36.026  1.00  0.00     0.163 A 
HETATM    6  C6  UNL     1       7.472  14.011  35.794  1.00  0.00     0.125 A 
HETATM    7  N6  UNL     1       7.217  13.307  34.697  1.00  0.00    -0.346 N 
ATOM      8  H6  UNL     1       6.302  13.108  34.292  1.00  0.00     0.167 HD
HETATM    9  C7  UNL     1       8.399  12.916  34.236  1.00  0.00     0.193 A 
HETATM   10  N7  UNL     1       9.419  13.367  35.036  1.00  0.00    -0.268 N 
ENDROOT
BRANCH   4  11
HETATM   11  C2  UNL     1      10.310  15.101  37.770  1.00  0.00     0.170 C 
BRANCH  11  12
HETATM   12  C3  UNL     1      10.404  16.542  38.252  1.00  0.00     0.145 C 
BRANCH  12  13
HETATM   13  N4  UNL     1      11.782  16.875  38.497  1.00  0.00    -0.344 N 
HETATM   14  C4  UNL     1      12.271  16.750  39.822  1.00  0.00     0.328 C 
HETATM   15  N5  UNL     1      13.634  17.079  40.055  1.00  0.00    -0.040 NA
HETATM   16  O1  UNL     1      11.537  16.359  40.777  1.00  0.00    -0.251 OA
ATOM     17  H4  UNL     1      12.389  17.191  37.740  1.00  0.00     0.163 HD
ENDBRANCH  12  13
ENDBRANCH  11  12
ENDBRANCH   4  11
BRANCH   1  18
HETATM   18  N1  UNL     1       5.593  14.892  36.920  1.00  0.00    -0.382 N 
ATOM     19  H12 UNL     1       5.150  15.454  37.647  1.00  0.00     0.157 HD
ATOM     20  H11 UNL     1       4.843  14.519  36.339  1.00  0.00     0.157 HD
ENDBRANCH   1  18
BRANCH  10  21
HETATM   21  C8  UNL     1      10.788  13.128  34.827  1.00  0.00     0.362 C 
HETATM   22  O2  UNL     1      11.708  13.912  34.619  1.00  0.00    -0.283 OA
ENDBRANCH  10  21
TORSDOF 5
ENDMDL
MODEL 5
REMARK VINA RESULT: -5.209281116      3.077      4.363
REMARK  5 active torsions:
REMARK  status: ('A' for Active; 'I' for Inactive)
REMARK    1  A    between atoms: N1_1  and  C1_4 
REMARK    2  A    between atoms: N3_7  and  C2_8 
REMARK    3  A    between atoms: C2_8  and  C3_9 
REMARK    4  A    between atoms: C3_9  and  N4_10 
REMARK       I    between atoms: N4_10  and  C4_12 
REMARK    5  A    between atoms: N7_20  and  C8_21 
ROOT
HETATM    1  C1  UNL     1       6.982  13.711  37.774  1.00  0.00     0.145 A 
HETATM    2  N2  UNL     1       7.879  14.328  38.516  1.00  0.00    -0.280 N 
ATOM      3  H2  UNL     1       7.682  14.722  39.436  1.00  0.00     0.189 HD
HETATM    4  N3  UNL     1       9.083  14.378  37.920  1.00  0.00    -0.271 N 
HETATM    5  C5  UNL     1       8.932  13.750  36.724  1.00  0.00     0.163 A 
HETATM    6  C6  UNL     1       7.623  13.325  36.613  1.00  0.00     0.125 A 
HETATM    7  N6  UNL     1       7.435  12.704  35.454  1.00  0.00    -0.346 N 
ATOM      8  H6  UNL     1       6.569  12.290  35.111  1.00  0.00     0.167 HD
HETATM    9  C7  UNL     1       8.609  12.734  34.834  1.00  0.00     0.193 A 
HETATM   10  N7  UNL     1       9.557  13.375  35.593  1.00  0.00    -0.268 N 
ENDROOT
BRANCH   4  11
HETATM   11  C2  UNL     1      10.273  14.979  38.455  1.00  0.00     0.170 C 
BRANCH  11  12
HETATM   12  C3  UNL     1      10.657  16.278  37.759  1.00  0.00     0.145 C 
BRANCH  12  13
HETATM   13  N4  UNL     1      11.775  16.872  38.441  1.00  0.00    -0.344 N 
HETATM   14  C4  UNL     1      11.868  18.287  38.462  1.00  0.00     0.328 C 
HETATM   15  N5  UNL     1      12.975  18.865  39.139  1.00  0.00    -0.040 NA
HETATM   16  O1  UNL     1      11.004  19.026  37.904  1.00  0.00    -0.251 OA
ATOM     17  H4  UNL     1      12.481  16.293  38.897  1.00  0.00     0.163 HD
ENDBRANCH  12  13
ENDBRANCH  11  12
ENDBRANCH   4  11
BRANCH   1  18
HETATM   18  N1  UNL     1       5.737  13.480  38.024  1.00  0.00    -0.382 N 
ATOM     19  H12 UNL     1       5.032  14.208  38.142  1.00  0.00     0.157 HD
ATOM     20  H11 UNL     1       5.258  12.587  38.143  1.00  0.00     0.157 HD
ENDBRANCH   1  18
BRANCH  10  21
HETATM   21  C8  UNL     1      10.897  13.576  35.226  1.00  0.00     0.362 C 
HETATM   22  O2  UNL     1      11.377  14.128  34.241  1.00  0.00    -0.283 OA
ENDBRANCH  10  21
TORSDOF 5
ENDMDL
