MODEL 1
REMARK VINA RESULT: -5.838718501      0.000      0.000
REMARK  5 active torsions:
REMARK  status: ('A' for Active; 'I' for Inactive)
REMARK    1  A    between atoms: C2_2  and  C3_3 
REMARK    2  A    between atoms: C2_2  and  N3_10 
REMARK    3  A    between atoms: C3_3  and  N1_4 
REMARK    4  A    between atoms: N1_4  and  N2_6 
REMARK    5  A    between atoms: N2_6  and  C4_8 
ROOT
HETATM    1  N3  UNL     1       7.639  14.744  35.717  1.00  0.00    -0.321 N 
HETATM    2  C5  UNL     1       8.456  15.804  35.711  1.00  0.00     0.185 A 
HETATM    3  N4  UNL     1       8.736  16.188  36.961  1.00  0.00    -0.345 N 
ATOM      4  H4  UNL     1       9.334  16.969  37.232  1.00  0.00     0.167 HD
HETATM    5  C6  UNL     1       8.090  15.367  37.786  1.00  0.00     0.146 A 
HETATM    6  C7  UNL     1       8.006  15.282  39.160  1.00  0.00     0.277 A 
HETATM    7  O2  UNL     1       8.617  16.088  39.895  1.00  0.00    -0.266 OA
HETATM    8  N5  UNL     1       7.245  14.308  39.685  1.00  0.00    -0.318 N 
ATOM      9  H5  UNL     1       7.182  14.246  40.701  1.00  0.00     0.169 HD
HETATM   10  C8  UNL     1       6.560  13.409  38.955  1.00  0.00     0.185 A 
HETATM   11  N6  UNL     1       6.640  13.488  37.629  1.00  0.00    -0.336 N 
ATOM     12  H6  UNL     1       6.127  12.815  37.058  1.00  0.00     0.168 HD
HETATM   13  C9  UNL     1       7.378  14.431  37.024  1.00  0.00     0.142 A 
ENDROOT
BRANCH   1  14
HETATM   14  C2  UNL     1       7.080  14.010  34.633  1.00  0.00     0.107 C 
HETATM   15  C1  UNL     1       6.911  14.847  33.359  1.00  0.00     0.034 C 
BRANCH  14  16
HETATM   16  C3  UNL     1       7.724  12.712  34.303  1.00  0.00     0.164 C 
BRANCH  16  17
HETATM   17  N1  UNL     1       9.081  12.860  33.888  1.00  0.00    -0.332 N 
ATOM     18  H1  UNL     1       9.333  13.338  33.022  1.00  0.00     0.180 HD
BRANCH  17  19
HETATM   19  N2  UNL     1      10.025  12.318  34.725  1.00  0.00    -0.282 N 
ATOM     20  H2  UNL     1       9.972  11.338  35.002  1.00  0.00     0.189 HD
BRANCH  19  21
HETATM   21  C4  UNL     1      11.075  13.144  35.198  1.00  0.00     0.368 C 
HETATM   22  O1  UNL     1      11.444  14.170  34.581  1.00  0.00    -0.282 OA
ENDBRANCH  19  21
ENDBRANCH  17  19
ENDBRANCH  16  17
ENDBRANCH  14  16
ENDBRANCH   1  14
TORSDOF 5
ENDMDL
MODEL 2
REMARK VINA RESULT: -5.640415833      2.712      5.340
REMARK  5 active torsions:
REMARK  status: ('A' for Active; 'I' for Inactive)
REMARK    1  A    between atoms: C2_2  and  C3_3 
REMARK    2  A    between atoms: C2_2  and  N3_10 
REMARK    3  A    between atoms: C3_3  and  N1_4 
REMARK    4  A    between atoms: N1_4  and  N2_6 
REMARK    5  A    between atoms: N2_6  and  C4_8 
ROOT
HETATM    1  N3  UNL     1       8.667  14.938  37.395  1.00  0.00    -0.321 N 
HETATM    2  C5  UNL     1       7.362  14.693  37.232  1.00  0.00     0.185 A 
HETATM    3  N4  UNL     1       7.164  13.879  36.191  1.00  0.00    -0.345 N 
ATOM      4  H4  UNL     1       6.264  13.538  35.854  1.00  0.00     0.167 HD
HETATM    5  C6  UNL     1       8.357  13.593  35.673  1.00  0.00     0.146 A 
HETATM    6  C7  UNL     1       8.764  12.818  34.608  1.00  0.00     0.277 A 
HETATM    7  O2  UNL     1       7.934  12.202  33.903  1.00  0.00    -0.266 OA
HETATM    8  N5  UNL     1      10.080  12.744  34.349  1.00  0.00    -0.318 N 
ATOM      9  H5  UNL     1      10.380  12.170  33.561  1.00  0.00     0.169 HD
HETATM   10  C8  UNL     1      11.026  13.379  35.063  1.00  0.00     0.185 A 
HETATM   11  N6  UNL     1      10.636  14.128  36.093  1.00  0.00    -0.336 N 
ATOM     12  H6  UNL     1      11.340  14.618  36.647  1.00  0.00     0.168 HD
HETATM   13  C9  UNL     1       9.341  14.255  36.418  1.00  0.00     0.142 A 
ENDROOT
BRANCH   1  14
HETATM   14  C2  UNL     1       9.336  15.743  38.360  1.00  0.00     0.107 C 
HETATM   15  C1  UNL     1      10.025  14.925  39.459  1.00  0.00     0.034 C 
BRANCH  14  16
HETATM   16  C3  UNL     1      10.271  16.775  37.838  1.00  0.00     0.164 C 
BRANCH  16  17
HETATM   17  N1  UNL     1      11.618  16.556  38.250  1.00  0.00    -0.332 N 
ATOM     18  H1  UNL     1      12.066  15.642  38.178  1.00  0.00     0.180 HD
BRANCH  17  19
HETATM   19  N2  UNL     1      12.276  17.653  38.751  1.00  0.00    -0.282 N 
ATOM     20  H2  UNL     1      12.180  18.564  38.303  1.00  0.00     0.189 HD
BRANCH  19  21
HETATM   21  C4  UNL     1      13.089  17.498  39.901  1.00  0.00     0.368 C 
HETATM   22  O1  UNL     1      12.906  16.573  40.726  1.00  0.00    -0.282 OA
ENDBRANCH  19  21
ENDBRANCH  17  19
ENDBRANCH  16  17
ENDBRANCH  14  16
ENDBRANCH   1  14
TORSDOF 5
ENDMDL
MODEL 3
REMARK VINA RESULT: -5.621354087      2.454      5.302
REMARK  5 active torsions:
REMARK  status: ('A' for Active; 'I' for Inactive)
REMARK    1  A    between atoms: C2_2  and  C3_3 
REMARK    2  A    between atoms: C2_2  and  N3_10 
REMARK    3  A    between atoms: C3_3  and  N1_4 
REMARK    4  A    between atoms: N1_4  and  N2_6 
REMARK    5  A    between atoms: N2_6  and  C4_8 
ROOT
HETATM    1  N3  UNL     1       8.210  13.975  37.887  1.00  0.00    -0.321 N 
HETATM    2  C5  UNL     1       9.291  14.649  38.296  1.00  0.00     0.185 A 
HETATM    3  N4  UNL     1      10.226  14.661  37.341  1.00  0.00    -0.345 N 
ATOM      4  H4  UNL     1      11.142  15.106  37.399  1.00  0.00     0.167 HD
HETATM    5  C6  UNL     1       9.744  13.986  36.300  1.00  0.00     0.146 A 
HETATM    6  C7  UNL     1      10.253  13.677  35.057  1.00  0.00     0.277 A 
HETATM    7  O2  UNL     1      11.396  14.052  34.715  1.00  0.00    -0.266 OA
HETATM    8  N5  UNL     1       9.484  12.958  34.222  1.00  0.00    -0.318 N 
ATOM      9  H5  UNL     1       9.861  12.730  33.302  1.00  0.00     0.169 HD
HETATM   10  C8  UNL     1       8.248  12.521  34.523  1.00  0.00     0.185 A 
HETATM   11  N6  UNL     1       7.753  12.818  35.722  1.00  0.00    -0.336 N 
ATOM     12  H6  UNL     1       6.817  12.496  35.969  1.00  0.00     0.168 HD
HETATM   13  C9  UNL     1       8.456  13.532  36.615  1.00  0.00     0.142 A 
ENDROOT
BRANCH   1  14
HETATM   14  C2  UNL     1       6.987  13.703  38.563  1.00  0.00     0.107 C 
HETATM   15  C1  UNL     1       7.107  13.792  40.090  1.00  0.00     0.034 C 
BRANCH  14  16
HETATM   16  C3  UNL     1       5.788  14.454  38.106  1.00  0.00     0.164 C 
BRANCH  16  17
HETATM   17  N1  UNL     1       4.574  13.740  38.328  1.00  0.00    -0.332 N 
ATOM     18  H1  UNL     1       4.540  12.889  38.890  1.00  0.00     0.180 HD
BRANCH  17  19
HETATM   19  N2  UNL     1       3.453  14.269  37.737  1.00  0.00    -0.282 N 
ATOM     20  H2  UNL     1       2.591  13.727  37.681  1.00  0.00     0.189 HD
BRANCH  19  21
HETATM   21  C4  UNL     1       3.513  15.581  37.206  1.00  0.00     0.368 C 
HETATM   22  O1  UNL     1       3.130  15.847  36.043  1.00  0.00    -0.282 OA
ENDBRANCH  19  21
ENDBRANCH  17  19
ENDBRANCH  16  17
ENDBRANCH  14  16
ENDBRANCH   1  14
TORSDOF 5
ENDMDL
MODEL 4
REMARK VINA RESULT: -5.598096193      2.341      5.727
REMARK  5 active torsions:
REMARK  status: ('A' for Active; 'I' for Inactive)
REMARK    1  A    between atoms: C2_2  and  C3_3 
REMARK    2  A    between atoms: C2_2  and  N3_10 
REMARK    3  A    between atoms: C3_3  and  N1_4 
REMARK    4  A    between atoms: N1_4  and  N2_6 
REMARK    5  A    between atoms: N2_6  and  C4_8 
ROOT
HETATM    1  N3  UNL     1       8.676  14.509  37.639  1.00  0.00    -0.321 N 
HETATM    2  C5  UNL     1       7.393  14.147  37.526  1.00  0.00     0.185 A 
HETATM    3  N4  UNL     1       7.199  13.443  36.407  1.00  0.00    -0.345 N 
ATOM      4  H4  UNL     1       6.315  13.050  36.086  1.00  0.00     0.167 HD
HETATM    5  C6  UNL     1       8.374  13.347  35.787  1.00  0.00     0.146 A 
HETATM    6  C7  UNL     1       8.776  12.747  34.612  1.00  0.00     0.277 A 
HETATM    7  O2  UNL     1       7.961  12.133  33.889  1.00  0.00    -0.266 OA
HETATM    8  N5  UNL     1      10.070  12.843  34.267  1.00  0.00    -0.318 N 
ATOM      9  H5  UNL     1      10.367  12.400  33.398  1.00  0.00     0.169 HD
HETATM   10  C8  UNL     1      11.000  13.488  34.995  1.00  0.00     0.185 A 
HETATM   11  N6  UNL     1      10.614  14.068  36.130  1.00  0.00    -0.336 N 
ATOM     12  H6  UNL     1      11.305  14.562  36.696  1.00  0.00     0.168 HD
HETATM   13  C9  UNL     1       9.340  14.019  36.547  1.00  0.00     0.142 A 
ENDROOT
BRANCH   1  14
HETATM   14  C2  UNL     1       9.331  15.264  38.653  1.00  0.00     0.107 C 
HETATM   15  C1  UNL     1       9.347  16.771  38.369  1.00  0.00     0.034 C 
BRANCH  14  16
HETATM   16  C3  UNL     1       8.901  15.018  40.054  1.00  0.00     0.164 C 
BRANCH  16  17
HETATM   17  N1  UNL     1       9.288  13.730  40.531  1.00  0.00    -0.332 N 
ATOM     18  H1  UNL     1       9.516  12.964  39.897  1.00  0.00     0.180 HD
BRANCH  17  19
HETATM   19  N2  UNL     1       9.334  13.587  41.896  1.00  0.00    -0.282 N 
ATOM     20  H2  UNL     1      10.158  13.192  42.348  1.00  0.00     0.189 HD
BRANCH  19  21
HETATM   21  C4  UNL     1       8.217  13.997  42.665  1.00  0.00     0.368 C 
HETATM   22  O1  UNL     1       7.336  13.190  43.042  1.00  0.00    -0.282 OA
ENDBRANCH  19  21
ENDBRANCH  17  19
ENDBRANCH  16  17
ENDBRANCH  14  16
ENDBRANCH   1  14
TORSDOF 5
ENDMDL
MODEL 5
REMARK VINA RESULT: -5.593472911      2.775      5.301
REMARK  5 active torsions:
REMARK  status: ('A' for Active; 'I' for Inactive)
REMARK    1  A    between atoms: C2_2  and  C3_3 
REMARK    2  A    between atoms: C2_2  and  N3_10 
REMARK    3  A    between atoms: C3_3  and  N1_4 
REMARK    4  A    between atoms: N1_4  and  N2_6 
REMARK    5  A    between atoms: N2_6  and  C4_8 
ROOT
HETATM    1  N3  UNL     1       8.589  14.910  37.383  1.00  0.00    -0.321 N 
HETATM    2  C5  UNL     1       7.291  14.631  37.216  1.00  0.00     0.185 A 
HETATM    3  N4  UNL     1       7.118  13.810  36.176  1.00  0.00    -0.345 N 
ATOM      4  H4  UNL     1       6.228  13.446  35.836  1.00  0.00     0.167 HD
HETATM    5  C6  UNL     1       8.320  13.553  35.663  1.00  0.00     0.146 A 
HETATM    6  C7  UNL     1       8.750  12.786  34.602  1.00  0.00     0.277 A 
HETATM    7  O2  UNL     1       7.939  12.148  33.895  1.00  0.00    -0.266 OA
HETATM    8  N5  UNL     1      10.068  12.744  34.348  1.00  0.00    -0.318 N 
ATOM      9  H5  UNL     1      10.386  12.176  33.563  1.00  0.00     0.169 HD
HETATM   10  C8  UNL     1      10.996  13.405  35.065  1.00  0.00     0.185 A 
HETATM   11  N6  UNL     1      10.583  14.146  36.091  1.00  0.00    -0.336 N 
ATOM     12  H6  UNL     1      11.272  14.655  36.646  1.00  0.00     0.168 HD
HETATM   13  C9  UNL     1       9.284  14.242  36.411  1.00  0.00     0.142 A 
ENDROOT
BRANCH   1  14
HETATM   14  C2  UNL     1       9.234  15.734  38.349  1.00  0.00     0.107 C 
HETATM   15  C1  UNL     1       9.928  14.936  39.460  1.00  0.00     0.034 C 
BRANCH  14  16
HETATM   16  C3  UNL     1      10.154  16.779  37.828  1.00  0.00     0.164 C 
BRANCH  16  17
HETATM   17  N1  UNL     1      11.459  16.697  38.398  1.00  0.00    -0.332 N 
ATOM     18  H1  UNL     1      11.831  15.826  38.777  1.00  0.00     0.180 HD
BRANCH  17  19
HETATM   19  N2  UNL     1      12.182  17.865  38.406  1.00  0.00    -0.282 N 
ATOM     20  H2  UNL     1      13.172  17.860  38.652  1.00  0.00     0.189 HD
BRANCH  19  21
HETATM   21  C4  UNL     1      11.530  19.076  38.068  1.00  0.00     0.368 C 
HETATM   22  O1  UNL     1      12.043  19.912  37.286  1.00  0.00    -0.282 OA
ENDBRANCH  19  21
ENDBRANCH  17  19
ENDBRANCH  16  17
ENDBRANCH  14  16
ENDBRANCH   1  14
TORSDOF 5
ENDMDL
