MODEL 1
REMARK VINA RESULT: -7.733294667      0.000      0.000
REMARK  1 active torsions:
REMARK  status: ('A' for Active; 'I' for Inactive)
REMARK       I    between atoms: N6_15  and  C5_16 
REMARK       I    between atoms: C5_16  and  N7_18 
REMARK    1  A    between atoms: N7_18  and  N8_20 
ROOT
HETATM    1  N1  UNL     1     120.410  38.506  61.418  1.00  0.00    -0.383 N 
ATOM      2  H11 UNL     1     120.609  39.422  61.016  1.00  0.00     0.157 HD
ATOM      3  H12 UNL     1     120.593  37.679  60.850  1.00  0.00     0.157 HD
HETATM    4  C1  UNL     1     119.938  38.395  62.612  1.00  0.00     0.143 C 
HETATM    5  N2  UNL     1     119.660  37.119  63.172  1.00  0.00    -0.268 N 
ATOM      6  H2  UNL     1     120.158  36.274  62.892  1.00  0.00     0.186 HD
HETATM    7  N3  UNL     1     118.632  37.111  64.156  1.00  0.00    -0.019 NA
HETATM    8  N4  UNL     1     118.947  38.077  65.144  1.00  0.00    -0.267 N 
ATOM      9  H4  UNL     1     119.012  37.822  66.130  1.00  0.00     0.186 HD
HETATM   10  C2  UNL     1     119.166  39.403  64.718  1.00  0.00     0.161 A 
HETATM   11  C3  UNL     1     119.676  39.577  63.424  1.00  0.00     0.124 A 
HETATM   12  N5  UNL     1     119.798  40.892  63.284  1.00  0.00    -0.346 N 
ATOM     13  H5  UNL     1     120.146  41.359  62.447  1.00  0.00     0.167 HD
HETATM   14  C4  UNL     1     119.398  41.517  64.400  1.00  0.00     0.195 A 
HETATM   15  N6  UNL     1     118.992  40.586  65.323  1.00  0.00    -0.241 N 
HETATM   16  C5  UNL     1     118.524  40.952  66.596  1.00  0.00     0.347 C 
HETATM   17  O1  UNL     1     118.503  42.206  66.918  1.00  0.00    -0.245 OA
HETATM   18  N7  UNL     1     118.060  40.102  67.595  1.00  0.00    -0.258 N 
ATOM     19  H7  UNL     1     118.039  39.097  67.422  1.00  0.00     0.191 HD
ENDROOT
BRANCH  18  20
HETATM   20  N8  UNL     1     117.611  40.601  68.861  1.00  0.00    -0.341 N 
ATOM     21  H82 UNL     1     118.312  40.789  69.579  1.00  0.00     0.177 HD
ATOM     22  H81 UNL     1     116.623  40.768  69.053  1.00  0.00     0.177 HD
ENDBRANCH  18  20
TORSDOF 1
ENDMDL
MODEL 2
REMARK VINA RESULT: -6.931597280      2.169      5.728
REMARK  1 active torsions:
REMARK  status: ('A' for Active; 'I' for Inactive)
REMARK       I    between atoms: N6_15  and  C5_16 
REMARK       I    between atoms: C5_16  and  N7_18 
REMARK    1  A    between atoms: N7_18  and  N8_20 
ROOT
HETATM    1  N1  UNL     1     117.108  43.265  70.568  1.00  0.00    -0.383 N 
ATOM      2  H11 UNL     1     116.944  44.131  70.055  1.00  0.00     0.157 HD
ATOM      3  H12 UNL     1     116.969  43.270  71.579  1.00  0.00     0.157 HD
HETATM    4  C1  UNL     1     117.480  42.193  69.959  1.00  0.00     0.143 C 
HETATM    5  N2  UNL     1     117.708  40.987  70.675  1.00  0.00    -0.268 N 
ATOM      6  H2  UNL     1     117.232  40.768  71.550  1.00  0.00     0.186 HD
HETATM    7  N3  UNL     1     118.652  40.107  70.075  1.00  0.00    -0.019 NA
HETATM    8  N4  UNL     1     118.260  39.872  68.734  1.00  0.00    -0.267 N 
ATOM      9  H4  UNL     1     118.113  38.925  68.385  1.00  0.00     0.186 HD
HETATM   10  C2  UNL     1     118.079  40.993  67.898  1.00  0.00     0.161 A 
HETATM   11  C3  UNL     1     117.677  42.186  68.515  1.00  0.00     0.124 A 
HETATM   12  N5  UNL     1     117.571  43.060  67.520  1.00  0.00    -0.346 N 
ATOM     13  H5  UNL     1     117.294  44.035  67.629  1.00  0.00     0.167 HD
HETATM   14  C4  UNL     1     117.879  42.477  66.354  1.00  0.00     0.195 A 
HETATM   15  N6  UNL     1     118.206  41.162  66.574  1.00  0.00    -0.241 N 
HETATM   16  C5  UNL     1     118.569  40.298  65.528  1.00  0.00     0.347 C 
HETATM   17  O1  UNL     1     118.568  40.750  64.315  1.00  0.00    -0.245 OA
HETATM   18  N7  UNL     1     118.948  38.963  65.636  1.00  0.00    -0.258 N 
ATOM     19  H7  UNL     1     118.981  38.529  66.558  1.00  0.00     0.191 HD
ENDROOT
BRANCH  18  20
HETATM   20  N8  UNL     1     119.293  38.182  64.486  1.00  0.00    -0.341 N 
ATOM     21  H82 UNL     1     118.810  38.380  63.609  1.00  0.00     0.177 HD
ATOM     22  H81 UNL     1     119.998  37.446  64.528  1.00  0.00     0.177 HD
ENDBRANCH  18  20
TORSDOF 1
ENDMDL
MODEL 3
REMARK VINA RESULT: -6.660850031      3.391      5.184
REMARK  1 active torsions:
REMARK  status: ('A' for Active; 'I' for Inactive)
REMARK       I    between atoms: N6_15  and  C5_16 
REMARK       I    between atoms: C5_16  and  N7_18 
REMARK    1  A    between atoms: N7_18  and  N8_20 
ROOT
HETATM    1  N1  UNL     1     117.996  40.185  66.588  1.00  0.00    -0.383 N 
ATOM      2  H11 UNL     1     117.742  40.925  67.242  1.00  0.00     0.157 HD
ATOM      3  H12 UNL     1     118.287  39.285  66.969  1.00  0.00     0.157 HD
HETATM    4  C1  UNL     1     117.952  40.381  65.316  1.00  0.00     0.143 C 
HETATM    5  N2  UNL     1     118.307  39.349  64.405  1.00  0.00    -0.268 N 
ATOM      6  H2  UNL     1     118.210  38.359  64.630  1.00  0.00     0.186 HD
HETATM    7  N3  UNL     1     118.807  39.805  63.154  1.00  0.00    -0.019 NA
HETATM    8  N4  UNL     1     117.873  40.715  62.600  1.00  0.00    -0.267 N 
ATOM      9  H4  UNL     1     117.482  40.570  61.668  1.00  0.00     0.186 HD
HETATM   10  C2  UNL     1     117.501  41.829  63.380  1.00  0.00     0.161 A 
HETATM   11  C3  UNL     1     117.536  41.667  64.772  1.00  0.00     0.124 A 
HETATM   12  N5  UNL     1     117.136  42.838  65.256  1.00  0.00    -0.346 N 
ATOM     13  H5  UNL     1     117.048  43.059  66.248  1.00  0.00     0.167 HD
HETATM   14  C4  UNL     1     116.865  43.687  64.256  1.00  0.00     0.195 A 
HETATM   15  N6  UNL     1     117.093  43.063  63.055  1.00  0.00    -0.241 N 
HETATM   16  C5  UNL     1     116.886  43.712  61.826  1.00  0.00     0.347 C 
HETATM   17  O1  UNL     1     116.441  44.928  61.828  1.00  0.00    -0.245 OA
HETATM   18  N7  UNL     1     117.112  43.193  60.555  1.00  0.00    -0.258 N 
ATOM     19  H7  UNL     1     117.468  42.241  60.463  1.00  0.00     0.191 HD
ENDROOT
BRANCH  18  20
HETATM   20  N8  UNL     1     116.856  43.958  59.372  1.00  0.00    -0.341 N 
ATOM     21  H82 UNL     1     116.271  44.790  59.455  1.00  0.00     0.177 HD
ATOM     22  H81 UNL     1     117.241  43.690  58.466  1.00  0.00     0.177 HD
ENDBRANCH  18  20
TORSDOF 1
ENDMDL
MODEL 4
REMARK VINA RESULT: -6.655590459      2.212      4.969
REMARK  1 active torsions:
REMARK  status: ('A' for Active; 'I' for Inactive)
REMARK       I    between atoms: N6_15  and  C5_16 
REMARK       I    between atoms: C5_16  and  N7_18 
REMARK    1  A    between atoms: N7_18  and  N8_20 
ROOT
HETATM    1  N1  UNL     1     116.964  44.049  67.244  1.00  0.00    -0.383 N 
ATOM      2  H11 UNL     1     116.934  44.665  66.432  1.00  0.00     0.157 HD
ATOM      3  H12 UNL     1     116.749  44.445  68.158  1.00  0.00     0.157 HD
HETATM    4  C1  UNL     1     117.269  42.804  67.119  1.00  0.00     0.143 C 
HETATM    5  N2  UNL     1     117.312  41.945  68.251  1.00  0.00    -0.268 N 
ATOM      6  H2  UNL     1     116.749  42.106  69.086  1.00  0.00     0.186 HD
HETATM    7  N3  UNL     1     118.203  40.843  68.129  1.00  0.00    -0.019 NA
HETATM    8  N4  UNL     1     117.895  40.145  66.934  1.00  0.00    -0.267 N 
ATOM      9  H4  UNL     1     117.677  39.148  66.946  1.00  0.00     0.186 HD
HETATM   10  C2  UNL     1     117.899  40.875  65.729  1.00  0.00     0.161 A 
HETATM   11  C3  UNL     1     117.577  42.238  65.812  1.00  0.00     0.124 A 
HETATM   12  N5  UNL     1     117.641  42.675  64.560  1.00  0.00    -0.346 N 
ATOM     13  H5  UNL     1     117.461  43.636  64.268  1.00  0.00     0.167 HD
HETATM   14  C4  UNL     1     117.978  41.675  63.734  1.00  0.00     0.195 A 
HETATM   15  N6  UNL     1     118.147  40.522  64.460  1.00  0.00    -0.241 N 
HETATM   16  C5  UNL     1     118.498  39.305  63.855  1.00  0.00     0.347 C 
HETATM   17  O1  UNL     1     118.639  39.263  62.569  1.00  0.00    -0.245 OA
HETATM   18  N7  UNL     1     118.725  38.088  64.490  1.00  0.00    -0.258 N 
ATOM     19  H7  UNL     1     118.639  38.033  65.505  1.00  0.00     0.191 HD
ENDROOT
BRANCH  18  20
HETATM   20  N8  UNL     1     119.075  36.908  63.757  1.00  0.00    -0.341 N 
ATOM     21  H82 UNL     1     118.323  36.282  63.466  1.00  0.00     0.177 HD
ATOM     22  H81 UNL     1     120.044  36.687  63.525  1.00  0.00     0.177 HD
ENDBRANCH  18  20
TORSDOF 1
ENDMDL
MODEL 5
REMARK VINA RESULT: -6.636254133      1.929      2.628
REMARK  1 active torsions:
REMARK  status: ('A' for Active; 'I' for Inactive)
REMARK       I    between atoms: N6_15  and  C5_16 
REMARK       I    between atoms: C5_16  and  N7_18 
REMARK    1  A    between atoms: N7_18  and  N8_20 
ROOT
HETATM    1  N1  UNL     1     117.546  41.186  62.385  1.00  0.00    -0.383 N 
ATOM      2  H11 UNL     1     116.947  42.011  62.422  1.00  0.00     0.157 HD
ATOM      3  H12 UNL     1     117.799  40.815  61.470  1.00  0.00     0.157 HD
HETATM    4  C1  UNL     1     117.972  40.628  63.464  1.00  0.00     0.143 C 
HETATM    5  N2  UNL     1     118.806  39.478  63.413  1.00  0.00    -0.268 N 
ATOM      6  H2  UNL     1     119.426  39.283  62.627  1.00  0.00     0.186 HD
HETATM    7  N3  UNL     1     118.710  38.621  64.544  1.00  0.00    -0.019 NA
HETATM    8  N4  UNL     1     118.927  39.392  65.713  1.00  0.00    -0.267 N 
ATOM      9  H4  UNL     1     119.653  39.141  66.384  1.00  0.00     0.186 HD
HETATM   10  C2  UNL     1     118.102  40.517  65.918  1.00  0.00     0.161 A 
HETATM   11  C3  UNL     1     117.610  41.159  64.773  1.00  0.00     0.124 A 
HETATM   12  N5  UNL     1     116.889  42.172  65.239  1.00  0.00    -0.346 N 
ATOM     13  H5  UNL     1     116.388  42.846  64.660  1.00  0.00     0.167 HD
HETATM   14  C4  UNL     1     116.914  42.183  66.578  1.00  0.00     0.195 A 
HETATM   15  N6  UNL     1     117.680  41.137  67.028  1.00  0.00    -0.241 N 
HETATM   16  C5  UNL     1     117.891  40.902  68.397  1.00  0.00     0.347 C 
HETATM   17  O1  UNL     1     117.369  41.714  69.260  1.00  0.00    -0.245 OA
HETATM   18  N7  UNL     1     118.619  39.861  68.966  1.00  0.00    -0.258 N 
ATOM     19  H7  UNL     1     119.060  39.172  68.357  1.00  0.00     0.191 HD
ENDROOT
BRANCH  18  20
HETATM   20  N8  UNL     1     118.766  39.732  70.385  1.00  0.00    -0.341 N 
ATOM     21  H82 UNL     1     119.583  40.156  70.825  1.00  0.00     0.177 HD
ATOM     22  H81 UNL     1     118.081  39.232  70.953  1.00  0.00     0.177 HD
ENDBRANCH  18  20
TORSDOF 1
ENDMDL
