MODEL 1
REMARK VINA RESULT: -6.937866204      0.000      0.000
REMARK  2 active torsions:
REMARK  status: ('A' for Active; 'I' for Inactive)
REMARK       I    between atoms: C2_3  and  N2_5 
REMARK    1  A    between atoms: N2_5  and  N3_7 
REMARK    2  A    between atoms: C4_14  and  N6_15 
ROOT
HETATM    1  N1  UNL     1     117.587  45.748  72.488  1.00  0.00    -0.186 NA
HETATM    2  C1  UNL     1     118.054  44.882  71.882  1.00  0.00     0.163 C 
HETATM    3  C2  UNL     1     118.632  43.774  71.089  1.00  0.00     0.341 C 
HETATM    4  O1  UNL     1     119.725  43.404  71.489  1.00  0.00    -0.254 OA
HETATM    5  N2  UNL     1     117.887  43.305  70.024  1.00  0.00    -0.232 N 
ATOM      6  H2  UNL     1     117.005  43.809  69.925  1.00  0.00     0.192 HD
ENDROOT
BRANCH   5   7
HETATM    7  N3  UNL     1     118.032  42.335  69.064  1.00  0.00    -0.027 N 
HETATM    8  C3  UNL     1     118.176  41.049  69.298  1.00  0.00     0.716 A 
HETATM    9  N4  UNL     1     118.198  40.554  70.472  1.00  0.00    -0.232 N 
HETATM   10  N5  UNL     1     118.311  40.194  68.230  1.00  0.00    -0.021 N 
ATOM     11  H42 UNL     1     118.097  41.188  71.263  1.00  0.00     0.174 HD
ATOM     12  H41 UNL     1     118.309  39.557  70.652  1.00  0.00     0.174 HD
HETATM   13  C4  UNL     1     118.302  40.616  66.966  1.00  0.00     0.694 A 
ATOM     14  H5  UNL     1     118.424  39.196  68.412  1.00  0.00     0.203 HD
HETATM   15  N7  UNL     1     118.153  41.933  66.751  1.00  0.00    -0.139 N 
HETATM   16  C5  UNL     1     118.020  42.783  67.762  1.00  0.00     0.374 A 
ATOM     17  H7  UNL     1     118.141  42.287  65.794  1.00  0.00     0.189 HD
HETATM   18  O2  UNL     1     117.886  44.001  67.465  1.00  0.00    -0.244 OA
BRANCH  13  19
HETATM   19  N6  UNL     1     118.430  39.792  65.992  1.00  0.00    -0.234 N 
ATOM     20  H62 UNL     1     118.214  40.067  65.034  1.00  0.00     0.174 HD
ATOM     21  H61 UNL     1     118.750  38.837  66.150  1.00  0.00     0.174 HD
ENDBRANCH  13  19
ENDBRANCH   5   7
TORSDOF 2
ENDMDL
MODEL 2
REMARK VINA RESULT: -6.643653330      3.520      4.939
REMARK  2 active torsions:
REMARK  status: ('A' for Active; 'I' for Inactive)
REMARK       I    between atoms: C2_3  and  N2_5 
REMARK    1  A    between atoms: N2_5  and  N3_7 
REMARK    2  A    between atoms: C4_14  and  N6_15 
ROOT
HETATM    1  N1  UNL     1     115.251  41.954  68.308  1.00  0.00    -0.186 NA
HETATM    2  C1  UNL     1     116.219  41.685  67.736  1.00  0.00     0.163 C 
HETATM    3  C2  UNL     1     117.443  41.330  66.984  1.00  0.00     0.341 C 
HETATM    4  O1  UNL     1     118.475  41.683  67.535  1.00  0.00    -0.254 OA
HETATM    5  N2  UNL     1     117.276  40.663  65.785  1.00  0.00    -0.232 N 
ATOM      6  H2  UNL     1     116.292  40.500  65.574  1.00  0.00     0.192 HD
ENDROOT
BRANCH   5   7
HETATM    7  N3  UNL     1     118.099  40.163  64.807  1.00  0.00    -0.027 N 
HETATM    8  C3  UNL     1     119.064  39.291  64.996  1.00  0.00     0.716 A 
HETATM    9  N4  UNL     1     119.347  38.803  66.139  1.00  0.00    -0.232 N 
HETATM   10  N5  UNL     1     119.808  38.882  63.914  1.00  0.00    -0.021 N 
ATOM     11  H42 UNL     1     118.795  39.107  66.941  1.00  0.00     0.174 HD
ATOM     12  H41 UNL     1     120.095  38.127  66.285  1.00  0.00     0.174 HD
HETATM   13  C4  UNL     1     119.589  39.335  62.680  1.00  0.00     0.694 A 
ATOM     14  H5  UNL     1     120.557  38.205  64.062  1.00  0.00     0.203 HD
HETATM   15  N7  UNL     1     118.598  40.225  62.510  1.00  0.00    -0.139 N 
HETATM   16  C5  UNL     1     117.863  40.638  63.536  1.00  0.00     0.374 A 
ATOM     17  H7  UNL     1     118.406  40.590  61.577  1.00  0.00     0.189 HD
HETATM   18  O2  UNL     1     116.955  41.475  63.282  1.00  0.00    -0.244 OA
BRANCH  13  19
HETATM   19  N6  UNL     1     120.300  38.933  61.692  1.00  0.00    -0.234 N 
ATOM     20  H62 UNL     1     120.620  37.967  61.628  1.00  0.00     0.174 HD
ATOM     21  H61 UNL     1     120.567  39.570  60.942  1.00  0.00     0.174 HD
ENDBRANCH  13  19
ENDBRANCH   5   7
TORSDOF 2
ENDMDL
MODEL 3
REMARK VINA RESULT: -6.390707654      2.360      5.258
REMARK  2 active torsions:
REMARK  status: ('A' for Active; 'I' for Inactive)
REMARK       I    between atoms: C2_3  and  N2_5 
REMARK    1  A    between atoms: N2_5  and  N3_7 
REMARK    2  A    between atoms: C4_14  and  N6_15 
ROOT
HETATM    1  N1  UNL     1     118.725  38.497  64.134  1.00  0.00    -0.186 NA
HETATM    2  C1  UNL     1     118.742  39.312  64.954  1.00  0.00     0.163 C 
HETATM    3  C2  UNL     1     118.749  40.340  66.018  1.00  0.00     0.341 C 
HETATM    4  O1  UNL     1     119.443  41.310  65.758  1.00  0.00    -0.254 OA
HETATM    5  N2  UNL     1     117.990  40.084  67.146  1.00  0.00    -0.232 N 
ATOM      6  H2  UNL     1     117.511  39.186  67.087  1.00  0.00     0.192 HD
ENDROOT
BRANCH   5   7
HETATM    7  N3  UNL     1     117.719  40.733  68.324  1.00  0.00    -0.027 N 
HETATM    8  C3  UNL     1     118.181  40.390  69.507  1.00  0.00     0.716 A 
HETATM    9  N4  UNL     1     118.951  39.391  69.688  1.00  0.00    -0.232 N 
HETATM   10  N5  UNL     1     117.820  41.139  70.601  1.00  0.00    -0.021 N 
ATOM     11  H42 UNL     1     119.219  38.835  68.876  1.00  0.00     0.174 HD
ATOM     12  H41 UNL     1     119.309  39.125  70.605  1.00  0.00     0.174 HD
HETATM   13  C4  UNL     1     117.020  42.201  70.513  1.00  0.00     0.694 A 
ATOM     14  H5  UNL     1     118.179  40.871  71.518  1.00  0.00     0.203 HD
HETATM   15  N7  UNL     1     116.560  42.534  69.295  1.00  0.00    -0.139 N 
HETATM   16  C5  UNL     1     116.891  41.829  68.220  1.00  0.00     0.374 A 
ATOM     17  H7  UNL     1     115.945  43.341  69.195  1.00  0.00     0.189 HD
HETATM   18  O2  UNL     1     116.412  42.215  67.119  1.00  0.00    -0.244 OA
BRANCH  13  19
HETATM   19  N6  UNL     1     116.703  42.879  71.553  1.00  0.00    -0.234 N 
ATOM     20  H62 UNL     1     117.382  43.067  72.290  1.00  0.00     0.174 HD
ATOM     21  H61 UNL     1     115.761  43.249  71.673  1.00  0.00     0.174 HD
ENDBRANCH  13  19
ENDBRANCH   5   7
TORSDOF 2
ENDMDL
MODEL 4
REMARK VINA RESULT: -6.274688066      4.663      5.609
REMARK  2 active torsions:
REMARK  status: ('A' for Active; 'I' for Inactive)
REMARK       I    between atoms: C2_3  and  N2_5 
REMARK    1  A    between atoms: N2_5  and  N3_7 
REMARK    2  A    between atoms: C4_14  and  N6_15 
ROOT
HETATM    1  N1  UNL     1     113.966  42.795  66.618  1.00  0.00    -0.186 NA
HETATM    2  C1  UNL     1     115.008  42.689  66.128  1.00  0.00     0.163 C 
HETATM    3  C2  UNL     1     116.337  42.527  65.498  1.00  0.00     0.341 C 
HETATM    4  O1  UNL     1     116.929  43.582  65.326  1.00  0.00    -0.254 OA
HETATM    5  N2  UNL     1     116.737  41.240  65.190  1.00  0.00    -0.232 N 
ATOM      6  H2  UNL     1     116.032  40.550  65.449  1.00  0.00     0.192 HD
ENDROOT
BRANCH   5   7
HETATM    7  N3  UNL     1     117.842  40.655  64.624  1.00  0.00    -0.027 N 
HETATM    8  C3  UNL     1     118.103  40.609  63.336  1.00  0.00     0.716 A 
HETATM    9  N4  UNL     1     117.337  41.115  62.453  1.00  0.00    -0.232 N 
HETATM   10  N5  UNL     1     119.254  39.985  62.917  1.00  0.00    -0.021 N 
ATOM     11  H42 UNL     1     116.483  41.578  62.765  1.00  0.00     0.174 HD
ATOM     12  H41 UNL     1     117.540  41.079  61.455  1.00  0.00     0.174 HD
HETATM   13  C4  UNL     1     120.117  39.425  63.764  1.00  0.00     0.694 A 
ATOM     14  H5  UNL     1     119.455  39.949  61.918  1.00  0.00     0.203 HD
HETATM   15  N7  UNL     1     119.830  39.484  65.075  1.00  0.00    -0.139 N 
HETATM   16  C5  UNL     1     118.726  40.080  65.509  1.00  0.00     0.374 A 
ATOM     17  H7  UNL     1     120.471  39.065  65.748  1.00  0.00     0.189 HD
HETATM   18  O2  UNL     1     118.539  40.087  66.757  1.00  0.00    -0.244 OA
BRANCH  13  19
HETATM   19  N6  UNL     1     121.182  38.851  63.340  1.00  0.00    -0.234 N 
ATOM     20  H62 UNL     1     121.141  38.091  62.662  1.00  0.00     0.174 HD
ATOM     21  H61 UNL     1     122.102  39.140  63.671  1.00  0.00     0.174 HD
ENDBRANCH  13  19
ENDBRANCH   5   7
TORSDOF 2
ENDMDL
MODEL 5
REMARK VINA RESULT: -6.251004700      3.412      5.476
REMARK  2 active torsions:
REMARK  status: ('A' for Active; 'I' for Inactive)
REMARK       I    between atoms: C2_3  and  N2_5 
REMARK    1  A    between atoms: N2_5  and  N3_7 
REMARK    2  A    between atoms: C4_14  and  N6_15 
ROOT
HETATM    1  N1  UNL     1     117.903  40.537  69.433  1.00  0.00    -0.186 NA
HETATM    2  C1  UNL     1     117.934  40.532  68.277  1.00  0.00     0.163 C 
HETATM    3  C2  UNL     1     117.993  40.507  66.799  1.00  0.00     0.341 C 
HETATM    4  O1  UNL     1     117.169  41.234  66.264  1.00  0.00    -0.254 OA
HETATM    5  N2  UNL     1     118.944  39.689  66.219  1.00  0.00    -0.232 N 
ATOM      6  H2  UNL     1     119.497  39.194  66.918  1.00  0.00     0.192 HD
ENDROOT
BRANCH   5   7
HETATM    7  N3  UNL     1     119.333  39.373  64.941  1.00  0.00    -0.027 N 
HETATM    8  C3  UNL     1     119.151  38.210  64.355  1.00  0.00     0.716 A 
HETATM    9  N4  UNL     1     118.580  37.226  64.928  1.00  0.00    -0.232 N 
HETATM   10  N5  UNL     1     119.598  38.042  63.066  1.00  0.00    -0.021 N 
ATOM     11  H42 UNL     1     118.249  37.351  65.884  1.00  0.00     0.174 HD
ATOM     12  H41 UNL     1     118.439  36.324  64.473  1.00  0.00     0.174 HD
HETATM   13  C4  UNL     1     120.207  39.011  62.385  1.00  0.00     0.694 A 
ATOM     14  H5  UNL     1     119.456  37.139  62.613  1.00  0.00     0.203 HD
HETATM   15  N7  UNL     1     120.382  40.191  63.002  1.00  0.00    -0.139 N 
HETATM   16  C5  UNL     1     119.962  40.383  64.247  1.00  0.00     0.374 A 
ATOM     17  H7  UNL     1     120.845  40.953  62.507  1.00  0.00     0.189 HD
HETATM   18  O2  UNL     1     120.169  41.522  64.746  1.00  0.00    -0.244 OA
BRANCH  13  19
HETATM   19  N6  UNL     1     120.611  38.822  61.183  1.00  0.00    -0.234 N 
ATOM     20  H62 UNL     1     121.540  38.449  60.988  1.00  0.00     0.174 HD
ATOM     21  H61 UNL     1     120.013  39.042  60.387  1.00  0.00     0.174 HD
ENDBRANCH  13  19
ENDBRANCH   5   7
TORSDOF 2
ENDMDL
