MODEL 1
REMARK VINA RESULT: -6.687710199      0.000      0.000
REMARK  1 active torsions:
REMARK  status: ('A' for Active; 'I' for Inactive)
REMARK       I    between atoms: C2_2  and  N1_4 
REMARK    1  A    between atoms: N1_4  and  N2_6 
ROOT
HETATM    1  N2  UNL     1     118.163  40.240  65.673  1.00  0.00    -0.284 N 
HETATM    2  C3  UNL     1     117.236  40.713  64.694  1.00  0.00     0.282 C 
HETATM    3  N3  UNL     1     118.044  41.518  63.769  1.00  0.00    -0.122 NA
HETATM    4  N4  UNL     1     119.050  40.808  63.190  1.00  0.00    -0.306 N 
ATOM      5  H4  UNL     1     119.246  40.893  62.192  1.00  0.00     0.178 HD
HETATM    6  C4  UNL     1     119.816  39.949  64.015  1.00  0.00     0.178 C 
HETATM    7  C5  UNL     1     120.445  38.905  63.097  1.00  0.00     0.189 C 
HETATM    8  N5  UNL     1     121.540  39.665  62.535  1.00  0.00    -0.126 NA
HETATM    9  N6  UNL     1     121.788  40.748  63.351  1.00  0.00    -0.037 NA
HETATM   10  N7  UNL     1     121.034  40.601  64.511  1.00  0.00    -0.090 NA
HETATM   11  C6  UNL     1     119.087  39.323  65.183  1.00  0.00     0.137 C 
ENDROOT
BRANCH   1  12
HETATM   12  N1  UNL     1     117.797  40.321  66.963  1.00  0.00    -0.268 N 
HETATM   13  C2  UNL     1     118.189  41.472  67.725  1.00  0.00     0.232 C 
HETATM   14  C1  UNL     1     117.821  41.654  69.153  1.00  0.00     0.119 C 
HETATM   15  O1  UNL     1     118.878  42.405  67.203  1.00  0.00    -0.272 OA
ATOM     16  H1  UNL     1     117.250  39.575  67.394  1.00  0.00     0.190 HD
ENDBRANCH   1  12
TORSDOF 1
ENDMDL
MODEL 2
REMARK VINA RESULT: -6.560920363      2.529      3.731
REMARK  1 active torsions:
REMARK  status: ('A' for Active; 'I' for Inactive)
REMARK       I    between atoms: C2_2  and  N1_4 
REMARK    1  A    between atoms: N1_4  and  N2_6 
ROOT
HETATM    1  N2  UNL     1     119.001  41.199  63.906  1.00  0.00    -0.284 N 
HETATM    2  C3  UNL     1     118.990  40.880  65.298  1.00  0.00     0.282 C 
HETATM    3  N3  UNL     1     118.371  39.550  65.374  1.00  0.00    -0.122 NA
HETATM    4  N4  UNL     1     119.047  38.610  64.660  1.00  0.00    -0.306 N 
ATOM      5  H4  UNL     1     119.227  37.684  65.048  1.00  0.00     0.178 HD
HETATM    6  C4  UNL     1     119.494  38.957  63.361  1.00  0.00     0.178 C 
HETATM    7  C5  UNL     1     120.645  38.013  63.026  1.00  0.00     0.189 C 
HETATM    8  N5  UNL     1     119.916  36.816  62.669  1.00  0.00    -0.126 NA
HETATM    9  N6  UNL     1     118.617  37.165  62.367  1.00  0.00    -0.037 NA
HETATM   10  N7  UNL     1     118.539  38.553  62.323  1.00  0.00    -0.090 NA
HETATM   11  C6  UNL     1     119.860  40.409  63.149  1.00  0.00     0.137 C 
ENDROOT
BRANCH   1  12
HETATM   12  N1  UNL     1     118.608  42.433  63.550  1.00  0.00    -0.268 N 
HETATM   13  C2  UNL     1     117.285  42.616  63.025  1.00  0.00     0.232 C 
HETATM   14  C1  UNL     1     116.758  43.944  62.616  1.00  0.00     0.119 C 
HETATM   15  O1  UNL     1     116.490  41.633  62.885  1.00  0.00    -0.272 OA
ATOM     16  H1  UNL     1     119.239  43.229  63.652  1.00  0.00     0.190 HD
ENDBRANCH   1  12
TORSDOF 1
ENDMDL
MODEL 3
REMARK VINA RESULT: -6.317354990      3.406      6.505
REMARK  1 active torsions:
REMARK  status: ('A' for Active; 'I' for Inactive)
REMARK       I    between atoms: C2_2  and  N1_4 
REMARK    1  A    between atoms: N1_4  and  N2_6 
ROOT
HETATM    1  N2  UNL     1     117.833  40.844  68.863  1.00  0.00    -0.284 N 
HETATM    2  C3  UNL     1     118.613  40.232  69.891  1.00  0.00     0.282 C 
HETATM    3  N3  UNL     1     119.425  41.323  70.446  1.00  0.00    -0.122 NA
HETATM    4  N4  UNL     1     118.674  42.344  70.940  1.00  0.00    -0.306 N 
ATOM      5  H4  UNL     1     118.899  42.775  71.837  1.00  0.00     0.178 HD
HETATM    6  C4  UNL     1     117.572  42.790  70.170  1.00  0.00     0.178 C 
HETATM    7  C5  UNL     1     116.616  43.486  71.135  1.00  0.00     0.189 C 
HETATM    8  N5  UNL     1     117.276  44.764  71.292  1.00  0.00    -0.126 NA
HETATM    9  N6  UNL     1     118.145  44.943  70.237  1.00  0.00    -0.037 NA
HETATM   10  N7  UNL     1     117.922  43.928  69.313  1.00  0.00    -0.090 NA
HETATM   11  C6  UNL     1     116.879  41.740  69.331  1.00  0.00     0.137 C 
ENDROOT
BRANCH   1  12
HETATM   12  N1  UNL     1     117.745  40.201  67.687  1.00  0.00    -0.268 N 
HETATM   13  C2  UNL     1     118.383  40.771  66.534  1.00  0.00     0.232 C 
HETATM   14  C1  UNL     1     118.350  40.127  65.195  1.00  0.00     0.119 C 
HETATM   15  O1  UNL     1     119.016  41.872  66.608  1.00  0.00    -0.272 OA
ATOM     16  H1  UNL     1     117.234  39.321  67.613  1.00  0.00     0.190 HD
ENDBRANCH   1  12
TORSDOF 1
ENDMDL
MODEL 4
REMARK VINA RESULT: -5.874202762      2.217      4.818
REMARK  1 active torsions:
REMARK  status: ('A' for Active; 'I' for Inactive)
REMARK       I    between atoms: C2_2  and  N1_4 
REMARK    1  A    between atoms: N1_4  and  N2_6 
ROOT
HETATM    1  N2  UNL     1     118.199  40.839  64.063  1.00  0.00    -0.284 N 
HETATM    2  C3  UNL     1     116.872  41.267  63.749  1.00  0.00     0.282 C 
HETATM    3  N3  UNL     1     116.071  40.904  64.924  1.00  0.00    -0.122 NA
HETATM    4  N4  UNL     1     116.517  41.487  66.070  1.00  0.00    -0.306 N 
ATOM      5  H4  UNL     1     115.866  41.907  66.734  1.00  0.00     0.178 HD
HETATM    6  C4  UNL     1     117.913  41.494  66.312  1.00  0.00     0.178 C 
HETATM    7  C5  UNL     1     118.183  42.635  67.288  1.00  0.00     0.189 C 
HETATM    8  N5  UNL     1     117.772  42.025  68.534  1.00  0.00    -0.126 NA
HETATM    9  N6  UNL     1     117.758  40.656  68.372  1.00  0.00    -0.037 NA
HETATM   10  N7  UNL     1     118.335  40.359  67.141  1.00  0.00    -0.090 NA
HETATM   11  C6  UNL     1     118.800  41.561  65.088  1.00  0.00     0.137 C 
ENDROOT
BRANCH   1  12
HETATM   12  N1  UNL     1     118.879  40.179  63.111  1.00  0.00    -0.268 N 
HETATM   13  C2  UNL     1     119.124  38.775  63.280  1.00  0.00     0.232 C 
HETATM   14  C1  UNL     1     119.857  37.960  62.276  1.00  0.00     0.119 C 
HETATM   15  O1  UNL     1     118.718  38.155  64.313  1.00  0.00    -0.272 OA
ATOM     16  H1  UNL     1     119.216  40.668  62.281  1.00  0.00     0.190 HD
ENDBRANCH   1  12
TORSDOF 1
ENDMDL
MODEL 5
REMARK VINA RESULT: -5.779413231      2.507      3.232
REMARK  1 active torsions:
REMARK  status: ('A' for Active; 'I' for Inactive)
REMARK       I    between atoms: C2_2  and  N1_4 
REMARK    1  A    between atoms: N1_4  and  N2_6 
ROOT
HETATM    1  N2  UNL     1     118.292  41.804  67.136  1.00  0.00    -0.284 N 
HETATM    2  C3  UNL     1     117.257  40.946  67.618  1.00  0.00     0.282 C 
HETATM    3  N3  UNL     1     116.166  41.091  66.646  1.00  0.00    -0.122 NA
HETATM    4  N4  UNL     1     116.535  40.753  65.381  1.00  0.00    -0.306 N 
ATOM      5  H4  UNL     1     115.929  40.180  64.792  1.00  0.00     0.178 HD
HETATM    6  C4  UNL     1     117.785  41.220  64.907  1.00  0.00     0.178 C 
HETATM    7  C5  UNL     1     118.199  40.290  63.770  1.00  0.00     0.189 C 
HETATM    8  N5  UNL     1     117.378  40.799  62.693  1.00  0.00    -0.126 NA
HETATM    9  N6  UNL     1     116.970  42.075  63.016  1.00  0.00    -0.037 NA
HETATM   10  N7  UNL     1     117.657  42.476  64.158  1.00  0.00    -0.090 NA
HETATM   11  C6  UNL     1     118.873  41.380  65.945  1.00  0.00     0.137 C 
ENDROOT
BRANCH   1  12
HETATM   12  N1  UNL     1     118.907  42.596  68.030  1.00  0.00    -0.268 N 
HETATM   13  C2  UNL     1     118.515  43.974  68.121  1.00  0.00     0.232 C 
HETATM   14  C1  UNL     1     119.129  44.922  69.087  1.00  0.00     0.119 C 
HETATM   15  O1  UNL     1     117.608  44.453  67.369  1.00  0.00    -0.272 OA
ATOM     16  H1  UNL     1     119.641  42.225  68.634  1.00  0.00     0.190 HD
ENDBRANCH   1  12
TORSDOF 1
ENDMDL
