MODEL 1
REMARK VINA RESULT: -5.596555462      0.000      0.000
REMARK  6 active torsions:
REMARK  status: ('A' for Active; 'I' for Inactive)
REMARK    1  A    between atoms: C2_2  and  O1_3 
REMARK    2  A    between atoms: C2_2  and  C3_5 
REMARK    3  A    between atoms: C2_2  and  N3_12 
REMARK    4  A    between atoms: C4_6  and  N1_7 
REMARK    5  A    between atoms: N1_7  and  N2_9 
REMARK    6  A    between atoms: N3_12  and  S1_14 
ROOT
HETATM    1  C1  UNL     1     117.596  40.786  63.026  1.00  0.00     0.087 C 
HETATM    2  C2  UNL     1     118.733  40.224  63.818  1.00  0.00     0.207 C 
ENDROOT
BRANCH   2   3
HETATM    3  O1  UNL     1     119.965  40.806  63.439  1.00  0.00    -0.360 OA
ATOM      4  H1  UNL     1     120.511  40.188  62.968  1.00  0.00     0.213 HD
ENDBRANCH   2   3
BRANCH   2   5
HETATM    5  C3  UNL     1     118.533  40.554  65.244  1.00  0.00    -0.021 C 
HETATM    6  C4  UNL     1     118.369  40.815  66.407  1.00  0.00     0.030 C 
BRANCH   6   7
HETATM    7  N1  UNL     1     118.172  41.103  67.762  1.00  0.00    -0.265 N 
ATOM      8  H1  UNL     1     117.993  42.073  68.021  1.00  0.00     0.197 HD
BRANCH   7   9
HETATM    9  N2  UNL     1     118.205  40.161  68.776  1.00  0.00    -0.338 N 
ATOM     10  H22 UNL     1     117.310  39.767  69.064  1.00  0.00     0.177 HD
ATOM     11  H21 UNL     1     119.056  39.843  69.241  1.00  0.00     0.177 HD
ENDBRANCH   7   9
ENDBRANCH   6   7
ENDBRANCH   2   5
BRANCH   2  12
HETATM   12  N3  UNL     1     118.781  38.806  63.684  1.00  0.00    -0.257 N 
ATOM     13  H3  UNL     1     118.108  38.165  64.102  1.00  0.00     0.179 HD
BRANCH  12  14
HETATM   14  S1  UNL     1     120.123  38.317  62.727  1.00  0.00     0.207 S 
HETATM   15  O2  UNL     1     119.968  38.845  61.318  1.00  0.00    -0.578 OA
HETATM   16  O3  UNL     1     121.446  38.709  63.304  1.00  0.00    -0.578 OA
HETATM   17  O4  UNL     1     120.076  36.618  62.645  1.00  0.00    -0.578 OA
ENDBRANCH  12  14
ENDBRANCH   2  12
TORSDOF 6
ENDMDL
MODEL 2
REMARK VINA RESULT: -5.556752331      0.103      1.274
REMARK  6 active torsions:
REMARK  status: ('A' for Active; 'I' for Inactive)
REMARK    1  A    between atoms: C2_2  and  O1_3 
REMARK    2  A    between atoms: C2_2  and  C3_5 
REMARK    3  A    between atoms: C2_2  and  N3_12 
REMARK    4  A    between atoms: C4_6  and  N1_7 
REMARK    5  A    between atoms: N1_7  and  N2_9 
REMARK    6  A    between atoms: N3_12  and  S1_14 
ROOT
HETATM    1  C1  UNL     1     117.617  40.680  63.071  1.00  0.00     0.087 C 
HETATM    2  C2  UNL     1     118.751  40.121  63.868  1.00  0.00     0.207 C 
ENDROOT
BRANCH   2   3
HETATM    3  O1  UNL     1     119.986  40.692  63.481  1.00  0.00    -0.360 OA
ATOM      4  H1  UNL     1     120.100  41.560  63.852  1.00  0.00     0.213 HD
ENDBRANCH   2   3
BRANCH   2   5
HETATM    5  C3  UNL     1     118.555  40.470  65.291  1.00  0.00    -0.021 C 
HETATM    6  C4  UNL     1     118.396  40.746  66.450  1.00  0.00     0.030 C 
BRANCH   6   7
HETATM    7  N1  UNL     1     118.208  41.050  67.803  1.00  0.00    -0.265 N 
ATOM      8  H1  UNL     1     118.034  42.023  68.052  1.00  0.00     0.197 HD
BRANCH   7   9
HETATM    9  N2  UNL     1     118.244  40.119  68.828  1.00  0.00    -0.338 N 
ATOM     10  H22 UNL     1     119.047  39.490  68.847  1.00  0.00     0.177 HD
ATOM     11  H21 UNL     1     117.530  40.029  69.551  1.00  0.00     0.177 HD
ENDBRANCH   7   9
ENDBRANCH   6   7
ENDBRANCH   2   5
BRANCH   2  12
HETATM   12  N3  UNL     1     118.792  38.702  63.751  1.00  0.00    -0.257 N 
ATOM     13  H3  UNL     1     118.159  38.066  64.236  1.00  0.00     0.179 HD
BRANCH  12  14
HETATM   14  S1  UNL     1     120.046  38.200  62.688  1.00  0.00     0.207 S 
HETATM   15  O2  UNL     1     120.071  36.691  62.600  1.00  0.00    -0.578 OA
HETATM   16  O3  UNL     1     119.960  38.816  61.328  1.00  0.00    -0.578 OA
HETATM   17  O4  UNL     1     121.515  38.697  63.390  1.00  0.00    -0.578 OA
ENDBRANCH  12  14
ENDBRANCH   2  12
TORSDOF 6
ENDMDL
MODEL 3
REMARK VINA RESULT: -5.302443103      1.902      2.054
REMARK  6 active torsions:
REMARK  status: ('A' for Active; 'I' for Inactive)
REMARK    1  A    between atoms: C2_2  and  O1_3 
REMARK    2  A    between atoms: C2_2  and  C3_5 
REMARK    3  A    between atoms: C2_2  and  N3_12 
REMARK    4  A    between atoms: C4_6  and  N1_7 
REMARK    5  A    between atoms: N1_7  and  N2_9 
REMARK    6  A    between atoms: N3_12  and  S1_14 
ROOT
HETATM    1  C1  UNL     1     120.162  40.457  64.320  1.00  0.00     0.087 C 
HETATM    2  C2  UNL     1     118.974  39.633  64.699  1.00  0.00     0.207 C 
ENDROOT
BRANCH   2   3
HETATM    3  O1  UNL     1     119.330  38.588  65.584  1.00  0.00    -0.360 OA
ATOM      4  H1  UNL     1     119.555  37.795  65.112  1.00  0.00     0.213 HD
ENDBRANCH   2   3
BRANCH   2   5
HETATM    5  C3  UNL     1     118.009  40.486  65.423  1.00  0.00    -0.021 C 
HETATM    6  C4  UNL     1     117.221  41.174  66.016  1.00  0.00     0.030 C 
BRANCH   6   7
HETATM    7  N1  UNL     1     116.295  41.961  66.709  1.00  0.00    -0.265 N 
ATOM      8  H1  UNL     1     115.913  42.778  66.232  1.00  0.00     0.197 HD
BRANCH   7   9
HETATM    9  N2  UNL     1     115.861  41.707  67.999  1.00  0.00    -0.338 N 
ATOM     10  H22 UNL     1     116.212  40.858  68.441  1.00  0.00     0.177 HD
ATOM     11  H21 UNL     1     115.225  42.309  68.524  1.00  0.00     0.177 HD
ENDBRANCH   7   9
ENDBRANCH   6   7
ENDBRANCH   2   5
BRANCH   2  12
HETATM   12  N3  UNL     1     118.335  39.114  63.536  1.00  0.00    -0.257 N 
ATOM     13  H3  UNL     1     117.590  39.590  63.028  1.00  0.00     0.179 HD
BRANCH  12  14
HETATM   14  S1  UNL     1     118.984  37.583  63.100  1.00  0.00     0.207 S 
HETATM   15  O2  UNL     1     118.423  37.149  61.764  1.00  0.00    -0.578 OA
HETATM   16  O3  UNL     1     120.479  37.546  63.091  1.00  0.00    -0.578 OA
HETATM   17  O4  UNL     1     118.445  36.469  64.267  1.00  0.00    -0.578 OA
ENDBRANCH  12  14
ENDBRANCH   2  12
TORSDOF 6
ENDMDL
MODEL 4
REMARK VINA RESULT: -5.218217114      1.391      1.987
REMARK  6 active torsions:
REMARK  status: ('A' for Active; 'I' for Inactive)
REMARK    1  A    between atoms: C2_2  and  O1_3 
REMARK    2  A    between atoms: C2_2  and  C3_5 
REMARK    3  A    between atoms: C2_2  and  N3_12 
REMARK    4  A    between atoms: C4_6  and  N1_7 
REMARK    5  A    between atoms: N1_7  and  N2_9 
REMARK    6  A    between atoms: N3_12  and  S1_14 
ROOT
HETATM    1  C1  UNL     1     120.189  41.215  63.672  1.00  0.00     0.087 C 
HETATM    2  C2  UNL     1     119.659  39.898  64.139  1.00  0.00     0.207 C 
ENDROOT
BRANCH   2   3
HETATM    3  O1  UNL     1     120.705  38.981  64.396  1.00  0.00    -0.360 OA
ATOM      4  H1  UNL     1     121.210  38.802  63.612  1.00  0.00     0.213 HD
ENDBRANCH   2   3
BRANCH   2   5
HETATM    5  C3  UNL     1     118.949  40.095  65.420  1.00  0.00    -0.021 C 
HETATM    6  C4  UNL     1     118.367  40.248  66.462  1.00  0.00     0.030 C 
BRANCH   6   7
HETATM    7  N1  UNL     1     117.678  40.415  67.669  1.00  0.00    -0.265 N 
ATOM      8  H1  UNL     1     116.735  40.799  67.628  1.00  0.00     0.197 HD
BRANCH   7   9
HETATM    9  N2  UNL     1     118.191  40.094  68.914  1.00  0.00    -0.338 N 
ATOM     10  H22 UNL     1     119.159  39.774  68.942  1.00  0.00     0.177 HD
ATOM     11  H21 UNL     1     117.668  40.157  69.788  1.00  0.00     0.177 HD
ENDBRANCH   7   9
ENDBRANCH   6   7
ENDBRANCH   2   5
BRANCH   2  12
HETATM   12  N3  UNL     1     118.740  39.364  63.190  1.00  0.00    -0.257 N 
ATOM     13  H3  UNL     1     118.041  39.915  62.693  1.00  0.00     0.179 HD
BRANCH  12  14
HETATM   14  S1  UNL     1     118.963  37.671  62.993  1.00  0.00     0.207 S 
HETATM   15  O2  UNL     1     118.596  36.952  64.272  1.00  0.00    -0.578 OA
HETATM   16  O3  UNL     1     118.220  37.101  61.827  1.00  0.00    -0.578 OA
HETATM   17  O4  UNL     1     120.623  37.420  62.722  1.00  0.00    -0.578 OA
ENDBRANCH  12  14
ENDBRANCH   2  12
TORSDOF 6
ENDMDL
MODEL 5
REMARK VINA RESULT: -5.209194326      1.979      2.195
REMARK  6 active torsions:
REMARK  status: ('A' for Active; 'I' for Inactive)
REMARK    1  A    between atoms: C2_2  and  O1_3 
REMARK    2  A    between atoms: C2_2  and  C3_5 
REMARK    3  A    between atoms: C2_2  and  N3_12 
REMARK    4  A    between atoms: C4_6  and  N1_7 
REMARK    5  A    between atoms: N1_7  and  N2_9 
REMARK    6  A    between atoms: N3_12  and  S1_14 
ROOT
HETATM    1  C1  UNL     1     120.018  40.927  64.891  1.00  0.00     0.087 C 
HETATM    2  C2  UNL     1     118.917  39.995  64.502  1.00  0.00     0.207 C 
ENDROOT
BRANCH   2   3
HETATM    3  O1  UNL     1     119.016  38.762  65.189  1.00  0.00    -0.360 OA
ATOM      4  H1  UNL     1     118.359  38.691  65.872  1.00  0.00     0.213 HD
ENDBRANCH   2   3
BRANCH   2   5
HETATM    5  C3  UNL     1     117.623  40.591  64.895  1.00  0.00    -0.021 C 
HETATM    6  C4  UNL     1     116.572  41.083  65.210  1.00  0.00     0.030 C 
BRANCH   6   7
HETATM    7  N1  UNL     1     115.352  41.669  65.568  1.00  0.00    -0.265 N 
ATOM      8  H1  UNL     1     114.564  41.553  64.932  1.00  0.00     0.197 HD
BRANCH   7   9
HETATM    9  N2  UNL     1     115.144  42.398  66.727  1.00  0.00    -0.338 N 
ATOM     10  H22 UNL     1     115.976  42.732  67.214  1.00  0.00     0.177 HD
ATOM     11  H21 UNL     1     114.226  42.614  67.116  1.00  0.00     0.177 HD
ENDBRANCH   7   9
ENDBRANCH   6   7
ENDBRANCH   2   5
BRANCH   2  12
HETATM   12  N3  UNL     1     118.911  39.790  63.093  1.00  0.00    -0.257 N 
ATOM     13  H3  UNL     1     118.291  40.274  62.443  1.00  0.00     0.179 HD
BRANCH  12  14
HETATM   14  S1  UNL     1     120.082  38.620  62.629  1.00  0.00     0.207 S 
HETATM   15  O2  UNL     1     120.280  38.658  61.130  1.00  0.00    -0.578 OA
HETATM   16  O3  UNL     1     121.387  38.762  63.345  1.00  0.00    -0.578 OA
HETATM   17  O4  UNL     1     119.438  37.095  63.022  1.00  0.00    -0.578 OA
ENDBRANCH  12  14
ENDBRANCH   2  12
TORSDOF 6
ENDMDL
