MODEL 1
REMARK VINA RESULT: -6.200065330      0.000      0.000
REMARK  3 active torsions:
REMARK  status: ('A' for Active; 'I' for Inactive)
REMARK    1  A    between atoms: N3_9  and  N4_10 
REMARK    2  A    between atoms: C4_15  and  C5_16 
REMARK       I    between atoms: C5_16  and  N6_18 
REMARK    3  A    between atoms: N6_18  and  N7_20 
ROOT
HETATM    1  N1  UNL     1     116.885  41.688  62.181  1.00  0.00    -0.384 N 
ATOM      2  H11 UNL     1     117.572  41.331  61.517  1.00  0.00     0.157 HD
ATOM      3  H12 UNL     1     116.130  42.282  61.837  1.00  0.00     0.157 HD
HETATM    4  C1  UNL     1     116.981  41.384  63.426  1.00  0.00     0.122 A 
HETATM    5  N2  UNL     1     116.060  41.862  64.315  1.00  0.00    -0.292 N 
ATOM      6  H2  UNL     1     115.311  42.456  63.957  1.00  0.00     0.172 HD
HETATM    7  C2  UNL     1     116.084  41.598  65.625  1.00  0.00     0.348 A 
HETATM    8  O1  UNL     1     115.202  42.072  66.393  1.00  0.00    -0.245 OA
HETATM    9  N3  UNL     1     117.065  40.819  66.106  1.00  0.00    -0.197 N 
HETATM   10  C3  UNL     1     117.979  40.337  65.263  1.00  0.00     0.162 A 
HETATM   11  N5  UNL     1     119.006  39.520  65.782  1.00  0.00    -0.079 NA
HETATM   12  C4  UNL     1     117.995  40.586  63.888  1.00  0.00     0.120 A 
ENDROOT
BRANCH  12  13
HETATM   13  C5  UNL     1     119.044  40.001  63.088  1.00  0.00     0.276 C 
HETATM   14  O2  UNL     1     118.720  39.075  62.253  1.00  0.00    -0.266 OA
HETATM   15  N6  UNL     1     120.393  40.361  63.146  1.00  0.00    -0.272 N 
ATOM     16  H6  UNL     1     120.722  41.086  63.783  1.00  0.00     0.189 HD
BRANCH  15  17
HETATM   17  N7  UNL     1     121.300  39.665  62.269  1.00  0.00    -0.342 N 
ATOM     18  H72 UNL     1     121.246  39.797  61.260  1.00  0.00     0.176 HD
ATOM     19  H71 UNL     1     121.985  39.046  62.701  1.00  0.00     0.176 HD
ENDBRANCH  15  17
ENDBRANCH  12  13
BRANCH   9  20
HETATM   20  N4  UNL     1     117.118  40.524  67.471  1.00  0.00    -0.333 N 
ATOM     21  H42 UNL     1     116.350  40.776  68.093  1.00  0.00     0.177 HD
ATOM     22  H41 UNL     1     117.933  40.050  67.859  1.00  0.00     0.177 HD
ENDBRANCH   9  20
TORSDOF 3
ENDMDL
MODEL 2
REMARK VINA RESULT: -6.188657666      4.017      5.662
REMARK  3 active torsions:
REMARK  status: ('A' for Active; 'I' for Inactive)
REMARK    1  A    between atoms: N3_9  and  N4_10 
REMARK    2  A    between atoms: C4_15  and  C5_16 
REMARK       I    between atoms: C5_16  and  N6_18 
REMARK    3  A    between atoms: N6_18  and  N7_20 
ROOT
HETATM    1  N1  UNL     1     118.562  39.619  69.621  1.00  0.00    -0.384 N 
ATOM      2  H11 UNL     1     118.234  39.068  68.828  1.00  0.00     0.157 HD
ATOM      3  H12 UNL     1     118.858  39.135  70.469  1.00  0.00     0.157 HD
HETATM    4  C1  UNL     1     118.596  40.901  69.538  1.00  0.00     0.122 A 
HETATM    5  N2  UNL     1     119.035  41.639  70.600  1.00  0.00    -0.292 N 
ATOM      6  H2  UNL     1     119.328  41.143  71.442  1.00  0.00     0.172 HD
HETATM    7  C2  UNL     1     119.103  42.975  70.601  1.00  0.00     0.348 A 
HETATM    8  O1  UNL     1     119.518  43.597  71.616  1.00  0.00    -0.245 OA
HETATM    9  N3  UNL     1     118.719  43.638  69.500  1.00  0.00    -0.197 N 
HETATM   10  C3  UNL     1     118.286  42.945  68.446  1.00  0.00     0.162 A 
HETATM   11  N5  UNL     1     117.885  43.655  67.294  1.00  0.00    -0.079 NA
HETATM   12  C4  UNL     1     118.198  41.551  68.399  1.00  0.00     0.120 A 
ENDROOT
BRANCH  12  13
HETATM   13  C5  UNL     1     117.710  40.926  67.194  1.00  0.00     0.276 C 
HETATM   14  O2  UNL     1     118.523  40.178  66.531  1.00  0.00    -0.266 OA
HETATM   15  N6  UNL     1     116.418  41.068  66.682  1.00  0.00    -0.272 N 
ATOM     16  H6  UNL     1     115.720  41.644  67.153  1.00  0.00     0.189 HD
BRANCH  15  17
HETATM   17  N7  UNL     1     116.110  40.366  65.462  1.00  0.00    -0.342 N 
ATOM     18  H72 UNL     1     116.817  39.790  65.005  1.00  0.00     0.176 HD
ATOM     19  H71 UNL     1     115.168  40.472  65.087  1.00  0.00     0.176 HD
ENDBRANCH  15  17
ENDBRANCH  12  13
BRANCH   9  20
HETATM   20  N4  UNL     1     118.778  45.034  69.469  1.00  0.00    -0.333 N 
ATOM     21  H42 UNL     1     119.344  45.521  68.774  1.00  0.00     0.177 HD
ATOM     22  H41 UNL     1     118.250  45.582  70.147  1.00  0.00     0.177 HD
ENDBRANCH   9  20
TORSDOF 3
ENDMDL
MODEL 3
REMARK VINA RESULT: -6.180791838      0.793      2.545
REMARK  3 active torsions:
REMARK  status: ('A' for Active; 'I' for Inactive)
REMARK    1  A    between atoms: N3_9  and  N4_10 
REMARK    2  A    between atoms: C4_15  and  C5_16 
REMARK       I    between atoms: C5_16  and  N6_18 
REMARK    3  A    between atoms: N6_18  and  N7_20 
ROOT
HETATM    1  N1  UNL     1     119.181  38.971  65.937  1.00  0.00    -0.384 N 
ATOM      2  H11 UNL     1     119.760  38.430  65.294  1.00  0.00     0.157 HD
ATOM      3  H12 UNL     1     119.277  38.811  66.940  1.00  0.00     0.157 HD
HETATM    4  C1  UNL     1     118.351  39.836  65.474  1.00  0.00     0.122 A 
HETATM    5  N2  UNL     1     117.576  40.561  66.335  1.00  0.00    -0.292 N 
ATOM      6  H2  UNL     1     117.682  40.391  67.335  1.00  0.00     0.172 HD
HETATM    7  C2  UNL     1     116.688  41.480  65.942  1.00  0.00     0.348 A 
HETATM    8  O1  UNL     1     116.002  42.116  66.789  1.00  0.00    -0.245 OA
HETATM    9  N3  UNL     1     116.540  41.711  64.628  1.00  0.00    -0.197 N 
HETATM   10  C3  UNL     1     117.283  41.018  63.763  1.00  0.00     0.162 A 
HETATM   11  N5  UNL     1     117.118  41.271  62.385  1.00  0.00    -0.079 NA
HETATM   12  C4  UNL     1     118.223  40.050  64.126  1.00  0.00     0.120 A 
ENDROOT
BRANCH  12  13
HETATM   13  C5  UNL     1     118.960  39.374  63.087  1.00  0.00     0.276 C 
HETATM   14  O2  UNL     1     118.523  38.231  62.684  1.00  0.00    -0.266 OA
HETATM   15  N6  UNL     1     120.119  39.861  62.478  1.00  0.00    -0.272 N 
ATOM     16  H6  UNL     1     120.523  40.759  62.746  1.00  0.00     0.189 HD
BRANCH  15  17
HETATM   17  N7  UNL     1     120.721  39.044  61.456  1.00  0.00    -0.342 N 
ATOM     18  H72 UNL     1     121.059  38.107  61.675  1.00  0.00     0.176 HD
ATOM     19  H71 UNL     1     120.791  39.443  60.520  1.00  0.00     0.176 HD
ENDBRANCH  15  17
ENDBRANCH  12  13
BRANCH   9  20
HETATM   20  N4  UNL     1     115.620  42.665  64.185  1.00  0.00    -0.333 N 
ATOM     21  H42 UNL     1     114.721  42.782  64.651  1.00  0.00     0.177 HD
ATOM     22  H41 UNL     1     115.844  43.256  63.385  1.00  0.00     0.177 HD
ENDBRANCH   9  20
TORSDOF 3
ENDMDL
MODEL 4
REMARK VINA RESULT: -6.079644525      3.613      6.192
REMARK  3 active torsions:
REMARK  status: ('A' for Active; 'I' for Inactive)
REMARK    1  A    between atoms: N3_9  and  N4_10 
REMARK    2  A    between atoms: C4_15  and  C5_16 
REMARK       I    between atoms: C5_16  and  N6_18 
REMARK    3  A    between atoms: N6_18  and  N7_20 
ROOT
HETATM    1  N1  UNL     1     118.482  39.722  69.517  1.00  0.00    -0.384 N 
ATOM      2  H11 UNL     1     118.569  40.008  70.493  1.00  0.00     0.157 HD
ATOM      3  H12 UNL     1     118.647  38.745  69.274  1.00  0.00     0.157 HD
HETATM    4  C1  UNL     1     118.170  40.589  68.622  1.00  0.00     0.122 A 
HETATM    5  N2  UNL     1     118.053  40.205  67.316  1.00  0.00    -0.292 N 
ATOM      6  H2  UNL     1     118.220  39.225  67.087  1.00  0.00     0.172 HD
HETATM    7  C2  UNL     1     117.733  41.039  66.321  1.00  0.00     0.348 A 
HETATM    8  O1  UNL     1     117.641  40.621  65.135  1.00  0.00    -0.245 OA
HETATM    9  N3  UNL     1     117.512  42.331  66.611  1.00  0.00    -0.197 N 
HETATM   10  C3  UNL     1     117.618  42.736  67.878  1.00  0.00     0.162 A 
HETATM   11  N5  UNL     1     117.383  44.096  68.169  1.00  0.00    -0.079 NA
HETATM   12  C4  UNL     1     117.950  41.902  68.949  1.00  0.00     0.120 A 
ENDROOT
BRANCH  12  13
HETATM   13  C5  UNL     1     118.031  42.470  70.272  1.00  0.00     0.276 C 
HETATM   14  O2  UNL     1     117.002  42.362  71.039  1.00  0.00    -0.266 OA
HETATM   15  N6  UNL     1     119.145  43.134  70.794  1.00  0.00    -0.272 N 
ATOM     16  H6  UNL     1     119.995  43.256  70.244  1.00  0.00     0.189 HD
BRANCH  15  17
HETATM   17  N7  UNL     1     119.043  43.637  72.140  1.00  0.00    -0.342 N 
ATOM     18  H72 UNL     1     118.747  43.024  72.900  1.00  0.00     0.176 HD
ATOM     19  H71 UNL     1     119.277  44.618  72.291  1.00  0.00     0.176 HD
ENDBRANCH  15  17
ENDBRANCH  12  13
BRANCH   9  20
HETATM   20  N4  UNL     1     117.175  43.228  65.594  1.00  0.00    -0.333 N 
ATOM     21  H42 UNL     1     117.596  43.154  64.668  1.00  0.00     0.177 HD
ATOM     22  H41 UNL     1     116.500  43.971  65.772  1.00  0.00     0.177 HD
ENDBRANCH   9  20
TORSDOF 3
ENDMDL
MODEL 5
REMARK VINA RESULT: -6.015164117      4.737      6.647
REMARK  3 active torsions:
REMARK  status: ('A' for Active; 'I' for Inactive)
REMARK    1  A    between atoms: N3_9  and  N4_10 
REMARK    2  A    between atoms: C4_15  and  C5_16 
REMARK       I    between atoms: C5_16  and  N6_18 
REMARK    3  A    between atoms: N6_18  and  N7_20 
ROOT
HETATM    1  N1  UNL     1     116.966  44.195  58.908  1.00  0.00    -0.384 N 
ATOM      2  H11 UNL     1     116.726  45.045  58.397  1.00  0.00     0.157 HD
ATOM      3  H12 UNL     1     117.519  43.478  58.439  1.00  0.00     0.157 HD
HETATM    4  C1  UNL     1     116.571  44.046  60.122  1.00  0.00     0.122 A 
HETATM    5  N2  UNL     1     116.893  42.909  60.806  1.00  0.00    -0.292 N 
ATOM      6  H2  UNL     1     117.446  42.199  60.325  1.00  0.00     0.172 HD
HETATM    7  C2  UNL     1     116.525  42.671  62.069  1.00  0.00     0.348 A 
HETATM    8  O1  UNL     1     116.855  41.598  62.644  1.00  0.00    -0.245 OA
HETATM    9  N3  UNL     1     115.796  43.597  62.711  1.00  0.00    -0.197 N 
HETATM   10  C3  UNL     1     115.466  44.718  62.069  1.00  0.00     0.162 A 
HETATM   11  N5  UNL     1     114.699  45.684  62.756  1.00  0.00    -0.079 NA
HETATM   12  C4  UNL     1     115.828  45.010  60.752  1.00  0.00     0.120 A 
ENDROOT
BRANCH  12  13
HETATM   13  C5  UNL     1     115.404  46.264  60.176  1.00  0.00     0.276 C 
HETATM   14  O2  UNL     1     116.287  47.190  60.033  1.00  0.00    -0.266 OA
HETATM   15  N6  UNL     1     114.103  46.556  59.759  1.00  0.00    -0.272 N 
ATOM     16  H6  UNL     1     113.352  45.871  59.841  1.00  0.00     0.189 HD
BRANCH  15  17
HETATM   17  N7  UNL     1     113.866  47.865  59.206  1.00  0.00    -0.342 N 
ATOM     18  H72 UNL     1     114.561  48.307  58.605  1.00  0.00     0.176 HD
ATOM     19  H71 UNL     1     112.983  48.319  59.442  1.00  0.00     0.176 HD
ENDBRANCH  15  17
ENDBRANCH  12  13
BRANCH   9  20
HETATM   20  N4  UNL     1     115.395  43.378  64.032  1.00  0.00    -0.333 N 
ATOM     21  H42 UNL     1     116.068  43.097  64.745  1.00  0.00     0.177 HD
ATOM     22  H41 UNL     1     114.417  43.499  64.295  1.00  0.00     0.177 HD
ENDBRANCH   9  20
TORSDOF 3
ENDMDL
