MODEL 1
REMARK VINA RESULT: -6.332234718      0.000      0.000
REMARK  3 active torsions:
REMARK  status: ('A' for Active; 'I' for Inactive)
REMARK    1  A    between atoms: N1_1  and  N2_4 
REMARK    2  A    between atoms: N2_4  and  N3_6 
REMARK    3  A    between atoms: C2_8  and  C3_9 
REMARK       I    between atoms: C3_9  and  N4_11 
REMARK       I    between atoms: N4_11  and  C4_13 
ROOT
HETATM    1  N3  UNL     1      76.568  20.118  91.556  1.00  0.00    -0.190 N 
HETATM    2  C1  UNL     1      77.728  19.409  91.542  1.00  0.00     0.161 A 
HETATM    3  C2  UNL     1      77.920  18.908  92.816  1.00  0.00     0.120 A 
HETATM    4  C5  UNL     1      76.852  19.333  93.585  1.00  0.00     0.278 A 
HETATM    5  O3  UNL     1      76.630  19.107  94.795  1.00  0.00    -0.266 OA
HETATM    6  N6  UNL     1      76.064  20.061  92.776  1.00  0.00    -0.243 N 
ATOM      7  H6  UNL     1      75.195  20.510  93.066  1.00  0.00     0.192 HD
ENDROOT
BRANCH   3   8
HETATM    8  C3  UNL     1      79.036  18.053  93.266  1.00  0.00     0.266 C 
HETATM    9  O1  UNL     1      79.293  17.069  92.524  1.00  0.00    -0.267 OA
HETATM   10  N4  UNL     1      79.748  18.351  94.454  1.00  0.00    -0.277 N 
HETATM   11  C4  UNL     1      80.827  17.562  94.891  1.00  0.00     0.335 C 
ATOM     12  H4  UNL     1      79.469  19.160  95.007  1.00  0.00     0.173 HD
HETATM   13  N5  UNL     1      81.539  17.892  96.090  1.00  0.00    -0.040 NA
HETATM   14  O2  UNL     1      81.180  16.547  94.215  1.00  0.00    -0.251 OA
ENDBRANCH   3   8
BRANCH   1  15
HETATM   15  N2  UNL     1      76.080  20.749  90.421  1.00  0.00    -0.228 N 
ATOM     16  H2  UNL     1      76.718  21.131  89.724  1.00  0.00     0.210 HD
BRANCH  15  17
HETATM   17  N1  UNL     1      74.707  20.850  90.255  1.00  0.00    -0.329 N 
ATOM     18  H12 UNL     1      74.084  20.538  90.999  1.00  0.00     0.178 HD
ATOM     19  H11 UNL     1      74.347  21.238  89.384  1.00  0.00     0.178 HD
ENDBRANCH  15  17
ENDBRANCH   1  15
TORSDOF 3
ENDMDL
MODEL 2
REMARK VINA RESULT: -6.291411583      1.006      1.041
REMARK  3 active torsions:
REMARK  status: ('A' for Active; 'I' for Inactive)
REMARK    1  A    between atoms: N1_1  and  N2_4 
REMARK    2  A    between atoms: N2_4  and  N3_6 
REMARK    3  A    between atoms: C2_8  and  C3_9 
REMARK       I    between atoms: C3_9  and  N4_11 
REMARK       I    between atoms: N4_11  and  C4_13 
ROOT
HETATM    1  N3  UNL     1      77.161  20.372  91.896  1.00  0.00    -0.190 N 
HETATM    2  C1  UNL     1      78.191  19.558  92.251  1.00  0.00     0.161 A 
HETATM    3  C2  UNL     1      77.801  18.870  93.385  1.00  0.00     0.120 A 
HETATM    4  C5  UNL     1      76.521  19.292  93.695  1.00  0.00     0.278 A 
HETATM    5  O3  UNL     1      75.794  18.925  94.644  1.00  0.00    -0.266 OA
HETATM    6  N6  UNL     1      76.181  20.199  92.766  1.00  0.00    -0.243 N 
ATOM      7  H6  UNL     1      75.286  20.690  92.735  1.00  0.00     0.192 HD
ENDROOT
BRANCH   3   8
HETATM    8  C3  UNL     1      78.588  17.853  94.110  1.00  0.00     0.266 C 
HETATM    9  O1  UNL     1      78.080  16.702  94.143  1.00  0.00    -0.267 OA
HETATM   10  N4  UNL     1      79.825  18.185  94.714  1.00  0.00    -0.277 N 
HETATM   11  C4  UNL     1      80.602  17.229  95.393  1.00  0.00     0.335 C 
ATOM     12  H4  UNL     1      80.163  19.146  94.654  1.00  0.00     0.173 HD
HETATM   13  N5  UNL     1      81.856  17.588  95.984  1.00  0.00    -0.040 NA
HETATM   14  O2  UNL     1      80.189  16.031  95.482  1.00  0.00    -0.251 OA
ENDBRANCH   3   8
BRANCH   1  15
HETATM   15  N2  UNL     1      77.228  21.199  90.785  1.00  0.00    -0.228 N 
ATOM     16  H2  UNL     1      78.121  21.585  90.477  1.00  0.00     0.210 HD
BRANCH  15  17
HETATM   17  N1  UNL     1      76.058  21.490  90.101  1.00  0.00    -0.329 N 
ATOM     18  H12 UNL     1      75.460  20.731  89.777  1.00  0.00     0.178 HD
ATOM     19  H11 UNL     1      75.819  22.467  89.935  1.00  0.00     0.178 HD
ENDBRANCH  15  17
ENDBRANCH   1  15
TORSDOF 3
ENDMDL
MODEL 3
REMARK VINA RESULT: -6.273780230      1.544      1.630
REMARK  3 active torsions:
REMARK  status: ('A' for Active; 'I' for Inactive)
REMARK    1  A    between atoms: N1_1  and  N2_4 
REMARK    2  A    between atoms: N2_4  and  N3_6 
REMARK    3  A    between atoms: C2_8  and  C3_9 
REMARK       I    between atoms: C3_9  and  N4_11 
REMARK       I    between atoms: N4_11  and  C4_13 
ROOT
HETATM    1  N3  UNL     1      77.033  20.715  91.503  1.00  0.00    -0.190 N 
HETATM    2  C1  UNL     1      77.121  19.421  91.911  1.00  0.00     0.161 A 
HETATM    3  C2  UNL     1      77.985  19.386  92.988  1.00  0.00     0.120 A 
HETATM    4  C5  UNL     1      78.408  20.683  93.211  1.00  0.00     0.278 A 
HETATM    5  O3  UNL     1      79.197  21.101  94.088  1.00  0.00    -0.266 OA
HETATM    6  N6  UNL     1      77.805  21.447  92.287  1.00  0.00    -0.243 N 
ATOM      7  H6  UNL     1      77.926  22.457  92.201  1.00  0.00     0.192 HD
ENDROOT
BRANCH   3   8
HETATM    8  C3  UNL     1      78.362  18.195  93.774  1.00  0.00     0.266 C 
HETATM    9  O1  UNL     1      77.425  17.390  94.016  1.00  0.00    -0.267 OA
HETATM   10  N4  UNL     1      79.697  18.003  94.210  1.00  0.00    -0.277 N 
HETATM   11  C4  UNL     1      80.084  16.866  94.943  1.00  0.00     0.335 C 
ATOM     12  H4  UNL     1      80.397  18.709  93.985  1.00  0.00     0.173 HD
HETATM   13  N5  UNL     1      81.442  16.690  95.360  1.00  0.00    -0.040 NA
HETATM   14  O2  UNL     1      79.220  15.982  95.236  1.00  0.00    -0.251 OA
ENDBRANCH   3   8
BRANCH   1  15
HETATM   15  N2  UNL     1      76.232  21.096  90.437  1.00  0.00    -0.228 N 
ATOM     16  H2  UNL     1      76.616  21.644  89.667  1.00  0.00     0.210 HD
BRANCH  15  17
HETATM   17  N1  UNL     1      74.899  20.716  90.437  1.00  0.00    -0.329 N 
ATOM     18  H12 UNL     1      74.637  19.792  90.778  1.00  0.00     0.178 HD
ATOM     19  H11 UNL     1      74.202  21.376  90.093  1.00  0.00     0.178 HD
ENDBRANCH  15  17
ENDBRANCH   1  15
TORSDOF 3
ENDMDL
MODEL 4
REMARK VINA RESULT: -6.199258504      4.728      5.759
REMARK  3 active torsions:
REMARK  status: ('A' for Active; 'I' for Inactive)
REMARK    1  A    between atoms: N1_1  and  N2_4 
REMARK    2  A    between atoms: N2_4  and  N3_6 
REMARK    3  A    between atoms: C2_8  and  C3_9 
REMARK       I    between atoms: C3_9  and  N4_11 
REMARK       I    between atoms: N4_11  and  C4_13 
ROOT
HETATM    1  N3  UNL     1      74.598  21.586  89.371  1.00  0.00    -0.190 N 
HETATM    2  C1  UNL     1      75.737  21.788  88.656  1.00  0.00     0.161 A 
HETATM    3  C2  UNL     1      76.745  21.076  89.278  1.00  0.00     0.120 A 
HETATM    4  C5  UNL     1      76.183  20.449  90.374  1.00  0.00     0.278 A 
HETATM    5  O3  UNL     1      76.740  19.705  91.212  1.00  0.00    -0.266 OA
HETATM    6  N6  UNL     1      74.884  20.790  90.386  1.00  0.00    -0.243 N 
ATOM      7  H6  UNL     1      74.209  20.478  91.085  1.00  0.00     0.192 HD
ENDROOT
BRANCH   3   8
HETATM    8  C3  UNL     1      78.151  20.975  88.838  1.00  0.00     0.266 C 
HETATM    9  O1  UNL     1      78.904  20.304  89.590  1.00  0.00    -0.267 OA
HETATM   10  N4  UNL     1      78.586  21.603  87.645  1.00  0.00    -0.277 N 
HETATM   11  C4  UNL     1      79.915  21.505  87.195  1.00  0.00     0.335 C 
ATOM     12  H4  UNL     1      77.916  22.142  87.096  1.00  0.00     0.173 HD
HETATM   13  N5  UNL     1      80.327  22.139  85.979  1.00  0.00    -0.040 NA
HETATM   14  O2  UNL     1      80.762  20.844  87.873  1.00  0.00    -0.251 OA
ENDBRANCH   3   8
BRANCH   1  15
HETATM   15  N2  UNL     1      73.390  22.161  89.005  1.00  0.00    -0.228 N 
ATOM     16  H2  UNL     1      72.982  22.914  89.561  1.00  0.00     0.210 HD
BRANCH  15  17
HETATM   17  N1  UNL     1      72.748  21.694  87.869  1.00  0.00    -0.329 N 
ATOM     18  H12 UNL     1      72.929  22.135  86.968  1.00  0.00     0.178 HD
ATOM     19  H11 UNL     1      72.102  20.910  87.960  1.00  0.00     0.178 HD
ENDBRANCH  15  17
ENDBRANCH   1  15
TORSDOF 3
ENDMDL
MODEL 5
REMARK VINA RESULT: -6.179978337      1.452      2.160
REMARK  3 active torsions:
REMARK  status: ('A' for Active; 'I' for Inactive)
REMARK    1  A    between atoms: N1_1  and  N2_4 
REMARK    2  A    between atoms: N2_4  and  N3_6 
REMARK    3  A    between atoms: C2_8  and  C3_9 
REMARK       I    between atoms: C3_9  and  N4_11 
REMARK       I    between atoms: N4_11  and  C4_13 
ROOT
HETATM    1  N3  UNL     1      77.429  20.277  91.064  1.00  0.00    -0.190 N 
HETATM    2  C1  UNL     1      77.261  19.496  92.164  1.00  0.00     0.161 A 
HETATM    3  C2  UNL     1      78.456  18.841  92.391  1.00  0.00     0.120 A 
HETATM    4  C5  UNL     1      79.335  19.247  91.405  1.00  0.00     0.278 A 
HETATM    5  O3  UNL     1      80.525  18.899  91.236  1.00  0.00    -0.266 OA
HETATM    6  N6  UNL     1      78.666  20.115  90.628  1.00  0.00    -0.243 N 
ATOM      7  H6  UNL     1      79.059  20.584  89.811  1.00  0.00     0.192 HD
ENDROOT
BRANCH   3   8
HETATM    8  C3  UNL     1      78.751  17.907  93.496  1.00  0.00     0.266 C 
HETATM    9  O1  UNL     1      77.763  17.262  93.934  1.00  0.00    -0.267 OA
HETATM   10  N4  UNL     1      80.067  17.771  94.002  1.00  0.00    -0.277 N 
HETATM   11  C4  UNL     1      80.376  16.874  95.040  1.00  0.00     0.335 C 
ATOM     12  H4  UNL     1      80.812  18.340  93.601  1.00  0.00     0.173 HD
HETATM   13  N5  UNL     1      81.717  16.746  95.525  1.00  0.00    -0.040 NA
HETATM   14  O2  UNL     1      79.455  16.165  95.553  1.00  0.00    -0.251 OA
ENDBRANCH   3   8
BRANCH   1  15
HETATM   15  N2  UNL     1      76.410  21.078  90.569  1.00  0.00    -0.228 N 
ATOM     16  H2  UNL     1      76.606  22.023  90.237  1.00  0.00     0.210 HD
BRANCH  15  17
HETATM   17  N1  UNL     1      75.122  20.569  90.534  1.00  0.00    -0.329 N 
ATOM     18  H12 UNL     1      74.974  19.580  90.335  1.00  0.00     0.178 HD
ATOM     19  H11 UNL     1      74.341  21.201  90.709  1.00  0.00     0.178 HD
ENDBRANCH  15  17
ENDBRANCH   1  15
TORSDOF 3
ENDMDL
