MODEL 1
REMARK VINA RESULT: -6.023114172      0.000      0.000
REMARK  4 active torsions:
REMARK  status: ('A' for Active; 'I' for Inactive)
REMARK    1  A    between atoms: O1_2  and  C2_3 
REMARK    2  A    between atoms: C2_3  and  N1_4 
REMARK    3  A    between atoms: N4_11  and  N5_12 
REMARK    4  A    between atoms: C4_15  and  N6_16 
ROOT
HETATM    1  N1  UNL     1      75.801  20.684  89.980  1.00  0.00    -0.083 N 
HETATM    2  N2  UNL     1      74.604  21.288  90.092  1.00  0.00    -0.112 N 
ATOM      3  H2  UNL     1      74.119  21.487  90.967  1.00  0.00     0.206 HD
HETATM    4  C3  UNL     1      74.150  21.586  88.862  1.00  0.00     0.727 A 
HETATM    5  N3  UNL     1      73.040  22.167  88.598  1.00  0.00    -0.231 N 
ATOM      6  H31 UNL     1      72.696  22.393  87.665  1.00  0.00     0.174 HD
ATOM      7  H32 UNL     1      72.358  22.477  89.289  1.00  0.00     0.174 HD
HETATM    8  N4  UNL     1      75.051  21.177  87.950  1.00  0.00     0.086 N 
HETATM    9  C4  UNL     1      76.053  20.627  88.660  1.00  0.00     0.740 A 
ENDROOT
BRANCH   9  10
HETATM   10  N6  UNL     1      77.204  20.056  88.036  1.00  0.00    -0.154 N 
HETATM   11  C5  UNL     1      78.285  20.737  87.886  1.00  0.00     0.228 A 
HETATM   12  N7  UNL     1      79.609  20.780  87.420  1.00  0.00    -0.267 N 
HETATM   13  N8  UNL     1      79.049  21.949  88.041  1.00  0.00    -0.267 N 
ATOM     14  H7  UNL     1      80.397  20.317  86.967  1.00  0.00     0.190 HD
ATOM     15  H8  UNL     1      79.132  22.916  88.357  1.00  0.00     0.190 HD
ATOM     16  H6  UNL     1      77.168  19.093  87.703  1.00  0.00     0.187 HD
ENDBRANCH   9  10
BRANCH   1  17
HETATM   17  C2  UNL     1      76.600  20.233  91.098  1.00  0.00     0.335 C 
BRANCH  17  18
HETATM   18  O1  UNL     1      77.294  19.107  90.792  1.00  0.00    -0.374 OA
HETATM   19  C1  UNL     1      78.501  18.946  91.431  1.00  0.00     0.203 C 
ENDBRANCH  17  18
ENDBRANCH   1  17
BRANCH   8  20
HETATM   20  N5  UNL     1      74.962  21.300  86.542  1.00  0.00    -0.309 N 
ATOM     21  H52 UNL     1      75.374  20.684  85.841  1.00  0.00     0.178 HD
ATOM     22  H51 UNL     1      74.473  22.023  86.014  1.00  0.00     0.178 HD
ENDBRANCH   8  20
TORSDOF 4
ENDMDL
MODEL 2
REMARK VINA RESULT: -5.965877516      2.208      3.443
REMARK  4 active torsions:
REMARK  status: ('A' for Active; 'I' for Inactive)
REMARK    1  A    between atoms: O1_2  and  C2_3 
REMARK    2  A    between atoms: C2_3  and  N1_4 
REMARK    3  A    between atoms: N4_11  and  N5_12 
REMARK    4  A    between atoms: C4_15  and  N6_16 
ROOT
HETATM    1  N1  UNL     1      76.898  21.757  88.174  1.00  0.00    -0.083 N 
HETATM    2  N2  UNL     1      75.967  21.137  87.426  1.00  0.00    -0.112 N 
ATOM      3  H2  UNL     1      75.967  21.079  86.407  1.00  0.00     0.206 HD
HETATM    4  C3  UNL     1      75.037  20.606  88.239  1.00  0.00     0.727 A 
HETATM    5  N3  UNL     1      74.008  19.944  87.862  1.00  0.00    -0.231 N 
ATOM      6  H31 UNL     1      73.303  19.542  88.479  1.00  0.00     0.174 HD
ATOM      7  H32 UNL     1      73.763  19.737  86.894  1.00  0.00     0.174 HD
HETATM    8  N4  UNL     1      75.362  20.880  89.515  1.00  0.00     0.086 N 
HETATM    9  C4  UNL     1      76.505  21.587  89.449  1.00  0.00     0.740 A 
ENDROOT
BRANCH   9  10
HETATM   10  N6  UNL     1      77.163  22.082  90.616  1.00  0.00    -0.154 N 
HETATM   11  C5  UNL     1      77.969  21.338  91.290  1.00  0.00     0.228 A 
HETATM   12  N7  UNL     1      78.833  21.213  92.389  1.00  0.00    -0.267 N 
HETATM   13  N8  UNL     1      78.651  20.089  91.513  1.00  0.00    -0.267 N 
ATOM     14  H7  UNL     1      79.273  21.624  93.213  1.00  0.00     0.190 HD
ATOM     15  H8  UNL     1      78.853  19.124  91.248  1.00  0.00     0.190 HD
ATOM     16  H6  UNL     1      76.991  23.039  90.921  1.00  0.00     0.187 HD
ENDBRANCH   9  10
BRANCH   1  17
HETATM   17  C2  UNL     1      78.061  22.432  87.643  1.00  0.00     0.335 C 
BRANCH  17  18
HETATM   18  O1  UNL     1      79.205  21.978  88.215  1.00  0.00    -0.374 OA
HETATM   19  C1  UNL     1      79.739  20.830  87.675  1.00  0.00     0.203 C 
ENDBRANCH  17  18
ENDBRANCH   1  17
BRANCH   8  20
HETATM   20  N5  UNL     1      74.651  20.504  90.681  1.00  0.00    -0.309 N 
ATOM     21  H52 UNL     1      73.657  20.638  90.869  1.00  0.00     0.178 HD
ATOM     22  H51 UNL     1      75.023  20.042  91.510  1.00  0.00     0.178 HD
ENDBRANCH   8  20
TORSDOF 4
ENDMDL
MODEL 3
REMARK VINA RESULT: -5.955815082      1.980      3.995
REMARK  4 active torsions:
REMARK  status: ('A' for Active; 'I' for Inactive)
REMARK    1  A    between atoms: O1_2  and  C2_3 
REMARK    2  A    between atoms: C2_3  and  N1_4 
REMARK    3  A    between atoms: N4_11  and  N5_12 
REMARK    4  A    between atoms: C4_15  and  N6_16 
ROOT
HETATM    1  N1  UNL     1      77.944  20.706  89.311  1.00  0.00    -0.083 N 
HETATM    2  N2  UNL     1      78.022  20.366  90.611  1.00  0.00    -0.112 N 
ATOM      3  H2  UNL     1      78.878  20.122  91.110  1.00  0.00     0.206 HD
HETATM    4  C3  UNL     1      76.789  20.401  91.145  1.00  0.00     0.727 A 
HETATM    5  N3  UNL     1      76.497  20.135  92.363  1.00  0.00    -0.231 N 
ATOM      6  H31 UNL     1      75.562  20.162  92.768  1.00  0.00     0.174 HD
ATOM      7  H32 UNL     1      77.165  19.861  93.083  1.00  0.00     0.174 HD
HETATM    8  N4  UNL     1      75.909  20.764  90.195  1.00  0.00     0.086 N 
HETATM    9  C4  UNL     1      76.640  20.943  89.080  1.00  0.00     0.740 A 
ENDROOT
BRANCH   9  10
HETATM   10  N6  UNL     1      76.051  21.322  87.836  1.00  0.00    -0.154 N 
HETATM   11  C5  UNL     1      75.175  20.575  87.260  1.00  0.00     0.228 A 
HETATM   12  N7  UNL     1      74.313  20.377  86.170  1.00  0.00    -0.267 N 
HETATM   13  N8  UNL     1      74.364  19.385  87.209  1.00  0.00    -0.267 N 
ATOM     14  H7  UNL     1      73.928  20.702  85.283  1.00  0.00     0.190 HD
ATOM     15  H8  UNL     1      74.056  18.499  87.610  1.00  0.00     0.190 HD
ATOM     16  H6  UNL     1      76.329  22.199  87.396  1.00  0.00     0.187 HD
ENDBRANCH   9  10
BRANCH   1  17
HETATM   17  C2  UNL     1      79.076  20.791  88.416  1.00  0.00     0.335 C 
BRANCH  17  18
HETATM   18  O1  UNL     1      79.032  21.920  87.663  1.00  0.00    -0.374 OA
HETATM   19  C1  UNL     1      80.085  22.115  86.800  1.00  0.00     0.203 C 
ENDBRANCH  17  18
ENDBRANCH   1  17
BRANCH   8  20
HETATM   20  N5  UNL     1      74.508  20.922  90.339  1.00  0.00    -0.309 N 
ATOM     21  H52 UNL     1      74.017  21.683  90.806  1.00  0.00     0.178 HD
ATOM     22  H51 UNL     1      73.778  20.298  89.996  1.00  0.00     0.178 HD
ENDBRANCH   8  20
TORSDOF 4
ENDMDL
MODEL 4
REMARK VINA RESULT: -5.789441389      2.290      3.662
REMARK  4 active torsions:
REMARK  status: ('A' for Active; 'I' for Inactive)
REMARK    1  A    between atoms: O1_2  and  C2_3 
REMARK    2  A    between atoms: C2_3  and  N1_4 
REMARK    3  A    between atoms: N4_11  and  N5_12 
REMARK    4  A    between atoms: C4_15  and  N6_16 
ROOT
HETATM    1  N1  UNL     1      75.409  20.709  88.260  1.00  0.00    -0.083 N 
HETATM    2  N2  UNL     1      75.058  20.119  89.417  1.00  0.00    -0.112 N 
ATOM      3  H2  UNL     1      74.300  19.446  89.534  1.00  0.00     0.206 HD
HETATM    4  C3  UNL     1      75.867  20.562  90.395  1.00  0.00     0.727 A 
HETATM    5  N3  UNL     1      75.815  20.206  91.624  1.00  0.00    -0.231 N 
ATOM      6  H31 UNL     1      76.429  20.542  92.365  1.00  0.00     0.174 HD
ATOM      7  H32 UNL     1      75.150  19.541  92.017  1.00  0.00     0.174 HD
HETATM    8  N4  UNL     1      76.745  21.439  89.875  1.00  0.00     0.086 N 
HETATM    9  C4  UNL     1      76.443  21.513  88.566  1.00  0.00     0.740 A 
ENDROOT
BRANCH   9  10
HETATM   10  N6  UNL     1      77.154  22.366  87.668  1.00  0.00    -0.154 N 
HETATM   11  C5  UNL     1      78.333  22.059  87.252  1.00  0.00     0.228 A 
HETATM   12  N7  UNL     1      79.443  22.403  86.465  1.00  0.00    -0.267 N 
HETATM   13  N8  UNL     1      79.472  21.178  87.216  1.00  0.00    -0.267 N 
ATOM     14  H7  UNL     1      79.900  23.053  85.825  1.00  0.00     0.190 HD
ATOM     15  H8  UNL     1      79.946  20.322  87.506  1.00  0.00     0.190 HD
ATOM     16  H6  UNL     1      76.721  23.233  87.351  1.00  0.00     0.187 HD
ENDBRANCH   9  10
BRANCH   1  17
HETATM   17  C2  UNL     1      74.769  20.465  86.987  1.00  0.00     0.335 C 
BRANCH  17  18
HETATM   18  O1  UNL     1      74.248  21.605  86.464  1.00  0.00    -0.374 OA
HETATM   19  C1  UNL     1      73.258  22.213  87.202  1.00  0.00     0.203 C 
ENDBRANCH  17  18
ENDBRANCH   1  17
BRANCH   8  20
HETATM   20  N5  UNL     1      77.769  22.136  90.562  1.00  0.00    -0.309 N 
ATOM     21  H52 UNL     1      77.913  22.187  91.570  1.00  0.00     0.178 HD
ATOM     22  H51 UNL     1      78.518  22.694  90.152  1.00  0.00     0.178 HD
ENDBRANCH   8  20
TORSDOF 4
ENDMDL
MODEL 5
REMARK VINA RESULT: -5.623282032      4.423      6.132
REMARK  4 active torsions:
REMARK  status: ('A' for Active; 'I' for Inactive)
REMARK    1  A    between atoms: O1_2  and  C2_3 
REMARK    2  A    between atoms: C2_3  and  N1_4 
REMARK    3  A    between atoms: N4_11  and  N5_12 
REMARK    4  A    between atoms: C4_15  and  N6_16 
ROOT
HETATM    1  N1  UNL     1      79.072  19.462  92.463  1.00  0.00    -0.083 N 
HETATM    2  N2  UNL     1      78.291  20.024  91.522  1.00  0.00    -0.112 N 
ATOM      3  H2  UNL     1      78.611  20.380  90.621  1.00  0.00     0.206 HD
HETATM    4  C3  UNL     1      77.021  20.040  91.962  1.00  0.00     0.727 A 
HETATM    5  N3  UNL     1      76.016  20.503  91.319  1.00  0.00    -0.231 N 
ATOM      6  H31 UNL     1      75.052  20.516  91.653  1.00  0.00     0.174 HD
ATOM      7  H32 UNL     1      76.052  20.921  90.389  1.00  0.00     0.174 HD
HETATM    8  N4  UNL     1      76.974  19.489  93.188  1.00  0.00     0.086 N 
HETATM    9  C4  UNL     1      78.243  19.144  93.474  1.00  0.00     0.740 A 
ENDROOT
BRANCH   9  10
HETATM   10  N6  UNL     1      78.606  18.535  94.714  1.00  0.00    -0.154 N 
HETATM   11  C5  UNL     1      78.913  17.287  94.777  1.00  0.00     0.228 A 
HETATM   12  N7  UNL     1      79.311  16.199  95.570  1.00  0.00    -0.267 N 
HETATM   13  N8  UNL     1      79.109  15.999  94.161  1.00  0.00    -0.267 N 
ATOM     14  H7  UNL     1      79.562  15.823  96.484  1.00  0.00     0.190 HD
ATOM     15  H8  UNL     1      79.107  15.396  93.338  1.00  0.00     0.190 HD
ATOM     16  H6  UNL     1      78.621  19.099  95.563  1.00  0.00     0.187 HD
ENDBRANCH   9  10
BRANCH   1  17
HETATM   17  C2  UNL     1      80.498  19.260  92.334  1.00  0.00     0.335 C 
BRANCH  17  18
HETATM   18  O1  UNL     1      81.150  19.567  93.484  1.00  0.00    -0.374 OA
HETATM   19  C1  UNL     1      81.592  20.864  93.604  1.00  0.00     0.203 C 
ENDBRANCH  17  18
ENDBRANCH   1  17
BRANCH   8  20
HETATM   20  N5  UNL     1      75.831  19.311  94.006  1.00  0.00    -0.309 N 
ATOM     21  H52 UNL     1      75.013  19.919  94.066  1.00  0.00     0.178 HD
ATOM     22  H51 UNL     1      75.650  18.549  94.658  1.00  0.00     0.178 HD
ENDBRANCH   8  20
TORSDOF 4
ENDMDL
