MODEL 1
REMARK VINA RESULT: -6.571030914      0.000      0.000
REMARK  4 active torsions:
REMARK  status: ('A' for Active; 'I' for Inactive)
REMARK    1  A    between atoms: N1_1  and  C1_4 
REMARK    2  A    between atoms: N5_9  and  C2_10 
REMARK    3  A    between atoms: C2_10  and  C3_11 
REMARK       I    between atoms: C3_11  and  N6_13 
REMARK    4  A    between atoms: N6_13  and  N7_15 
REMARK       I    between atoms: N7_15  and  C4_17 
ROOT
HETATM    1  C2  UNL     1      75.613  20.080  88.856  1.00  0.00     0.269 C 
ENDROOT
BRANCH   1   2
HETATM    2  N5  UNL     1      74.655  21.113  88.439  1.00  0.00    -0.100 N 
HETATM    3  C1  UNL     1      74.131  21.309  87.220  1.00  0.00     0.704 A 
HETATM    4  N2  UNL     1      73.268  22.361  87.219  1.00  0.00    -0.117 N 
HETATM    5  N3  UNL     1      73.280  22.805  88.479  1.00  0.00     0.007 NA
ATOM      6  H2  UNL     1      72.732  22.729  86.434  1.00  0.00     0.202 HD
HETATM    7  N4  UNL     1      74.113  22.056  89.214  1.00  0.00     0.009 NA
BRANCH   3   8
HETATM    8  N1  UNL     1      74.407  20.596  86.183  1.00  0.00    -0.232 N 
ATOM      9  H12 UNL     1      74.745  19.634  86.217  1.00  0.00     0.174 HD
ATOM     10  H11 UNL     1      74.317  20.921  85.221  1.00  0.00     0.174 HD
ENDBRANCH   3   8
ENDBRANCH   1   2
BRANCH   1  11
HETATM   11  C3  UNL     1      76.446  20.572  89.978  1.00  0.00     0.256 C 
HETATM   12  O1  UNL     1      77.521  21.183  89.701  1.00  0.00    -0.270 OA
HETATM   13  N6  UNL     1      76.068  20.371  91.310  1.00  0.00    -0.265 N 
ATOM     14  H6  UNL     1      75.209  19.877  91.552  1.00  0.00     0.190 HD
BRANCH  13  15
HETATM   15  N7  UNL     1      76.933  20.884  92.306  1.00  0.00    -0.251 N 
HETATM   16  C4  UNL     1      77.833  20.015  92.947  1.00  0.00     0.347 C 
HETATM   17  N8  UNL     1      78.690  20.521  93.945  1.00  0.00    -0.038 NA
HETATM   18  O2  UNL     1      77.874  18.811  92.641  1.00  0.00    -0.249 OA
ATOM     19  H7  UNL     1      76.904  21.873  92.555  1.00  0.00     0.191 HD
ENDBRANCH  13  15
ENDBRANCH   1  11
TORSDOF 4
ENDMDL
MODEL 2
REMARK VINA RESULT: -6.545808761      1.132      1.137
REMARK  4 active torsions:
REMARK  status: ('A' for Active; 'I' for Inactive)
REMARK    1  A    between atoms: N1_1  and  C1_4 
REMARK    2  A    between atoms: N5_9  and  C2_10 
REMARK    3  A    between atoms: C2_10  and  C3_11 
REMARK       I    between atoms: C3_11  and  N6_13 
REMARK    4  A    between atoms: N6_13  and  N7_15 
REMARK       I    between atoms: N7_15  and  C4_17 
ROOT
HETATM    1  C2  UNL     1      76.292  21.021  88.462  1.00  0.00     0.269 C 
ENDROOT
BRANCH   1   2
HETATM    2  N5  UNL     1      74.953  21.589  88.257  1.00  0.00    -0.100 N 
HETATM    3  C1  UNL     1      74.168  21.484  87.175  1.00  0.00     0.704 A 
HETATM    4  N2  UNL     1      72.987  22.136  87.358  1.00  0.00    -0.117 N 
HETATM    5  N3  UNL     1      73.074  22.646  88.589  1.00  0.00     0.007 NA
ATOM      6  H2  UNL     1      72.211  22.218  86.702  1.00  0.00     0.202 HD
HETATM    7  N4  UNL     1      74.254  22.318  89.133  1.00  0.00     0.009 NA
BRANCH   3   8
HETATM    8  N1  UNL     1      74.488  20.850  86.100  1.00  0.00    -0.232 N 
ATOM      9  H12 UNL     1      74.350  21.208  85.155  1.00  0.00     0.174 HD
ATOM     10  H11 UNL     1      74.912  19.922  86.084  1.00  0.00     0.174 HD
ENDBRANCH   3   8
ENDBRANCH   1   2
BRANCH   1  11
HETATM   11  C3  UNL     1      76.345  20.271  89.738  1.00  0.00     0.256 C 
HETATM   12  O1  UNL     1      76.641  19.039  89.695  1.00  0.00    -0.270 OA
HETATM   13  N6  UNL     1      76.076  20.893  90.962  1.00  0.00    -0.265 N 
ATOM     14  H6  UNL     1      75.832  21.881  91.015  1.00  0.00     0.190 HD
BRANCH  13  15
HETATM   15  N7  UNL     1      76.158  20.086  92.122  1.00  0.00    -0.251 N 
HETATM   16  C4  UNL     1      77.257  20.235  92.986  1.00  0.00     0.347 C 
HETATM   17  N8  UNL     1      77.346  19.429  94.138  1.00  0.00    -0.038 NA
HETATM   18  O2  UNL     1      78.145  21.070  92.738  1.00  0.00    -0.249 OA
ATOM     19  H7  UNL     1      75.428  19.404  92.330  1.00  0.00     0.191 HD
ENDBRANCH  13  15
ENDBRANCH   1  11
TORSDOF 4
ENDMDL
MODEL 3
REMARK VINA RESULT: -6.530260480      2.695      3.793
REMARK  4 active torsions:
REMARK  status: ('A' for Active; 'I' for Inactive)
REMARK    1  A    between atoms: N1_1  and  C1_4 
REMARK    2  A    between atoms: N5_9  and  C2_10 
REMARK    3  A    between atoms: C2_10  and  C3_11 
REMARK       I    between atoms: C3_11  and  N6_13 
REMARK    4  A    between atoms: N6_13  and  N7_15 
REMARK       I    between atoms: N7_15  and  C4_17 
ROOT
HETATM    1  C2  UNL     1      75.365  20.114  89.204  1.00  0.00     0.269 C 
ENDROOT
BRANCH   1   2
HETATM    2  N5  UNL     1      74.637  20.899  88.198  1.00  0.00    -0.100 N 
HETATM    3  C1  UNL     1      73.803  21.930  88.399  1.00  0.00     0.704 A 
HETATM    4  N2  UNL     1      73.324  22.412  87.220  1.00  0.00    -0.117 N 
HETATM    5  N3  UNL     1      73.891  21.642  86.288  1.00  0.00     0.007 NA
ATOM      6  H2  UNL     1      72.677  23.187  87.080  1.00  0.00     0.202 HD
HETATM    7  N4  UNL     1      74.681  20.732  86.873  1.00  0.00     0.009 NA
BRANCH   3   8
HETATM    8  N1  UNL     1      73.494  22.403  89.557  1.00  0.00    -0.232 N 
ATOM      9  H12 UNL     1      72.877  21.941  90.224  1.00  0.00     0.174 HD
ATOM     10  H11 UNL     1      73.836  23.291  89.925  1.00  0.00     0.174 HD
ENDBRANCH   3   8
ENDBRANCH   1   2
BRANCH   1  11
HETATM   11  C3  UNL     1      76.824  20.339  89.077  1.00  0.00     0.256 C 
HETATM   12  O1  UNL     1      77.510  20.417  90.140  1.00  0.00    -0.270 OA
HETATM   13  N6  UNL     1      77.436  20.466  87.827  1.00  0.00    -0.265 N 
ATOM     14  H6  UNL     1      76.899  20.411  86.961  1.00  0.00     0.190 HD
BRANCH  13  15
HETATM   15  N7  UNL     1      78.836  20.676  87.817  1.00  0.00    -0.251 N 
HETATM   16  C4  UNL     1      79.337  21.954  87.513  1.00  0.00     0.347 C 
HETATM   17  N8  UNL     1      80.731  22.164  87.495  1.00  0.00    -0.038 NA
HETATM   18  O2  UNL     1      78.561  22.892  87.262  1.00  0.00    -0.249 OA
ATOM     19  H7  UNL     1      79.475  19.908  88.027  1.00  0.00     0.191 HD
ENDBRANCH  13  15
ENDBRANCH   1  11
TORSDOF 4
ENDMDL
MODEL 4
REMARK VINA RESULT: -6.360094200      0.745      1.564
REMARK  4 active torsions:
REMARK  status: ('A' for Active; 'I' for Inactive)
REMARK    1  A    between atoms: N1_1  and  C1_4 
REMARK    2  A    between atoms: N5_9  and  C2_10 
REMARK    3  A    between atoms: C2_10  and  C3_11 
REMARK       I    between atoms: C3_11  and  N6_13 
REMARK    4  A    between atoms: N6_13  and  N7_15 
REMARK       I    between atoms: N7_15  and  C4_17 
ROOT
HETATM    1  C2  UNL     1      75.235  19.918  89.147  1.00  0.00     0.269 C 
ENDROOT
BRANCH   1   2
HETATM    2  N5  UNL     1      74.633  20.850  88.184  1.00  0.00    -0.100 N 
HETATM    3  C1  UNL     1      73.866  21.920  88.440  1.00  0.00     0.704 A 
HETATM    4  N2  UNL     1      73.501  22.550  87.290  1.00  0.00    -0.117 N 
HETATM    5  N3  UNL     1      74.068  21.829  86.319  1.00  0.00     0.007 NA
ATOM      6  H2  UNL     1      72.923  23.384  87.191  1.00  0.00     0.202 HD
HETATM    7  N4  UNL     1      74.750  20.807  86.854  1.00  0.00     0.009 NA
BRANCH   3   8
HETATM    8  N1  UNL     1      73.519  22.304  89.620  1.00  0.00    -0.232 N 
ATOM      9  H12 UNL     1      72.663  22.816  89.832  1.00  0.00     0.174 HD
ATOM     10  H11 UNL     1      74.067  22.137  90.464  1.00  0.00     0.174 HD
ENDBRANCH   3   8
ENDBRANCH   1   2
BRANCH   1  11
HETATM   11  C3  UNL     1      76.279  20.602  89.944  1.00  0.00     0.256 C 
HETATM   12  O1  UNL     1      77.193  21.223  89.324  1.00  0.00    -0.270 OA
HETATM   13  N6  UNL     1      76.268  20.569  91.342  1.00  0.00    -0.265 N 
ATOM     14  H6  UNL     1      75.543  20.071  91.858  1.00  0.00     0.190 HD
BRANCH  13  15
HETATM   15  N7  UNL     1      77.310  21.259  92.008  1.00  0.00    -0.251 N 
HETATM   16  C4  UNL     1      78.130  20.558  92.910  1.00  0.00     0.347 C 
HETATM   17  N8  UNL     1      79.163  21.243  93.580  1.00  0.00    -0.038 NA
HETATM   18  O2  UNL     1      77.948  19.346  93.117  1.00  0.00    -0.249 OA
ATOM     19  H7  UNL     1      77.464  22.253  91.835  1.00  0.00     0.191 HD
ENDBRANCH  13  15
ENDBRANCH   1  11
TORSDOF 4
ENDMDL
MODEL 5
REMARK VINA RESULT: -6.257592854      3.551      4.523
REMARK  4 active torsions:
REMARK  status: ('A' for Active; 'I' for Inactive)
REMARK    1  A    between atoms: N1_1  and  C1_4 
REMARK    2  A    between atoms: N5_9  and  C2_10 
REMARK    3  A    between atoms: C2_10  and  C3_11 
REMARK       I    between atoms: C3_11  and  N6_13 
REMARK    4  A    between atoms: N6_13  and  N7_15 
REMARK       I    between atoms: N7_15  and  C4_17 
ROOT
HETATM    1  C2  UNL     1      77.154  20.118  89.350  1.00  0.00     0.269 C 
ENDROOT
BRANCH   1   2
HETATM    2  N5  UNL     1      75.918  19.844  88.606  1.00  0.00    -0.100 N 
HETATM    3  C1  UNL     1      74.713  20.410  88.768  1.00  0.00     0.704 A 
HETATM    4  N2  UNL     1      73.809  19.906  87.884  1.00  0.00    -0.117 N 
HETATM    5  N3  UNL     1      74.500  19.011  87.173  1.00  0.00     0.007 NA
ATOM      6  H2  UNL     1      72.826  20.156  87.786  1.00  0.00     0.202 HD
HETATM    7  N4  UNL     1      75.768  18.971  87.604  1.00  0.00     0.009 NA
BRANCH   3   8
HETATM    8  N1  UNL     1      74.443  21.313  89.647  1.00  0.00    -0.232 N 
ATOM      9  H12 UNL     1      73.695  22.000  89.558  1.00  0.00     0.174 HD
ATOM     10  H11 UNL     1      74.952  21.433  90.522  1.00  0.00     0.174 HD
ENDBRANCH   3   8
ENDBRANCH   1   2
BRANCH   1  11
HETATM   11  C3  UNL     1      78.028  21.033  88.581  1.00  0.00     0.256 C 
HETATM   12  O1  UNL     1      78.112  22.239  88.961  1.00  0.00    -0.270 OA
HETATM   13  N6  UNL     1      78.744  20.591  87.464  1.00  0.00    -0.265 N 
ATOM     14  H6  UNL     1      78.685  19.626  87.140  1.00  0.00     0.190 HD
BRANCH  13  15
HETATM   15  N7  UNL     1      79.553  21.546  86.802  1.00  0.00    -0.251 N 
HETATM   16  C4  UNL     1      80.946  21.513  86.988  1.00  0.00     0.347 C 
HETATM   17  N8  UNL     1      81.754  22.466  86.337  1.00  0.00    -0.038 NA
HETATM   18  O2  UNL     1      81.463  20.651  87.721  1.00  0.00    -0.249 OA
ATOM     19  H7  UNL     1      79.130  22.250  86.196  1.00  0.00     0.191 HD
ENDBRANCH  13  15
ENDBRANCH   1  11
TORSDOF 4
ENDMDL
