MODEL 1
REMARK VINA RESULT: -7.144660166      0.000      0.000
REMARK  1 active torsions:
REMARK  status: ('A' for Active; 'I' for Inactive)
REMARK    1  A    between atoms: O1_2  and  C2_3 
REMARK       I    between atoms: N4_11  and  C4_13 
REMARK       I    between atoms: C4_13  and  N5_14 
REMARK       I    between atoms: C4_13  and  N6_18 
ROOT
HETATM    1  C2  UNL     1      77.809  21.107  91.898  1.00  0.00     0.228 C 
HETATM    2  N1  UNL     1      76.772  20.446  92.219  1.00  0.00    -0.260 N 
ATOM      3  H1  UNL     1      76.854  19.972  93.118  1.00  0.00     0.190 HD
HETATM    4  N2  UNL     1      75.530  20.234  91.583  1.00  0.00    -0.226 N 
ATOM      5  H2  UNL     1      74.833  19.697  92.100  1.00  0.00     0.209 HD
HETATM    6  N3  UNL     1      75.159  20.693  90.304  1.00  0.00    -0.117 N 
ATOM      7  H3  UNL     1      74.173  20.571  90.075  1.00  0.00     0.207 HD
HETATM    8  C3  UNL     1      75.939  21.301  89.280  1.00  0.00     0.699 C 
HETATM    9  N4  UNL     1      75.509  21.332  88.090  1.00  0.00    -0.172 N 
ATOM     10  H4  UNL     1      76.120  21.782  87.407  1.00  0.00     0.181 HD
HETATM   11  C4  UNL     1      74.288  20.821  87.587  1.00  0.00     0.494 C 
HETATM   12  N5  UNL     1      74.281  21.036  86.133  1.00  0.00    -0.032 N 
ATOM     13  H51 UNL     1      73.402  20.669  85.771  1.00  0.00     0.278 HD
ATOM     14  H52 UNL     1      75.099  20.639  85.669  1.00  0.00     0.278 HD
ATOM     15  H53 UNL     1      74.440  22.010  85.874  1.00  0.00     0.278 HD
HETATM   16  N6  UNL     1      74.286  19.372  87.764  1.00  0.00    -0.032 N 
ATOM     17  H61 UNL     1      73.406  19.005  87.402  1.00  0.00     0.278 HD
ATOM     18  H62 UNL     1      74.459  19.096  88.731  1.00  0.00     0.278 HD
ATOM     19  H63 UNL     1      75.100  18.925  87.344  1.00  0.00     0.278 HD
HETATM   20  N7  UNL     1      77.214  21.899  89.497  1.00  0.00    -0.151 N 
ATOM     21  H7  UNL     1      77.607  22.397  88.697  1.00  0.00     0.188 HD
HETATM   22  C5  UNL     1      78.028  21.898  90.689  1.00  0.00     0.312 C 
HETATM   23  O2  UNL     1      79.029  22.638  90.722  1.00  0.00    -0.263 OA
ENDROOT
BRANCH   1  24
HETATM   24  O1  UNL     1      78.885  21.094  92.793  1.00  0.00    -0.336 OA
HETATM   25  C1  UNL     1      78.772  20.348  93.995  1.00  0.00     0.212 C 
ENDBRANCH   1  24
TORSDOF 1
ENDMDL
MODEL 2
REMARK VINA RESULT: -6.892940642      1.433      1.433
REMARK  1 active torsions:
REMARK  status: ('A' for Active; 'I' for Inactive)
REMARK    1  A    between atoms: O1_2  and  C2_3 
REMARK       I    between atoms: N4_11  and  C4_13 
REMARK       I    between atoms: C4_13  and  N5_14 
REMARK       I    between atoms: C4_13  and  N6_18 
ROOT
HETATM    1  C2  UNL     1      78.297  19.943  91.324  1.00  0.00     0.228 C 
HETATM    2  N1  UNL     1      77.142  20.000  91.849  1.00  0.00    -0.260 N 
ATOM      3  H1  UNL     1      77.118  19.674  92.815  1.00  0.00     0.190 HD
HETATM    4  N2  UNL     1      75.884  20.423  91.367  1.00  0.00    -0.226 N 
ATOM      5  H2  UNL     1      75.111  20.422  92.032  1.00  0.00     0.209 HD
HETATM    6  N3  UNL     1      75.594  20.846  90.055  1.00  0.00    -0.117 N 
ATOM      7  H3  UNL     1      74.667  21.253  89.932  1.00  0.00     0.207 HD
HETATM    8  C3  UNL     1      76.386  20.796  88.873  1.00  0.00     0.699 C 
HETATM    9  N4  UNL     1      75.838  20.908  87.737  1.00  0.00    -0.172 N 
ATOM     10  H4  UNL     1      76.466  20.863  86.934  1.00  0.00     0.181 HD
HETATM   11  C4  UNL     1      74.465  21.088  87.442  1.00  0.00     0.494 C 
HETATM   12  N5  UNL     1      74.321  21.088  85.979  1.00  0.00    -0.032 N 
ATOM     13  H51 UNL     1      73.332  21.218  85.767  1.00  0.00     0.278 HD
ATOM     14  H52 UNL     1      74.716  20.255  85.541  1.00  0.00     0.278 HD
ATOM     15  H53 UNL     1      74.918  21.776  85.522  1.00  0.00     0.278 HD
HETATM   16  N6  UNL     1      73.736  19.910  87.903  1.00  0.00    -0.032 N 
ATOM     17  H61 UNL     1      72.747  20.040  87.691  1.00  0.00     0.278 HD
ATOM     18  H62 UNL     1      73.902  19.707  88.889  1.00  0.00     0.278 HD
ATOM     19  H63 UNL     1      74.109  19.042  87.518  1.00  0.00     0.278 HD
HETATM   20  N7  UNL     1      77.801  20.623  88.867  1.00  0.00    -0.151 N 
ATOM     21  H7  UNL     1      78.251  20.723  87.956  1.00  0.00     0.188 HD
HETATM   22  C5  UNL     1      78.685  20.328  89.969  1.00  0.00     0.312 C 
HETATM   23  O2  UNL     1      79.914  20.400  89.775  1.00  0.00    -0.263 OA
ENDROOT
BRANCH   1  24
HETATM   24  O1  UNL     1      79.344  19.457  92.116  1.00  0.00    -0.336 OA
HETATM   25  C1  UNL     1      79.419  18.064  92.380  1.00  0.00     0.212 C 
ENDBRANCH   1  24
TORSDOF 1
ENDMDL
MODEL 3
REMARK VINA RESULT: -6.768850851      2.566      3.500
REMARK  1 active torsions:
REMARK  status: ('A' for Active; 'I' for Inactive)
REMARK    1  A    between atoms: O1_2  and  C2_3 
REMARK       I    between atoms: N4_11  and  C4_13 
REMARK       I    between atoms: C4_13  and  N5_14 
REMARK       I    between atoms: C4_13  and  N6_18 
ROOT
HETATM    1  C2  UNL     1      78.108  17.760  93.544  1.00  0.00     0.228 C 
HETATM    2  N1  UNL     1      77.255  18.505  94.121  1.00  0.00    -0.260 N 
ATOM      3  H1  UNL     1      77.046  18.219  95.078  1.00  0.00     0.190 HD
HETATM    4  N2  UNL     1      76.536  19.647  93.706  1.00  0.00    -0.226 N 
ATOM      5  H2  UNL     1      75.946  20.099  94.404  1.00  0.00     0.209 HD
HETATM    6  N3  UNL     1      76.556  20.223  92.421  1.00  0.00    -0.117 N 
ATOM      7  H3  UNL     1      76.091  21.127  92.350  1.00  0.00     0.207 HD
HETATM    8  C3  UNL     1      77.121  19.745  91.205  1.00  0.00     0.699 C 
HETATM    9  N4  UNL     1      76.748  20.233  90.098  1.00  0.00    -0.172 N 
ATOM     10  H4  UNL     1      77.194  19.844  89.266  1.00  0.00     0.181 HD
HETATM   11  C4  UNL     1      75.790  21.250  89.868  1.00  0.00     0.494 C 
HETATM   12  N5  UNL     1      75.654  21.413  88.414  1.00  0.00    -0.032 N 
ATOM     13  H51 UNL     1      74.965  22.146  88.249  1.00  0.00     0.278 HD
ATOM     14  H52 UNL     1      75.430  20.540  87.935  1.00  0.00     0.278 HD
ATOM     15  H53 UNL     1      76.544  21.595  87.950  1.00  0.00     0.278 HD
HETATM   16  N6  UNL     1      74.489  20.771  90.327  1.00  0.00    -0.032 N 
ATOM     17  H61 UNL     1      73.800  21.503  90.162  1.00  0.00     0.278 HD
ATOM     18  H62 UNL     1      74.506  20.460  91.298  1.00  0.00     0.278 HD
ATOM     19  H63 UNL     1      74.226  19.882  89.901  1.00  0.00     0.278 HD
HETATM   20  N7  UNL     1      78.111  18.723  91.132  1.00  0.00    -0.151 N 
ATOM     21  H7  UNL     1      78.509  18.562  90.206  1.00  0.00     0.188 HD
HETATM   22  C5  UNL     1      78.629  17.883  92.185  1.00  0.00     0.312 C 
HETATM   23  O2  UNL     1      79.626  17.176  91.940  1.00  0.00    -0.263 OA
ENDROOT
BRANCH   1  24
HETATM   24  O1  UNL     1      78.627  16.687  94.276  1.00  0.00    -0.336 OA
HETATM   25  C1  UNL     1      79.667  16.929  95.212  1.00  0.00     0.212 C 
ENDBRANCH   1  24
TORSDOF 1
ENDMDL
MODEL 4
REMARK VINA RESULT: -6.548855162      1.790      2.346
REMARK  1 active torsions:
REMARK  status: ('A' for Active; 'I' for Inactive)
REMARK    1  A    between atoms: O1_2  and  C2_3 
REMARK       I    between atoms: N4_11  and  C4_13 
REMARK       I    between atoms: C4_13  and  N5_14 
REMARK       I    between atoms: C4_13  and  N6_18 
ROOT
HETATM    1  C2  UNL     1      78.554  20.215  92.191  1.00  0.00     0.228 C 
HETATM    2  N1  UNL     1      78.382  21.470  92.090  1.00  0.00    -0.260 N 
ATOM      3  H1  UNL     1      78.880  22.006  92.800  1.00  0.00     0.190 HD
HETATM    4  N2  UNL     1      77.642  22.272  91.195  1.00  0.00    -0.226 N 
ATOM      5  H2  UNL     1      77.727  23.283  91.304  1.00  0.00     0.209 HD
HETATM    6  N3  UNL     1      76.797  21.812  90.166  1.00  0.00    -0.117 N 
ATOM      7  H3  UNL     1      76.464  22.536  89.530  1.00  0.00     0.207 HD
HETATM    8  C3  UNL     1      76.333  20.499  89.872  1.00  0.00     0.699 C 
HETATM    9  N4  UNL     1      75.325  20.335  89.125  1.00  0.00    -0.172 N 
ATOM     10  H4  UNL     1      75.047  19.368  88.956  1.00  0.00     0.181 HD
HETATM   11  C4  UNL     1      74.534  21.326  88.493  1.00  0.00     0.494 C 
HETATM   12  N5  UNL     1      73.437  20.641  87.794  1.00  0.00    -0.032 N 
ATOM     13  H51 UNL     1      72.868  21.354  87.339  1.00  0.00     0.278 HD
ATOM     14  H52 UNL     1      72.895  20.031  88.407  1.00  0.00     0.278 HD
ATOM     15  H53 UNL     1      73.765  19.924  87.148  1.00  0.00     0.278 HD
HETATM   16  N6  UNL     1      73.891  22.132  89.527  1.00  0.00    -0.032 N 
ATOM     17  H61 UNL     1      73.322  22.845  89.072  1.00  0.00     0.278 HD
ATOM     18  H62 UNL     1      74.559  22.526  90.189  1.00  0.00     0.278 HD
ATOM     19  H63 UNL     1      73.357  21.568  90.189  1.00  0.00     0.278 HD
HETATM   20  N7  UNL     1      76.936  19.308  90.371  1.00  0.00    -0.151 N 
ATOM     21  H7  UNL     1      76.571  18.436  89.987  1.00  0.00     0.188 HD
HETATM   22  C5  UNL     1      77.992  19.164  91.344  1.00  0.00     0.312 C 
HETATM   23  O2  UNL     1      78.499  18.037  91.503  1.00  0.00    -0.263 OA
ENDROOT
BRANCH   1  24
HETATM   24  O1  UNL     1      79.374  19.756  93.227  1.00  0.00    -0.336 OA
HETATM   25  C1  UNL     1      78.889  19.799  94.561  1.00  0.00     0.212 C 
ENDBRANCH   1  24
TORSDOF 1
ENDMDL
MODEL 5
REMARK VINA RESULT: -6.509701704      1.602      1.737
REMARK  1 active torsions:
REMARK  status: ('A' for Active; 'I' for Inactive)
REMARK    1  A    between atoms: O1_2  and  C2_3 
REMARK       I    between atoms: N4_11  and  C4_13 
REMARK       I    between atoms: C4_13  and  N5_14 
REMARK       I    between atoms: C4_13  and  N6_18 
ROOT
HETATM    1  C2  UNL     1      79.269  21.696  90.675  1.00  0.00     0.228 C 
HETATM    2  N1  UNL     1      78.272  21.415  91.412  1.00  0.00    -0.260 N 
ATOM      3  H1  UNL     1      78.528  21.200  92.376  1.00  0.00     0.190 HD
HETATM    4  N2  UNL     1      76.884  21.340  91.168  1.00  0.00    -0.226 N 
ATOM      5  H2  UNL     1      76.285  21.148  91.971  1.00  0.00     0.209 HD
HETATM    6  N3  UNL     1      76.247  21.506  89.923  1.00  0.00    -0.117 N 
ATOM      7  H3  UNL     1      75.229  21.564  89.968  1.00  0.00     0.207 HD
HETATM    8  C3  UNL     1      76.794  21.605  88.613  1.00  0.00     0.699 C 
HETATM    9  N4  UNL     1      76.057  21.411  87.602  1.00  0.00    -0.172 N 
ATOM     10  H4  UNL     1      76.514  21.497  86.694  1.00  0.00     0.181 HD
HETATM   11  C4  UNL     1      74.678  21.088  87.573  1.00  0.00     0.494 C 
HETATM   12  N5  UNL     1      74.296  20.892  86.167  1.00  0.00    -0.032 N 
ATOM     13  H51 UNL     1      73.304  20.660  86.146  1.00  0.00     0.278 HD
ATOM     14  H52 UNL     1      74.876  20.199  85.691  1.00  0.00     0.278 HD
ATOM     15  H53 UNL     1      74.529  21.690  85.577  1.00  0.00     0.278 HD
HETATM   16  N6  UNL     1      74.494  19.788  88.210  1.00  0.00    -0.032 N 
ATOM     17  H61 UNL     1      73.502  19.556  88.189  1.00  0.00     0.278 HD
ATOM     18  H62 UNL     1      74.886  19.753  89.151  1.00  0.00     0.278 HD
ATOM     19  H63 UNL     1      75.075  19.061  87.792  1.00  0.00     0.278 HD
HETATM   20  N7  UNL     1      78.156  21.917  88.338  1.00  0.00    -0.151 N 
ATOM     21  H7  UNL     1      78.382  22.068  87.354  1.00  0.00     0.188 HD
HETATM   22  C5  UNL     1      79.261  22.048  89.257  1.00  0.00     0.312 C 
HETATM   23  O2  UNL     1      80.336  22.508  88.826  1.00  0.00    -0.263 OA
ENDROOT
BRANCH   1  24
HETATM   24  O1  UNL     1      80.537  21.672  91.266  1.00  0.00    -0.336 OA
HETATM   25  C1  UNL     1      80.739  22.363  92.490  1.00  0.00     0.212 C 
ENDBRANCH   1  24
TORSDOF 1
ENDMDL
