MODEL 1
REMARK VINA RESULT: -6.217118293      0.000      0.000
REMARK  1 active torsions:
REMARK  status: ('A' for Active; 'I' for Inactive)
REMARK       I    between atoms: N1_2  and  C2_4 
REMARK       I    between atoms: N3_6  and  C3_8 
REMARK       I    between atoms: C3_8  and  N5_12 
REMARK    1  A    between atoms: N5_12  and  N6_14 
ROOT
HETATM    1  C1  UNL     1      -0.563   6.379  11.074  1.00  0.00     0.148 C 
HETATM    2  N1  UNL     1      -0.841   7.775  10.803  1.00  0.00    -0.368 N 
ATOM      3  H1  UNL     1      -0.776   8.144   9.854  1.00  0.00     0.161 HD
HETATM    4  C2  UNL     1      -1.209   8.627  11.894  1.00  0.00     0.202 C 
HETATM    5  N2  UNL     1      -1.529   8.079  13.159  1.00  0.00    -0.063 NA
HETATM    6  N3  UNL     1      -1.264   9.908  11.772  1.00  0.00    -0.163 N 
ATOM      7  H3  UNL     1      -1.535  10.445  12.596  1.00  0.00     0.187 HD
HETATM    8  C3  UNL     1      -0.984  10.623  10.604  1.00  0.00     0.697 C 
HETATM    9  N4  UNL     1      -1.936  10.888   9.786  1.00  0.00    -0.233 N 
ATOM     10  H41 UNL     1      -1.732  11.410   8.935  1.00  0.00     0.174 HD
ATOM     11  H42 UNL     1      -2.882  10.572  10.005  1.00  0.00     0.174 HD
HETATM   12  N5  UNL     1       0.336  11.065  10.299  1.00  0.00    -0.072 N 
ATOM     13  H5  UNL     1       1.108  10.808  10.913  1.00  0.00     0.212 HD
ENDROOT
BRANCH  12  14
HETATM   14  N6  UNL     1       0.583  11.847   9.167  1.00  0.00    -0.024 N 
HETATM   15  O1  UNL     1       1.574  11.621   8.431  1.00  0.00    -0.516 OA
HETATM   16  O2  UNL     1      -0.230  12.881   8.815  1.00  0.00    -0.516 OA
ENDBRANCH  12  14
TORSDOF 1
ENDMDL
MODEL 2
REMARK VINA RESULT: -6.162211010      0.900      1.033
REMARK  1 active torsions:
REMARK  status: ('A' for Active; 'I' for Inactive)
REMARK       I    between atoms: N1_2  and  C2_4 
REMARK       I    between atoms: N3_6  and  C3_8 
REMARK       I    between atoms: C3_8  and  N5_12 
REMARK    1  A    between atoms: N5_12  and  N6_14 
ROOT
HETATM    1  C1  UNL     1      -0.372   6.168  10.972  1.00  0.00     0.148 C 
HETATM    2  N1  UNL     1      -0.776   7.539  10.734  1.00  0.00    -0.368 N 
ATOM      3  H1  UNL     1      -1.020   7.854   9.795  1.00  0.00     0.161 HD
HETATM    4  C2  UNL     1      -0.828   8.443  11.844  1.00  0.00     0.202 C 
HETATM    5  N2  UNL     1      -0.723   7.961  13.170  1.00  0.00    -0.063 NA
HETATM    6  N3  UNL     1      -0.970   9.713  11.684  1.00  0.00    -0.163 N 
ATOM      7  H3  UNL     1      -0.998  10.290  12.525  1.00  0.00     0.187 HD
HETATM    8  C3  UNL     1      -1.090  10.366  10.455  1.00  0.00     0.697 C 
HETATM    9  N4  UNL     1      -2.257  10.561   9.958  1.00  0.00    -0.233 N 
ATOM     10  H41 UNL     1      -2.344  11.038   9.060  1.00  0.00     0.174 HD
ATOM     11  H42 UNL     1      -3.076  10.235  10.471  1.00  0.00     0.174 HD
HETATM   12  N5  UNL     1       0.054  10.822   9.737  1.00  0.00    -0.072 N 
ATOM     13  H5  UNL     1       0.987  10.620  10.095  1.00  0.00     0.212 HD
ENDROOT
BRANCH  12  14
HETATM   14  N6  UNL     1      -0.089  11.544   8.549  1.00  0.00    -0.024 N 
HETATM   15  O1  UNL     1       0.215  12.760   8.492  1.00  0.00    -0.516 OA
HETATM   16  O2  UNL     1      -0.559  10.967   7.409  1.00  0.00    -0.516 OA
ENDBRANCH  12  14
TORSDOF 1
ENDMDL
MODEL 3
REMARK VINA RESULT: -6.132167725      1.515      1.799
REMARK  1 active torsions:
REMARK  status: ('A' for Active; 'I' for Inactive)
REMARK       I    between atoms: N1_2  and  C2_4 
REMARK       I    between atoms: N3_6  and  C3_8 
REMARK       I    between atoms: C3_8  and  N5_12 
REMARK    1  A    between atoms: N5_12  and  N6_14 
ROOT
HETATM    1  C1  UNL     1       0.162   7.660  14.214  1.00  0.00     0.148 C 
HETATM    2  N1  UNL     1      -0.093   8.164  12.880  1.00  0.00    -0.368 N 
ATOM      3  H1  UNL     1       0.677   8.459  12.279  1.00  0.00     0.161 HD
HETATM    4  C2  UNL     1      -1.448   8.242  12.421  1.00  0.00     0.202 C 
HETATM    5  N2  UNL     1      -2.490   7.621  13.150  1.00  0.00    -0.063 NA
HETATM    6  N3  UNL     1      -1.770   8.868  11.343  1.00  0.00    -0.163 N 
ATOM      7  H3  UNL     1      -2.757   8.877  11.084  1.00  0.00     0.187 HD
HETATM    8  C3  UNL     1      -0.880   9.536  10.499  1.00  0.00     0.697 C 
HETATM    9  N4  UNL     1      -0.350   8.904   9.516  1.00  0.00    -0.233 N 
ATOM     10  H41 UNL     1       0.299   9.392   8.900  1.00  0.00     0.174 HD
ATOM     11  H42 UNL     1      -0.591   7.923   9.370  1.00  0.00     0.174 HD
HETATM   12  N5  UNL     1      -0.544  10.907  10.703  1.00  0.00    -0.072 N 
ATOM     13  H5  UNL     1      -0.914  11.401  11.514  1.00  0.00     0.212 HD
ENDROOT
BRANCH  12  14
HETATM   14  N6  UNL     1       0.285  11.581   9.802  1.00  0.00    -0.024 N 
HETATM   15  O1  UNL     1       1.195  12.343  10.209  1.00  0.00    -0.516 OA
HETATM   16  O2  UNL     1       0.147  11.443   8.455  1.00  0.00    -0.516 OA
ENDBRANCH  12  14
TORSDOF 1
ENDMDL
MODEL 4
REMARK VINA RESULT: -6.059427356      1.014      1.036
REMARK  1 active torsions:
REMARK  status: ('A' for Active; 'I' for Inactive)
REMARK       I    between atoms: N1_2  and  C2_4 
REMARK       I    between atoms: N3_6  and  C3_8 
REMARK       I    between atoms: C3_8  and  N5_12 
REMARK    1  A    between atoms: N5_12  and  N6_14 
ROOT
HETATM    1  C1  UNL     1      -0.606   5.971  10.512  1.00  0.00     0.148 C 
HETATM    2  N1  UNL     1      -0.893   7.390  10.445  1.00  0.00    -0.368 N 
ATOM      3  H1  UNL     1      -1.238   7.810   9.581  1.00  0.00     0.161 HD
HETATM    4  C2  UNL     1      -0.683   8.191  11.613  1.00  0.00     0.202 C 
HETATM    5  N2  UNL     1      -0.434   7.584  12.866  1.00  0.00    -0.063 NA
HETATM    6  N3  UNL     1      -0.712   9.478  11.573  1.00  0.00    -0.163 N 
ATOM      7  H3  UNL     1      -0.553   9.977  12.449  1.00  0.00     0.187 HD
HETATM    8  C3  UNL     1      -0.943  10.248  10.430  1.00  0.00     0.697 C 
HETATM    9  N4  UNL     1      -2.143  10.595  10.138  1.00  0.00    -0.233 N 
ATOM     10  H41 UNL     1      -2.312  11.157   9.304  1.00  0.00     0.174 HD
ATOM     11  H42 UNL     1      -2.907  10.302  10.748  1.00  0.00     0.174 HD
HETATM   12  N5  UNL     1       0.124  10.658   9.579  1.00  0.00    -0.072 N 
ATOM     13  H5  UNL     1       1.073  10.338   9.770  1.00  0.00     0.212 HD
ENDROOT
BRANCH  12  14
HETATM   14  N6  UNL     1      -0.116  11.494   8.485  1.00  0.00    -0.024 N 
HETATM   15  O1  UNL     1      -0.571  11.035   7.409  1.00  0.00    -0.516 OA
HETATM   16  O2  UNL     1       0.129  12.832   8.534  1.00  0.00    -0.516 OA
ENDBRANCH  12  14
TORSDOF 1
ENDMDL
MODEL 5
REMARK VINA RESULT: -5.958044119      1.864      2.497
REMARK  1 active torsions:
REMARK  status: ('A' for Active; 'I' for Inactive)
REMARK       I    between atoms: N1_2  and  C2_4 
REMARK       I    between atoms: N3_6  and  C3_8 
REMARK       I    between atoms: C3_8  and  N5_12 
REMARK    1  A    between atoms: N5_12  and  N6_14 
ROOT
HETATM    1  C1  UNL     1      -2.223   7.482  13.401  1.00  0.00     0.148 C 
HETATM    2  N1  UNL     1      -1.552   8.351  12.455  1.00  0.00    -0.368 N 
ATOM      3  H1  UNL     1      -2.007   9.198  12.114  1.00  0.00     0.161 HD
HETATM    4  C2  UNL     1      -0.239   7.996  12.007  1.00  0.00     0.202 C 
HETATM    5  N2  UNL     1       0.485   6.962  12.647  1.00  0.00    -0.063 NA
HETATM    6  N3  UNL     1       0.331   8.594  11.019  1.00  0.00    -0.163 N 
ATOM      7  H3  UNL     1       1.269   8.283  10.762  1.00  0.00     0.187 HD
HETATM    8  C3  UNL     1      -0.227   9.634  10.271  1.00  0.00     0.697 C 
HETATM    9  N4  UNL     1      -0.018  10.848  10.629  1.00  0.00    -0.233 N 
ATOM     10  H41 UNL     1      -0.425  11.607  10.083  1.00  0.00     0.174 HD
ATOM     11  H42 UNL     1       0.554  11.032  11.454  1.00  0.00     0.174 HD
HETATM   12  N5  UNL     1      -1.025   9.378   9.118  1.00  0.00    -0.072 N 
ATOM     13  H5  UNL     1      -1.246   8.417   8.861  1.00  0.00     0.212 HD
ENDROOT
BRANCH  12  14
HETATM   14  N6  UNL     1      -1.509  10.431   8.337  1.00  0.00    -0.024 N 
HETATM   15  O1  UNL     1      -2.475  11.131   8.724  1.00  0.00    -0.516 OA
HETATM   16  O2  UNL     1      -0.961  10.743   7.131  1.00  0.00    -0.516 OA
ENDBRANCH  12  14
TORSDOF 1
ENDMDL
