MODEL 1
REMARK VINA RESULT: -5.245242217      0.000      0.000
REMARK  5 active torsions:
REMARK  status: ('A' for Active; 'I' for Inactive)
REMARK    1  A    between atoms: N1_1  and  N2_4 
REMARK    2  A    between atoms: N2_4  and  C1_6 
REMARK    3  A    between atoms: C1_6  and  N3_8 
REMARK    4  A    between atoms: N3_8  and  S2_10 
REMARK    5  A    between atoms: S2_10  and  N4_11 
ROOT
HETATM    1  N3  UNL     1      -0.047  10.019   9.511  1.00  0.00    -0.243 N 
ATOM      2  H3  UNL     1       0.917   9.937   9.189  1.00  0.00     0.182 HD
ENDROOT
BRANCH   1   3
HETATM    3  C1  UNL     1      -0.386   9.194  10.589  1.00  0.00     0.201 C 
HETATM    4  S1  UNL     1       0.059   7.611  10.543  1.00  0.00    -0.038 SA
BRANCH   3   5
HETATM    5  N2  UNL     1      -1.088   9.637  11.716  1.00  0.00    -0.282 N 
ATOM      6  H2  UNL     1      -1.642  10.486  11.598  1.00  0.00     0.189 HD
BRANCH   5   7
HETATM    7  N1  UNL     1      -1.117   9.056  12.971  1.00  0.00    -0.343 N 
ATOM      8  H12 UNL     1      -2.010   8.641  13.237  1.00  0.00     0.176 HD
ATOM      9  H11 UNL     1      -0.353   9.000  13.645  1.00  0.00     0.176 HD
ENDBRANCH   5   7
ENDBRANCH   3   5
ENDBRANCH   1   3
BRANCH   1  10
HETATM   10  S2  UNL     1      -1.000  11.134   8.663  1.00  0.00     0.319 S 
HETATM   11  O1  UNL     1      -2.442  11.046   9.005  1.00  0.00    -0.183 OA
HETATM   12  O2  UNL     1      -0.822  10.877   7.149  1.00  0.00    -0.183 OA
BRANCH  10  13
HETATM   13  N4  UNL     1      -0.356  12.733   8.871  1.00  0.00    -0.311 N 
ATOM     14  H42 UNL     1       0.634  12.968   8.800  1.00  0.00     0.170 HD
ATOM     15  H41 UNL     1      -1.114  13.385   9.070  1.00  0.00     0.170 HD
ENDBRANCH  10  13
ENDBRANCH   1  10
TORSDOF 5
ENDMDL
MODEL 2
REMARK VINA RESULT: -5.155969858      1.495      1.734
REMARK  5 active torsions:
REMARK  status: ('A' for Active; 'I' for Inactive)
REMARK    1  A    between atoms: N1_1  and  N2_4 
REMARK    2  A    between atoms: N2_4  and  C1_6 
REMARK    3  A    between atoms: C1_6  and  N3_8 
REMARK    4  A    between atoms: N3_8  and  S2_10 
REMARK    5  A    between atoms: S2_10  and  N4_11 
ROOT
HETATM    1  N3  UNL     1      -0.779   8.895   8.754  1.00  0.00    -0.243 N 
ATOM      2  H3  UNL     1      -1.355   8.284   8.175  1.00  0.00     0.182 HD
ENDROOT
BRANCH   1   3
HETATM    3  C1  UNL     1      -0.052   8.251   9.761  1.00  0.00     0.201 C 
HETATM    4  S1  UNL     1       0.583   6.766   9.449  1.00  0.00    -0.038 SA
BRANCH   3   5
HETATM    5  N2  UNL     1       0.170   8.798  11.030  1.00  0.00    -0.282 N 
ATOM      6  H2  UNL     1       1.145   8.912  11.309  1.00  0.00     0.189 HD
BRANCH   5   7
HETATM    7  N1  UNL     1      -0.782   9.202  11.949  1.00  0.00    -0.343 N 
ATOM      8  H12 UNL     1      -1.636   8.645  11.961  1.00  0.00     0.176 HD
ATOM      9  H11 UNL     1      -0.719   9.982  12.602  1.00  0.00     0.176 HD
ENDBRANCH   5   7
ENDBRANCH   3   5
ENDBRANCH   1   3
BRANCH   1  10
HETATM   10  S2  UNL     1      -0.844  10.540   8.353  1.00  0.00     0.319 S 
HETATM   11  O1  UNL     1      -0.987  10.779   6.895  1.00  0.00    -0.183 OA
HETATM   12  O2  UNL     1       0.453  11.217   8.851  1.00  0.00    -0.183 OA
BRANCH  10  13
HETATM   13  N4  UNL     1      -2.081  11.322   9.287  1.00  0.00    -0.311 N 
ATOM     14  H42 UNL     1      -3.066  11.355   9.024  1.00  0.00     0.170 HD
ATOM     15  H41 UNL     1      -1.671  11.735  10.124  1.00  0.00     0.170 HD
ENDBRANCH  10  13
ENDBRANCH   1  10
TORSDOF 5
ENDMDL
MODEL 3
REMARK VINA RESULT: -5.070105847      1.979      2.487
REMARK  5 active torsions:
REMARK  status: ('A' for Active; 'I' for Inactive)
REMARK    1  A    between atoms: N1_1  and  N2_4 
REMARK    2  A    between atoms: N2_4  and  C1_6 
REMARK    3  A    between atoms: C1_6  and  N3_8 
REMARK    4  A    between atoms: N3_8  and  S2_10 
REMARK    5  A    between atoms: S2_10  and  N4_11 
ROOT
HETATM    1  N3  UNL     1       0.112   9.825   9.613  1.00  0.00    -0.243 N 
ATOM      2  H3  UNL     1       0.931   9.448  10.089  1.00  0.00     0.182 HD
ENDROOT
BRANCH   1   3
HETATM    3  C1  UNL     1      -0.903   8.898   9.349  1.00  0.00     0.201 C 
HETATM    4  S1  UNL     1      -0.953   7.510  10.230  1.00  0.00    -0.038 SA
BRANCH   3   5
HETATM    5  N2  UNL     1      -1.888   9.082   8.372  1.00  0.00    -0.282 N 
ATOM      6  H2  UNL     1      -1.690   8.691   7.452  1.00  0.00     0.189 HD
BRANCH   5   7
HETATM    7  N1  UNL     1      -3.100   9.736   8.514  1.00  0.00    -0.343 N 
ATOM      8  H12 UNL     1      -3.641   9.473   9.337  1.00  0.00     0.176 HD
ATOM      9  H11 UNL     1      -3.500  10.438   7.893  1.00  0.00     0.176 HD
ENDBRANCH   5   7
ENDBRANCH   3   5
ENDBRANCH   1   3
BRANCH   1  10
HETATM   10  S2  UNL     1       0.181  11.480   9.258  1.00  0.00     0.319 S 
HETATM   11  O1  UNL     1      -1.052  11.988   8.607  1.00  0.00    -0.183 OA
HETATM   12  O2  UNL     1       1.387  11.730   8.324  1.00  0.00    -0.183 OA
BRANCH  10  13
HETATM   13  N4  UNL     1       0.601  12.369  10.689  1.00  0.00    -0.311 N 
ATOM     14  H42 UNL     1       1.145  11.988  11.464  1.00  0.00     0.170 HD
ATOM     15  H41 UNL     1       0.223  13.313  10.631  1.00  0.00     0.170 HD
ENDBRANCH  10  13
ENDBRANCH   1  10
TORSDOF 5
ENDMDL
MODEL 4
REMARK VINA RESULT: -5.025857880      1.971      2.152
REMARK  5 active torsions:
REMARK  status: ('A' for Active; 'I' for Inactive)
REMARK    1  A    between atoms: N1_1  and  N2_4 
REMARK    2  A    between atoms: N2_4  and  C1_6 
REMARK    3  A    between atoms: C1_6  and  N3_8 
REMARK    4  A    between atoms: N3_8  and  S2_10 
REMARK    5  A    between atoms: S2_10  and  N4_11 
ROOT
HETATM    1  N3  UNL     1      -0.732  10.871  10.999  1.00  0.00    -0.243 N 
ATOM      2  H3  UNL     1      -0.885  11.570  11.726  1.00  0.00     0.182 HD
ENDROOT
BRANCH   1   3
HETATM    3  C1  UNL     1      -1.252   9.602  11.274  1.00  0.00     0.201 C 
HETATM    4  S1  UNL     1      -2.385   8.974  10.261  1.00  0.00    -0.038 SA
BRANCH   3   5
HETATM    5  N2  UNL     1      -0.862   8.825  12.372  1.00  0.00    -0.282 N 
ATOM      6  H2  UNL     1      -0.312   7.992  12.163  1.00  0.00     0.189 HD
BRANCH   5   7
HETATM    7  N1  UNL     1      -1.138   9.058  13.707  1.00  0.00    -0.343 N 
ATOM      8  H12 UNL     1      -0.350   9.395  14.260  1.00  0.00     0.176 HD
ATOM      9  H11 UNL     1      -2.029   8.932  14.186  1.00  0.00     0.176 HD
ENDBRANCH   5   7
ENDBRANCH   3   5
ENDBRANCH   1   3
BRANCH   1  10
HETATM   10  S2  UNL     1       0.112  11.420   9.636  1.00  0.00     0.319 S 
HETATM   11  O1  UNL     1       0.540  10.321   8.735  1.00  0.00    -0.183 OA
HETATM   12  O2  UNL     1       1.360  12.197  10.114  1.00  0.00    -0.183 OA
BRANCH  10  13
HETATM   13  N4  UNL     1      -0.820  12.636   8.820  1.00  0.00    -0.311 N 
ATOM     14  H42 UNL     1      -1.438  13.298   9.288  1.00  0.00     0.170 HD
ATOM     15  H41 UNL     1      -0.653  12.581   7.816  1.00  0.00     0.170 HD
ENDBRANCH  10  13
ENDBRANCH   1  10
TORSDOF 5
ENDMDL
MODEL 5
REMARK VINA RESULT: -4.974398938      1.470      1.868
REMARK  5 active torsions:
REMARK  status: ('A' for Active; 'I' for Inactive)
REMARK    1  A    between atoms: N1_1  and  N2_4 
REMARK    2  A    between atoms: N2_4  and  C1_6 
REMARK    3  A    between atoms: C1_6  and  N3_8 
REMARK    4  A    between atoms: N3_8  and  S2_10 
REMARK    5  A    between atoms: S2_10  and  N4_11 
ROOT
HETATM    1  N3  UNL     1      -0.264   9.957   9.615  1.00  0.00    -0.243 N 
ATOM      2  H3  UNL     1       0.608  10.259  10.049  1.00  0.00     0.182 HD
ENDROOT
BRANCH   1   3
HETATM    3  C1  UNL     1      -0.632   8.633   9.875  1.00  0.00     0.201 C 
HETATM    4  S1  UNL     1       0.139   7.821  11.080  1.00  0.00    -0.038 SA
BRANCH   3   5
HETATM    5  N2  UNL     1      -1.627   7.950   9.166  1.00  0.00    -0.282 N 
ATOM      6  H2  UNL     1      -1.382   7.020   8.826  1.00  0.00     0.189 HD
BRANCH   5   7
HETATM    7  N1  UNL     1      -2.904   8.393   8.873  1.00  0.00    -0.343 N 
ATOM      8  H12 UNL     1      -3.147   9.304   9.262  1.00  0.00     0.176 HD
ATOM      9  H11 UNL     1      -3.614   7.913   8.320  1.00  0.00     0.176 HD
ENDBRANCH   5   7
ENDBRANCH   3   5
ENDBRANCH   1   3
BRANCH   1  10
HETATM   10  S2  UNL     1      -1.051  11.134   8.684  1.00  0.00     0.319 S 
HETATM   11  O1  UNL     1      -2.518  11.169   8.911  1.00  0.00    -0.183 OA
HETATM   12  O2  UNL     1      -0.776  10.843   7.192  1.00  0.00    -0.183 OA
BRANCH  10  13
HETATM   13  N4  UNL     1      -0.295  12.678   8.931  1.00  0.00    -0.311 N 
ATOM     14  H42 UNL     1      -0.487  13.508   8.370  1.00  0.00     0.170 HD
ATOM     15  H41 UNL     1       0.358  12.621   9.712  1.00  0.00     0.170 HD
ENDBRANCH  10  13
ENDBRANCH   1  10
TORSDOF 5
ENDMDL
