MODEL 1
REMARK VINA RESULT: -5.499828854      0.000      0.000
REMARK  2 active torsions:
REMARK  status: ('A' for Active; 'I' for Inactive)
REMARK    1  A    between atoms: S1_2  and  N1_5 
REMARK       I    between atoms: N1_5  and  C2_7 
REMARK       I    between atoms: C2_7  and  N3_11 
REMARK    2  A    between atoms: N3_11  and  N4_13 
ROOT
HETATM    1  N1  UNL     1      -0.811  10.574  10.888  1.00  0.00    -0.116 N 
ATOM      2  H1  UNL     1      -0.277  11.240  11.446  1.00  0.00     0.197 HD
HETATM    3  C2  UNL     1      -1.332   9.427  11.509  1.00  0.00     0.699 C 
HETATM    4  N2  UNL     1      -1.956   8.550  10.839  1.00  0.00    -0.233 N 
ATOM      5  H21 UNL     1      -2.334   7.717  11.290  1.00  0.00     0.174 HD
ATOM      6  H22 UNL     1      -2.072   8.697   9.836  1.00  0.00     0.174 HD
HETATM    7  N3  UNL     1      -1.172   9.225  12.893  1.00  0.00    -0.138 N 
ATOM      8  H3  UNL     1      -1.770   9.771  13.514  1.00  0.00     0.205 HD
ENDROOT
BRANCH   1   9
HETATM    9  S1  UNL     1      -1.051  10.887   9.208  1.00  0.00     0.240 S 
HETATM   10  C1  UNL     1      -0.152  12.328   8.670  1.00  0.00     0.186 C 
HETATM   11  O1  UNL     1      -2.536  11.051   8.910  1.00  0.00    -0.206 OA
HETATM   12  O2  UNL     1      -0.556   9.738   8.356  1.00  0.00    -0.206 OA
ENDBRANCH   1   9
BRANCH   7  13
HETATM   13  N4  UNL     1      -0.275   8.351  13.489  1.00  0.00    -0.331 N 
ATOM     14  H42 UNL     1       0.380   7.887  12.860  1.00  0.00     0.177 HD
ATOM     15  H41 UNL     1      -0.219   8.139  14.485  1.00  0.00     0.177 HD
ENDBRANCH   7  13
TORSDOF 2
ENDMDL
MODEL 2
REMARK VINA RESULT: -5.113972274      1.443      1.578
REMARK  2 active torsions:
REMARK  status: ('A' for Active; 'I' for Inactive)
REMARK    1  A    between atoms: S1_2  and  N1_5 
REMARK       I    between atoms: N1_5  and  C2_7 
REMARK       I    between atoms: C2_7  and  N3_11 
REMARK    2  A    between atoms: N3_11  and  N4_13 
ROOT
HETATM    1  N1  UNL     1      -0.304   9.534   9.286  1.00  0.00    -0.116 N 
ATOM      2  H1  UNL     1       0.198   8.833   8.742  1.00  0.00     0.197 HD
HETATM    3  C2  UNL     1      -0.407   9.374  10.678  1.00  0.00     0.699 C 
HETATM    4  N2  UNL     1      -1.069  10.195  11.381  1.00  0.00    -0.233 N 
ATOM      5  H21 UNL     1      -1.143  10.079  12.391  1.00  0.00     0.174 HD
ATOM      6  H22 UNL     1      -1.526  10.977  10.912  1.00  0.00     0.174 HD
HETATM    7  N3  UNL     1       0.224   8.294  11.324  1.00  0.00    -0.138 N 
ATOM      8  H3  UNL     1       1.234   8.359  11.457  1.00  0.00     0.205 HD
ENDROOT
BRANCH   1   9
HETATM    9  S1  UNL     1      -1.006  10.884   8.473  1.00  0.00     0.240 S 
HETATM   10  C1  UNL     1      -0.087  12.382   8.765  1.00  0.00     0.186 C 
HETATM   11  O1  UNL     1      -2.456  11.063   8.905  1.00  0.00    -0.206 OA
HETATM   12  O2  UNL     1      -1.016  10.681   6.972  1.00  0.00    -0.206 OA
ENDBRANCH   1   9
BRANCH   7  13
HETATM   13  N4  UNL     1      -0.401   7.150  11.797  1.00  0.00    -0.331 N 
ATOM     14  H42 UNL     1      -0.190   6.893  12.761  1.00  0.00     0.177 HD
ATOM     15  H41 UNL     1      -1.042   6.557  11.270  1.00  0.00     0.177 HD
ENDBRANCH   7  13
TORSDOF 2
ENDMDL
MODEL 3
REMARK VINA RESULT: -4.816968924      2.318      2.554
REMARK  2 active torsions:
REMARK  status: ('A' for Active; 'I' for Inactive)
REMARK    1  A    between atoms: S1_2  and  N1_5 
REMARK       I    between atoms: N1_5  and  C2_7 
REMARK       I    between atoms: C2_7  and  N3_11 
REMARK    2  A    between atoms: N3_11  and  N4_13 
ROOT
HETATM    1  N1  UNL     1      -0.593   9.283   9.197  1.00  0.00    -0.116 N 
ATOM      2  H1  UNL     1       0.356   9.095   9.518  1.00  0.00     0.197 HD
HETATM    3  C2  UNL     1      -1.559   8.267   9.288  1.00  0.00     0.699 C 
HETATM    4  N2  UNL     1      -2.735   8.445   8.850  1.00  0.00    -0.233 N 
ATOM      5  H21 UNL     1      -3.435   7.707   8.917  1.00  0.00     0.174 HD
ATOM      6  H22 UNL     1      -2.965   9.345   8.428  1.00  0.00     0.174 HD
HETATM    7  N3  UNL     1      -1.240   7.025   9.870  1.00  0.00    -0.138 N 
ATOM      8  H3  UNL     1      -1.181   6.991  10.888  1.00  0.00     0.205 HD
ENDROOT
BRANCH   1   9
HETATM    9  S1  UNL     1      -0.969  10.839   8.554  1.00  0.00     0.240 S 
HETATM   10  C1  UNL     1       0.182  12.080   9.111  1.00  0.00     0.186 C 
HETATM   11  O1  UNL     1      -2.392  11.234   8.931  1.00  0.00    -0.206 OA
HETATM   12  O2  UNL     1      -0.897  10.846   7.042  1.00  0.00    -0.206 OA
ENDBRANCH   1   9
BRANCH   7  13
HETATM   13  N4  UNL     1      -1.000   5.844   9.186  1.00  0.00    -0.331 N 
ATOM     14  H42 UNL     1      -0.336   5.903   8.413  1.00  0.00     0.177 HD
ATOM     15  H41 UNL     1      -1.424   4.938   9.387  1.00  0.00     0.177 HD
ENDBRANCH   7  13
TORSDOF 2
ENDMDL
MODEL 4
REMARK VINA RESULT: -4.768151373      1.500      1.658
REMARK  2 active torsions:
REMARK  status: ('A' for Active; 'I' for Inactive)
REMARK    1  A    between atoms: S1_2  and  N1_5 
REMARK       I    between atoms: N1_5  and  C2_7 
REMARK       I    between atoms: C2_7  and  N3_11 
REMARK    2  A    between atoms: N3_11  and  N4_13 
ROOT
HETATM    1  N1  UNL     1      -0.475  10.173  10.897  1.00  0.00    -0.116 N 
ATOM      2  H1  UNL     1      -0.139  10.974  11.432  1.00  0.00     0.197 HD
HETATM    3  C2  UNL     1      -1.055   9.091  11.580  1.00  0.00     0.699 C 
HETATM    4  N2  UNL     1      -1.434   8.055  10.957  1.00  0.00    -0.233 N 
ATOM      5  H21 UNL     1      -1.855   7.270  11.453  1.00  0.00     0.174 HD
ATOM      6  H22 UNL     1      -1.310   8.025   9.945  1.00  0.00     0.174 HD
HETATM    7  N3  UNL     1      -1.226   9.134  12.977  1.00  0.00    -0.138 N 
ATOM      8  H3  UNL     1      -1.993   9.704  13.334  1.00  0.00     0.205 HD
ENDROOT
BRANCH   1   9
HETATM    9  S1  UNL     1      -0.315  10.182   9.180  1.00  0.00     0.240 S 
HETATM   10  C1  UNL     1      -1.857  10.570   8.375  1.00  0.00     0.186 C 
HETATM   11  O1  UNL     1       0.209   8.837   8.692  1.00  0.00    -0.206 OA
HETATM   12  O2  UNL     1       0.675  11.232   8.722  1.00  0.00    -0.206 OA
ENDBRANCH   1   9
BRANCH   7  13
HETATM   13  N4  UNL     1      -0.447   8.470  13.913  1.00  0.00    -0.331 N 
ATOM     14  H42 UNL     1      -0.319   7.470  13.759  1.00  0.00     0.177 HD
ATOM     15  H41 UNL     1      -0.001   8.893  14.728  1.00  0.00     0.177 HD
ENDBRANCH   7  13
TORSDOF 2
ENDMDL
MODEL 5
REMARK VINA RESULT: -4.678669073      1.280      1.506
REMARK  2 active torsions:
REMARK  status: ('A' for Active; 'I' for Inactive)
REMARK    1  A    between atoms: S1_2  and  N1_5 
REMARK       I    between atoms: N1_5  and  C2_7 
REMARK       I    between atoms: C2_7  and  N3_11 
REMARK    2  A    between atoms: N3_11  and  N4_13 
ROOT
HETATM    1  N1  UNL     1      -0.875  10.609  10.953  1.00  0.00    -0.116 N 
ATOM      2  H1  UNL     1      -0.236  11.228  11.452  1.00  0.00     0.197 HD
HETATM    3  C2  UNL     1      -1.447   9.523  11.636  1.00  0.00     0.699 C 
HETATM    4  N2  UNL     1      -2.203   8.702  11.036  1.00  0.00    -0.233 N 
ATOM      5  H21 UNL     1      -2.618   7.913  11.532  1.00  0.00     0.174 HD
ATOM      6  H22 UNL     1      -2.388   8.848  10.043  1.00  0.00     0.174 HD
HETATM    7  N3  UNL     1      -1.190   9.322  13.006  1.00  0.00    -0.138 N 
ATOM      8  H3  UNL     1      -1.681   9.928  13.664  1.00  0.00     0.205 HD
ENDROOT
BRANCH   1   9
HETATM    9  S1  UNL     1      -1.224  10.925   9.293  1.00  0.00     0.240 S 
HETATM   10  C1  UNL     1      -0.693   9.588   8.241  1.00  0.00     0.186 C 
HETATM   11  O1  UNL     1      -0.570  12.230   8.856  1.00  0.00    -0.206 OA
HETATM   12  O2  UNL     1      -2.712  11.078   9.060  1.00  0.00    -0.206 OA
ENDBRANCH   1   9
BRANCH   7  13
HETATM   13  N4  UNL     1      -0.332   8.374  13.542  1.00  0.00    -0.331 N 
ATOM     14  H42 UNL     1       0.437   8.078  12.942  1.00  0.00     0.177 HD
ATOM     15  H41 UNL     1      -0.406   7.957  14.470  1.00  0.00     0.177 HD
ENDBRANCH   7  13
TORSDOF 2
ENDMDL
