MODEL 1
REMARK VINA RESULT: -6.283347447      0.000      0.000
REMARK  4 active torsions:
REMARK  status: ('A' for Active; 'I' for Inactive)
REMARK    1  A    between atoms: N2_3  and  O1_4 
REMARK       I    between atoms: N3_6  and  C2_8 
REMARK       I    between atoms: C2_8  and  N5_12 
REMARK    2  A    between atoms: N5_12  and  N6_14 
REMARK    3  A    between atoms: N6_14  and  O2_15 
REMARK    4  A    between atoms: N6_14  and  O3_17 
ROOT
HETATM    1  N1  UNL     1      -1.077   7.034   9.944  1.00  0.00    -0.168 NA
HETATM    2  C1  UNL     1      -1.148   7.917  10.717  1.00  0.00     0.228 C 
HETATM    3  N2  UNL     1      -1.248   8.955  11.650  1.00  0.00    -0.076 N 
HETATM    4  N3  UNL     1      -0.902  10.140  11.357  1.00  0.00    -0.095 N 
ATOM      5  H3  UNL     1      -0.982  10.887  12.047  1.00  0.00     0.209 HD
HETATM    6  C2  UNL     1      -0.409  10.410  10.071  1.00  0.00     0.707 C 
HETATM    7  N4  UNL     1       0.534   9.707   9.557  1.00  0.00    -0.232 N 
ATOM      8  H41 UNL     1       0.892   9.903   8.623  1.00  0.00     0.174 HD
ATOM      9  H42 UNL     1       0.932   8.936  10.095  1.00  0.00     0.174 HD
HETATM   10  N5  UNL     1      -0.962  11.482   9.323  1.00  0.00    -0.103 N 
ATOM     11  H5  UNL     1      -1.962  11.510   9.121  1.00  0.00     0.204 HD
ENDROOT
BRANCH   3  12
HETATM   12  O1  UNL     1      -1.726   8.760  12.934  1.00  0.00    -0.259 OA
ATOM     13  H1  UNL     1      -1.531   9.355  13.649  1.00  0.00     0.247 HD
ENDBRANCH   3  12
BRANCH  10  14
HETATM   14  N6  UNL     1      -0.125  12.490   8.872  1.00  0.00     0.047 NA
BRANCH  14  15
HETATM   15  O2  UNL     1       0.729  12.859   9.864  1.00  0.00    -0.270 OA
ATOM     16  H2  UNL     1       1.101  13.711   9.669  1.00  0.00     0.241 HD
ENDBRANCH  14  15
BRANCH  14  17
HETATM   17  O3  UNL     1       0.635  12.125   7.818  1.00  0.00    -0.270 OA
ATOM     18  H3  UNL     1       0.158  12.109   6.997  1.00  0.00     0.241 HD
ENDBRANCH  14  17
ENDBRANCH  10  14
TORSDOF 4
ENDMDL
MODEL 2
REMARK VINA RESULT: -6.172982691      7.799      8.677
REMARK  4 active torsions:
REMARK  status: ('A' for Active; 'I' for Inactive)
REMARK    1  A    between atoms: N2_3  and  O1_4 
REMARK       I    between atoms: N3_6  and  C2_8 
REMARK       I    between atoms: C2_8  and  N5_12 
REMARK    2  A    between atoms: N5_12  and  N6_14 
REMARK    3  A    between atoms: N6_14  and  O2_15 
REMARK    4  A    between atoms: N6_14  and  O3_17 
ROOT
HETATM    1  N1  UNL     1       0.834   6.007  15.879  1.00  0.00    -0.168 NA
HETATM    2  C1  UNL     1       0.070   5.367  16.502  1.00  0.00     0.228 C 
HETATM    3  N2  UNL     1      -0.826   4.586  17.240  1.00  0.00    -0.076 N 
HETATM    4  N3  UNL     1      -2.020   4.965  17.442  1.00  0.00    -0.095 N 
ATOM      5  H3  UNL     1      -2.663   4.385  17.982  1.00  0.00     0.209 HD
HETATM    6  C2  UNL     1      -2.446   6.193  16.912  1.00  0.00     0.707 C 
HETATM    7  N4  UNL     1      -1.774   7.270  17.100  1.00  0.00    -0.232 N 
ATOM      8  H41 UNL     1      -2.083   8.162  16.715  1.00  0.00     0.174 HD
ATOM      9  H42 UNL     1      -0.912   7.231  17.646  1.00  0.00     0.174 HD
HETATM   10  N5  UNL     1      -3.644   6.246  16.152  1.00  0.00    -0.103 N 
ATOM     11  H5  UNL     1      -3.756   5.665  15.321  1.00  0.00     0.204 HD
ENDROOT
BRANCH   3  12
HETATM   12  O1  UNL     1      -0.474   3.366  17.791  1.00  0.00    -0.259 OA
ATOM     13  H1  UNL     1      -0.453   2.562  17.285  1.00  0.00     0.247 HD
ENDBRANCH   3  12
BRANCH  10  14
HETATM   14  N6  UNL     1      -4.659   7.099  16.556  1.00  0.00     0.047 NA
BRANCH  14  15
HETATM   15  O2  UNL     1      -5.101   6.739  17.791  1.00  0.00    -0.270 OA
ATOM     16  H2  UNL     1      -4.363   6.638  18.381  1.00  0.00     0.241 HD
ENDBRANCH  14  15
BRANCH  14  17
HETATM   17  O3  UNL     1      -4.273   8.389  16.641  1.00  0.00    -0.270 OA
ATOM     18  H3  UNL     1      -4.752   8.965  16.057  1.00  0.00     0.241 HD
ENDBRANCH  14  17
ENDBRANCH  10  14
TORSDOF 4
ENDMDL
MODEL 3
REMARK VINA RESULT: -6.141312467      1.762      2.235
REMARK  4 active torsions:
REMARK  status: ('A' for Active; 'I' for Inactive)
REMARK    1  A    between atoms: N2_3  and  O1_4 
REMARK       I    between atoms: N3_6  and  C2_8 
REMARK       I    between atoms: C2_8  and  N5_12 
REMARK    2  A    between atoms: N5_12  and  N6_14 
REMARK    3  A    between atoms: N6_14  and  O2_15 
REMARK    4  A    between atoms: N6_14  and  O3_17 
ROOT
HETATM    1  N1  UNL     1      -1.399   7.732  11.973  1.00  0.00    -0.168 NA
HETATM    2  C1  UNL     1      -1.710   8.162  10.924  1.00  0.00     0.228 C 
HETATM    3  N2  UNL     1      -2.086   8.651   9.668  1.00  0.00    -0.076 N 
HETATM    4  N3  UNL     1      -1.636   9.754   9.228  1.00  0.00    -0.095 N 
ATOM      5  H3  UNL     1      -1.919  10.098   8.310  1.00  0.00     0.209 HD
HETATM    6  C2  UNL     1      -0.744  10.493  10.020  1.00  0.00     0.707 C 
HETATM    7  N4  UNL     1      -1.010  10.767  11.246  1.00  0.00    -0.232 N 
ATOM      8  H41 UNL     1      -0.362  11.304  11.821  1.00  0.00     0.174 HD
ATOM      9  H42 UNL     1      -1.888  10.440  11.651  1.00  0.00     0.174 HD
HETATM   10  N5  UNL     1       0.476  10.947   9.456  1.00  0.00    -0.103 N 
ATOM     11  H5  UNL     1       1.136  10.285   9.047  1.00  0.00     0.204 HD
ENDROOT
BRANCH   3  12
HETATM   12  O1  UNL     1      -2.961   7.975   8.835  1.00  0.00    -0.259 OA
ATOM     13  H1  UNL     1      -3.371   7.155   9.081  1.00  0.00     0.247 HD
ENDBRANCH   3  12
BRANCH  10  14
HETATM   14  N6  UNL     1       0.760  12.303   9.469  1.00  0.00     0.047 NA
BRANCH  14  15
HETATM   15  O2  UNL     1      -0.228  12.987   8.831  1.00  0.00    -0.270 OA
ATOM     16  H2  UNL     1       0.078  13.857   8.603  1.00  0.00     0.241 HD
ENDBRANCH  14  15
BRANCH  14  17
HETATM   17  O3  UNL     1       0.851  12.820  10.712  1.00  0.00    -0.270 OA
ATOM     18  H3  UNL     1       1.744  13.008  10.978  1.00  0.00     0.241 HD
ENDBRANCH  14  17
ENDBRANCH  10  14
TORSDOF 4
ENDMDL
MODEL 4
REMARK VINA RESULT: -6.041425315      1.633      2.330
REMARK  4 active torsions:
REMARK  status: ('A' for Active; 'I' for Inactive)
REMARK    1  A    between atoms: N2_3  and  O1_4 
REMARK       I    between atoms: N3_6  and  C2_8 
REMARK       I    between atoms: C2_8  and  N5_12 
REMARK    2  A    between atoms: N5_12  and  N6_14 
REMARK    3  A    between atoms: N6_14  and  O2_15 
REMARK    4  A    between atoms: N6_14  and  O3_17 
ROOT
HETATM    1  N1  UNL     1      -1.795   8.481  12.335  1.00  0.00    -0.168 NA
HETATM    2  C1  UNL     1      -1.489   8.166  11.245  1.00  0.00     0.228 C 
HETATM    3  N2  UNL     1      -1.121   7.769   9.955  1.00  0.00    -0.076 N 
HETATM    4  N3  UNL     1      -0.723   8.612   9.093  1.00  0.00    -0.095 N 
ATOM      5  H3  UNL     1      -0.458   8.307   8.156  1.00  0.00     0.209 HD
HETATM    6  C2  UNL     1      -0.654   9.968   9.446  1.00  0.00     0.707 C 
HETATM    7  N4  UNL     1      -1.651  10.568   9.987  1.00  0.00    -0.232 N 
ATOM      8  H41 UNL     1      -1.600  11.554  10.243  1.00  0.00     0.174 HD
ATOM      9  H42 UNL     1      -2.511  10.048  10.165  1.00  0.00     0.174 HD
HETATM   10  N5  UNL     1       0.542  10.692   9.199  1.00  0.00    -0.103 N 
ATOM     11  H5  UNL     1       1.428  10.378   9.594  1.00  0.00     0.204 HD
ENDROOT
BRANCH   3  12
HETATM   12  O1  UNL     1      -1.164   6.449   9.540  1.00  0.00    -0.259 OA
ATOM     13  H1  UNL     1      -0.934   5.725  10.109  1.00  0.00     0.247 HD
ENDBRANCH   3  12
BRANCH  10  14
HETATM   14  N6  UNL     1       0.488  11.832   8.412  1.00  0.00     0.047 NA
BRANCH  14  15
HETATM   15  O2  UNL     1      -0.266  11.594   7.306  1.00  0.00    -0.270 OA
ATOM     16  H2  UNL     1      -0.043  12.216   6.623  1.00  0.00     0.241 HD
ENDBRANCH  14  15
BRANCH  14  17
HETATM   17  O3  UNL     1      -0.065  12.891   9.040  1.00  0.00    -0.270 OA
ATOM     18  H3  UNL     1       0.389  13.708   8.872  1.00  0.00     0.241 HD
ENDBRANCH  14  17
ENDBRANCH  10  14
TORSDOF 4
ENDMDL
MODEL 5
REMARK VINA RESULT: -6.025393638      1.515      4.455
REMARK  4 active torsions:
REMARK  status: ('A' for Active; 'I' for Inactive)
REMARK    1  A    between atoms: N2_3  and  O1_4 
REMARK       I    between atoms: N3_6  and  C2_8 
REMARK       I    between atoms: C2_8  and  N5_12 
REMARK    2  A    between atoms: N5_12  and  N6_14 
REMARK    3  A    between atoms: N6_14  and  O2_15 
REMARK    4  A    between atoms: N6_14  and  O3_17 
ROOT
HETATM    1  N1  UNL     1      -0.981  10.687   7.369  1.00  0.00    -0.168 NA
HETATM    2  C1  UNL     1      -0.587  11.187   8.358  1.00  0.00     0.228 C 
HETATM    3  N2  UNL     1      -0.103  11.796   9.520  1.00  0.00    -0.076 N 
HETATM    4  N3  UNL     1      -0.182  11.220  10.649  1.00  0.00    -0.095 N 
ATOM      5  H3  UNL     1       0.176  11.677  11.488  1.00  0.00     0.209 HD
HETATM    6  C2  UNL     1      -0.765   9.946  10.726  1.00  0.00     0.707 C 
HETATM    7  N4  UNL     1      -1.915   9.707  10.208  1.00  0.00    -0.232 N 
ATOM      8  H41 UNL     1      -2.339   8.782  10.265  1.00  0.00     0.174 HD
ATOM      9  H42 UNL     1      -2.414  10.459   9.730  1.00  0.00     0.174 HD
HETATM   10  N5  UNL     1      -0.072   8.901  11.391  1.00  0.00    -0.103 N 
ATOM     11  H5  UNL     1       0.865   8.630  11.092  1.00  0.00     0.204 HD
ENDROOT
BRANCH   3  12
HETATM   12  O1  UNL     1       0.484  13.050   9.517  1.00  0.00    -0.259 OA
ATOM     13  H1  UNL     1       0.082  13.803   9.101  1.00  0.00     0.247 HD
ENDBRANCH   3  12
BRANCH  10  14
HETATM   14  N6  UNL     1      -0.687   8.254  12.451  1.00  0.00     0.047 NA
BRANCH  14  15
HETATM   15  O2  UNL     1       0.254   7.748  13.292  1.00  0.00    -0.270 OA
ATOM     16  H2  UNL     1      -0.008   6.885  13.588  1.00  0.00     0.241 HD
ENDBRANCH  14  15
BRANCH  14  17
HETATM   17  O3  UNL     1      -1.475   9.064  13.189  1.00  0.00    -0.270 OA
ATOM     18  H3  UNL     1      -0.987   9.637  13.770  1.00  0.00     0.241 HD
ENDBRANCH  14  17
ENDBRANCH  10  14
TORSDOF 4
ENDMDL
