MODEL 1
REMARK VINA RESULT: -5.281540999      0.000      0.000
REMARK  6 active torsions:
REMARK  status: ('A' for Active; 'I' for Inactive)
REMARK    1  A    between atoms: C3_5  and  C4_6 
REMARK    2  A    between atoms: C3_5  and  N3_11 
REMARK    3  A    between atoms: C4_6  and  N2_7 
REMARK    4  A    between atoms: N3_11  and  C5_13 
REMARK    5  A    between atoms: C5_13  and  N4_15 
REMARK    6  A    between atoms: N4_15  and  N5_17 
ROOT
HETATM    1  C1  UNL     1       1.266   6.486  11.731  1.00  0.00     0.037 C 
HETATM    2  C2  UNL     1       0.784   7.544  11.366  1.00  0.00     0.000 C 
HETATM    3  N1  UNL     1       0.251   8.756  10.930  1.00  0.00    -0.304 N 
ATOM      4  H1  UNL     1       0.741   9.286  10.211  1.00  0.00     0.177 HD
HETATM    5  C3  UNL     1      -0.845   9.219  11.416  1.00  0.00     0.116 C 
ENDROOT
BRANCH   5   6
HETATM    6  C4  UNL     1      -1.529   8.418  12.464  1.00  0.00     0.306 C 
BRANCH   6   7
HETATM    7  N2  UNL     1      -1.392   9.060  13.746  1.00  0.00    -0.073 N 
ATOM      8  H23 UNL     1      -1.731   8.471  14.507  1.00  0.00     0.274 HD
ATOM      9  H22 UNL     1      -0.416   9.131  14.035  1.00  0.00     0.274 HD
ATOM     10  H21 UNL     1      -1.852   9.970  13.734  1.00  0.00     0.274 HD
ENDBRANCH   6   7
ENDBRANCH   5   6
BRANCH   5  11
HETATM   11  N3  UNL     1      -1.387  10.471  10.959  1.00  0.00    -0.320 N 
ATOM     12  H3  UNL     1      -1.445  11.252  11.613  1.00  0.00     0.169 HD
BRANCH  11  13
HETATM   13  C5  UNL     1      -1.845  10.655   9.631  1.00  0.00     0.191 C 
HETATM   14  S1  UNL     1      -2.945   9.593   9.067  1.00  0.00    -0.039 SA
BRANCH  13  15
HETATM   15  N4  UNL     1      -1.374  11.702   8.835  1.00  0.00    -0.283 N 
ATOM     16  H4  UNL     1      -1.871  11.937   7.976  1.00  0.00     0.188 HD
BRANCH  15  17
HETATM   17  N5  UNL     1      -0.250  12.426   9.187  1.00  0.00    -0.343 N 
ATOM     18  H52 UNL     1       0.237  12.174  10.047  1.00  0.00     0.176 HD
ATOM     19  H51 UNL     1       0.091  13.194   8.608  1.00  0.00     0.176 HD
ENDBRANCH  15  17
ENDBRANCH  13  15
ENDBRANCH  11  13
ENDBRANCH   5  11
TORSDOF 6
ENDMDL
MODEL 2
REMARK VINA RESULT: -5.155700942      1.442      2.467
REMARK  6 active torsions:
REMARK  status: ('A' for Active; 'I' for Inactive)
REMARK    1  A    between atoms: C3_5  and  C4_6 
REMARK    2  A    between atoms: C3_5  and  N3_11 
REMARK    3  A    between atoms: C4_6  and  N2_7 
REMARK    4  A    between atoms: N3_11  and  C5_13 
REMARK    5  A    between atoms: C5_13  and  N4_15 
REMARK    6  A    between atoms: N4_15  and  N5_17 
ROOT
HETATM    1  C1  UNL     1      -1.823   7.895  13.959  1.00  0.00     0.037 C 
HETATM    2  C2  UNL     1      -1.419   8.556  13.019  1.00  0.00     0.000 C 
HETATM    3  N1  UNL     1      -0.962   9.334  11.957  1.00  0.00    -0.304 N 
ATOM      4  H1  UNL     1      -0.991  10.350  12.033  1.00  0.00     0.177 HD
HETATM    5  C3  UNL     1      -0.503   8.798  10.882  1.00  0.00     0.116 C 
ENDROOT
BRANCH   5   6
HETATM    6  C4  UNL     1      -0.476   7.314  10.807  1.00  0.00     0.306 C 
BRANCH   6   7
HETATM    7  N2  UNL     1      -1.102   6.869   9.588  1.00  0.00    -0.073 N 
ATOM      8  H23 UNL     1      -1.086   7.589   8.865  1.00  0.00     0.274 HD
ATOM      9  H22 UNL     1      -0.545   6.162   9.109  1.00  0.00     0.274 HD
ATOM     10  H21 UNL     1      -2.049   6.543   9.780  1.00  0.00     0.274 HD
ENDBRANCH   6   7
ENDBRANCH   5   6
BRANCH   5  11
HETATM   11  N3  UNL     1      -0.032   9.610   9.792  1.00  0.00    -0.320 N 
ATOM     12  H3  UNL     1       0.847   9.362   9.335  1.00  0.00     0.169 HD
BRANCH  11  13
HETATM   13  C5  UNL     1      -0.747  10.743   9.331  1.00  0.00     0.191 C 
HETATM   14  S1  UNL     1      -2.186  10.476   8.615  1.00  0.00    -0.039 SA
BRANCH  13  15
HETATM   15  N4  UNL     1      -0.242  12.036   9.483  1.00  0.00    -0.283 N 
ATOM     16  H4  UNL     1      -0.477  12.748   8.792  1.00  0.00     0.188 HD
BRANCH  15  17
HETATM   17  N5  UNL     1       0.569  12.372  10.552  1.00  0.00    -0.343 N 
ATOM     18  H52 UNL     1       0.215  13.041  11.236  1.00  0.00     0.176 HD
ATOM     19  H51 UNL     1       1.499  11.967  10.662  1.00  0.00     0.176 HD
ENDBRANCH  15  17
ENDBRANCH  13  15
ENDBRANCH  11  13
ENDBRANCH   5  11
TORSDOF 6
ENDMDL
MODEL 3
REMARK VINA RESULT: -5.143346543      1.967      2.880
REMARK  6 active torsions:
REMARK  status: ('A' for Active; 'I' for Inactive)
REMARK    1  A    between atoms: C3_5  and  C4_6 
REMARK    2  A    between atoms: C3_5  and  N3_11 
REMARK    3  A    between atoms: C4_6  and  N2_7 
REMARK    4  A    between atoms: N3_11  and  C5_13 
REMARK    5  A    between atoms: C5_13  and  N4_15 
REMARK    6  A    between atoms: N4_15  and  N5_17 
ROOT
HETATM    1  C1  UNL     1      -2.184   7.262  13.682  1.00  0.00     0.037 C 
HETATM    2  C2  UNL     1      -1.681   8.156  13.024  1.00  0.00     0.000 C 
HETATM    3  N1  UNL     1      -1.108   9.194  12.292  1.00  0.00    -0.304 N 
ATOM      4  H1  UNL     1      -1.002  10.111  12.726  1.00  0.00     0.177 HD
HETATM    5  C3  UNL     1      -0.711   9.022  11.082  1.00  0.00     0.116 C 
ENDROOT
BRANCH   5   6
HETATM    6  C4  UNL     1      -0.883   7.672  10.484  1.00  0.00     0.306 C 
BRANCH   6   7
HETATM    7  N2  UNL     1      -0.151   7.582   9.246  1.00  0.00    -0.073 N 
ATOM      8  H23 UNL     1      -0.047   8.492   8.797  1.00  0.00     0.274 HD
ATOM      9  H22 UNL     1       0.837   7.378   9.401  1.00  0.00     0.274 HD
ATOM     10  H21 UNL     1      -0.589   6.900   8.629  1.00  0.00     0.274 HD
ENDBRANCH   6   7
ENDBRANCH   5   6
BRANCH   5  11
HETATM   11  N3  UNL     1      -0.119  10.100  10.335  1.00  0.00    -0.320 N 
ATOM     12  H3  UNL     1       0.883  10.271  10.425  1.00  0.00     0.169 HD
BRANCH  11  13
HETATM   13  C5  UNL     1      -0.881  10.932   9.479  1.00  0.00     0.191 C 
HETATM   14  S1  UNL     1      -0.073  12.053   8.615  1.00  0.00    -0.039 SA
BRANCH  13  15
HETATM   15  N4  UNL     1      -2.268  10.800   9.376  1.00  0.00    -0.283 N 
ATOM     16  H4  UNL     1      -2.866  11.297  10.035  1.00  0.00     0.188 HD
BRANCH  15  17
HETATM   17  N5  UNL     1      -2.846  10.007   8.402  1.00  0.00    -0.343 N 
ATOM     18  H52 UNL     1      -2.938  10.390   7.460  1.00  0.00     0.176 HD
ATOM     19  H51 UNL     1      -3.175   9.064   8.608  1.00  0.00     0.176 HD
ENDBRANCH  15  17
ENDBRANCH  13  15
ENDBRANCH  11  13
ENDBRANCH   5  11
TORSDOF 6
ENDMDL
MODEL 4
REMARK VINA RESULT: -5.130957057      1.453      1.725
REMARK  6 active torsions:
REMARK  status: ('A' for Active; 'I' for Inactive)
REMARK    1  A    between atoms: C3_5  and  C4_6 
REMARK    2  A    between atoms: C3_5  and  N3_11 
REMARK    3  A    between atoms: C4_6  and  N2_7 
REMARK    4  A    between atoms: N3_11  and  C5_13 
REMARK    5  A    between atoms: C5_13  and  N4_15 
REMARK    6  A    between atoms: N4_15  and  N5_17 
ROOT
HETATM    1  C1  UNL     1       1.212   6.365  11.572  1.00  0.00     0.037 C 
HETATM    2  C2  UNL     1       0.800   7.462  11.237  1.00  0.00     0.000 C 
HETATM    3  N1  UNL     1       0.348   8.718  10.836  1.00  0.00    -0.304 N 
ATOM      4  H1  UNL     1       0.882   9.243  10.144  1.00  0.00     0.177 HD
HETATM    5  C3  UNL     1      -0.729   9.228  11.318  1.00  0.00     0.116 C 
ENDROOT
BRANCH   5   6
HETATM    6  C4  UNL     1      -1.480   8.432  12.324  1.00  0.00     0.306 C 
BRANCH   6   7
HETATM    7  N2  UNL     1      -1.396   9.064  13.616  1.00  0.00    -0.073 N 
ATOM      8  H23 UNL     1      -1.762  10.016  13.601  1.00  0.00     0.274 HD
ATOM      9  H22 UNL     1      -2.056   8.661  14.282  1.00  0.00     0.274 HD
ATOM     10  H21 UNL     1      -0.437   9.028  13.962  1.00  0.00     0.274 HD
ENDBRANCH   6   7
ENDBRANCH   5   6
BRANCH   5  11
HETATM   11  N3  UNL     1      -1.188  10.525  10.897  1.00  0.00    -0.320 N 
ATOM     12  H3  UNL     1      -1.233  11.279  11.582  1.00  0.00     0.169 HD
BRANCH  11  13
HETATM   13  C5  UNL     1      -1.580  10.789   9.561  1.00  0.00     0.191 C 
HETATM   14  S1  UNL     1      -0.504  11.553   8.605  1.00  0.00    -0.039 SA
BRANCH  13  15
HETATM   15  N4  UNL     1      -2.836  10.410   9.080  1.00  0.00    -0.283 N 
ATOM     16  H4  UNL     1      -3.635  11.023   9.236  1.00  0.00     0.188 HD
BRANCH  15  17
HETATM   17  N5  UNL     1      -3.018   9.221   8.398  1.00  0.00    -0.343 N 
ATOM     18  H52 UNL     1      -2.194   8.740   8.037  1.00  0.00     0.176 HD
ATOM     19  H51 UNL     1      -3.948   8.827   8.255  1.00  0.00     0.176 HD
ENDBRANCH  15  17
ENDBRANCH  13  15
ENDBRANCH  11  13
ENDBRANCH   5  11
TORSDOF 6
ENDMDL
MODEL 5
REMARK VINA RESULT: -5.107232488      1.721      2.835
REMARK  6 active torsions:
REMARK  status: ('A' for Active; 'I' for Inactive)
REMARK    1  A    between atoms: C3_5  and  C4_6 
REMARK    2  A    between atoms: C3_5  and  N3_11 
REMARK    3  A    between atoms: C4_6  and  N2_7 
REMARK    4  A    between atoms: N3_11  and  C5_13 
REMARK    5  A    between atoms: C5_13  and  N4_15 
REMARK    6  A    between atoms: N4_15  and  N5_17 
ROOT
HETATM    1  C1  UNL     1      -2.318   7.760  15.143  1.00  0.00     0.037 C 
HETATM    2  C2  UNL     1      -1.698   8.275  14.228  1.00  0.00     0.000 C 
HETATM    3  N1  UNL     1      -0.988   8.884  13.195  1.00  0.00    -0.304 N 
ATOM      4  H1  UNL     1      -0.762   9.876  13.263  1.00  0.00     0.177 HD
HETATM    5  C3  UNL     1      -0.612   8.224  12.159  1.00  0.00     0.116 C 
ENDROOT
BRANCH   5   6
HETATM    6  C4  UNL     1      -0.962   6.781  12.095  1.00  0.00     0.306 C 
BRANCH   6   7
HETATM    7  N2  UNL     1      -0.637   6.250  10.796  1.00  0.00    -0.073 N 
ATOM      8  H23 UNL     1      -0.511   6.988  10.102  1.00  0.00     0.274 HD
ATOM      9  H22 UNL     1       0.303   5.856  10.768  1.00  0.00     0.274 HD
ATOM     10  H21 UNL     1      -1.343   5.573  10.508  1.00  0.00     0.274 HD
ENDBRANCH   6   7
ENDBRANCH   5   6
BRANCH   5  11
HETATM   11  N3  UNL     1       0.121   8.862  11.099  1.00  0.00    -0.320 N 
ATOM     12  H3  UNL     1       1.080   8.566  10.914  1.00  0.00     0.169 HD
BRANCH  11  13
HETATM   13  C5  UNL     1      -0.444   9.889  10.302  1.00  0.00     0.191 C 
HETATM   14  S1  UNL     1      -0.992   9.471   8.826  1.00  0.00    -0.039 SA
BRANCH  13  15
HETATM   15  N4  UNL     1      -0.530  11.205  10.762  1.00  0.00    -0.283 N 
ATOM     16  H4  UNL     1      -1.354  11.497  11.287  1.00  0.00     0.188 HD
BRANCH  15  17
HETATM   17  N5  UNL     1       0.478  12.121  10.520  1.00  0.00    -0.343 N 
ATOM     18  H52 UNL     1       0.765  12.280   9.554  1.00  0.00     0.176 HD
ATOM     19  H51 UNL     1       0.929  12.630  11.281  1.00  0.00     0.176 HD
ENDBRANCH  15  17
ENDBRANCH  13  15
ENDBRANCH  11  13
ENDBRANCH   5  11
TORSDOF 6
ENDMDL
