MODEL 1
REMARK VINA RESULT: -5.885998927      0.000      0.000
REMARK  4 active torsions:
REMARK  status: ('A' for Active; 'I' for Inactive)
REMARK    1  A    between atoms: C2_2  and  N1_4 
REMARK       I    between atoms: N1_4  and  C4_6 
REMARK    2  A    between atoms: C4_6  and  C5_8 
REMARK       I    between atoms: C5_8  and  N2_10 
REMARK    3  A    between atoms: N2_10  and  N3_12 
REMARK    4  A    between atoms: N3_12  and  N4_13 
ROOT
HETATM    1  C5  UNL     1      -0.477  10.237  10.263  1.00  0.00     0.326 C 
HETATM    2  O2  UNL     1      -0.230   9.799   9.096  1.00  0.00    -0.261 OA
HETATM    3  N2  UNL     1       0.000  11.495  10.665  1.00  0.00    -0.246 N 
ATOM      4  H2  UNL     1      -0.204  11.835  11.605  1.00  0.00     0.187 HD
ENDROOT
BRANCH   1   5
HETATM    5  C4  UNL     1      -1.259   9.361  11.110  1.00  0.00     0.311 C 
HETATM    6  N1  UNL     1      -0.831   8.880  12.362  1.00  0.00    -0.349 N 
ATOM      7  H1  UNL     1       0.085   9.144  12.724  1.00  0.00     0.163 HD
HETATM    8  O1  UNL     1      -2.416   9.029  10.651  1.00  0.00    -0.262 OA
BRANCH   6   9
HETATM    9  C2  UNL     1      -1.687   8.013  13.129  1.00  0.00     0.076 C 
HETATM   10  C1  UNL     1      -1.267   6.559  13.036  1.00  0.00     0.032 C 
HETATM   11  C3  UNL     1      -1.665   8.408  14.606  1.00  0.00     0.032 C 
ENDBRANCH   6   9
ENDBRANCH   1   5
BRANCH   3  12
HETATM   12  N3  UNL     1       0.747  12.281   9.799  1.00  0.00    -0.027 NA
BRANCH  12  13
HETATM   13  N4  UNL     1      -0.147  12.804   8.845  1.00  0.00    -0.329 N 
ATOM     14  H42 UNL     1      -1.129  12.548   8.745  1.00  0.00     0.174 HD
ATOM     15  H41 UNL     1       0.376  13.478   8.285  1.00  0.00     0.174 HD
ENDBRANCH  12  13
ENDBRANCH   3  12
TORSDOF 4
ENDMDL
MODEL 2
REMARK VINA RESULT: -5.331355536      1.234      1.308
REMARK  4 active torsions:
REMARK  status: ('A' for Active; 'I' for Inactive)
REMARK    1  A    between atoms: C2_2  and  N1_4 
REMARK       I    between atoms: N1_4  and  C4_6 
REMARK    2  A    between atoms: C4_6  and  C5_8 
REMARK       I    between atoms: C5_8  and  N2_10 
REMARK    3  A    between atoms: N2_10  and  N3_12 
REMARK    4  A    between atoms: N3_12  and  N4_13 
ROOT
HETATM    1  C5  UNL     1      -1.194  10.134   9.774  1.00  0.00     0.326 C 
HETATM    2  O2  UNL     1      -2.281  10.742   9.523  1.00  0.00    -0.261 OA
HETATM    3  N2  UNL     1      -0.006  10.505   9.123  1.00  0.00    -0.246 N 
ATOM      4  H2  UNL     1       0.860  10.009   9.333  1.00  0.00     0.187 HD
ENDROOT
BRANCH   1   5
HETATM    5  C4  UNL     1      -1.282   9.067  10.749  1.00  0.00     0.311 C 
HETATM    6  N1  UNL     1      -0.983   9.218  12.117  1.00  0.00    -0.349 N 
ATOM      7  H1  UNL     1      -0.680  10.123  12.477  1.00  0.00     0.163 HD
HETATM    8  O1  UNL     1      -1.667   7.926  10.293  1.00  0.00    -0.262 OA
BRANCH   6   9
HETATM    9  C2  UNL     1      -1.105   8.093  13.007  1.00  0.00     0.076 C 
HETATM   10  C1  UNL     1       0.221   7.395  13.238  1.00  0.00     0.032 C 
HETATM   11  C3  UNL     1      -1.636   8.541  14.368  1.00  0.00     0.032 C 
ENDBRANCH   6   9
ENDBRANCH   1   5
BRANCH   3  12
HETATM   12  N3  UNL     1       0.003  11.539   8.197  1.00  0.00    -0.027 NA
BRANCH  12  13
HETATM   13  N4  UNL     1      -0.334  12.716   8.893  1.00  0.00    -0.329 N 
ATOM     14  H42 UNL     1      -1.206  13.236   8.799  1.00  0.00     0.174 HD
ATOM     15  H41 UNL     1       0.456  12.940   9.498  1.00  0.00     0.174 HD
ENDBRANCH  12  13
ENDBRANCH   3  12
TORSDOF 4
ENDMDL
MODEL 3
REMARK VINA RESULT: -5.280498502      1.260      1.356
REMARK  4 active torsions:
REMARK  status: ('A' for Active; 'I' for Inactive)
REMARK    1  A    between atoms: C2_2  and  N1_4 
REMARK       I    between atoms: N1_4  and  C4_6 
REMARK    2  A    between atoms: C4_6  and  C5_8 
REMARK       I    between atoms: C5_8  and  N2_10 
REMARK    3  A    between atoms: N2_10  and  N3_12 
REMARK    4  A    between atoms: N3_12  and  N4_13 
ROOT
HETATM    1  C5  UNL     1      -0.071  10.131  10.070  1.00  0.00     0.326 C 
HETATM    2  O2  UNL     1       0.076   9.845   8.840  1.00  0.00    -0.261 OA
HETATM    3  N2  UNL     1       0.283  11.402  10.551  1.00  0.00    -0.246 N 
ATOM      4  H2  UNL     1       0.161  11.619  11.540  1.00  0.00     0.187 HD
ENDROOT
BRANCH   1   5
HETATM    5  C4  UNL     1      -0.610   9.074  10.900  1.00  0.00     0.311 C 
HETATM    6  N1  UNL     1       0.049   7.857  11.160  1.00  0.00    -0.349 N 
ATOM      7  H1  UNL     1       0.966   7.675  10.751  1.00  0.00     0.163 HD
HETATM    8  O1  UNL     1      -1.767   9.306  11.416  1.00  0.00    -0.262 OA
BRANCH   6   9
HETATM    9  C2  UNL     1      -0.572   6.869  12.003  1.00  0.00     0.076 C 
HETATM   10  C1  UNL     1      -0.399   5.462  11.464  1.00  0.00     0.032 C 
HETATM   11  C3  UNL     1       0.032   6.904  13.406  1.00  0.00     0.032 C 
ENDBRANCH   6   9
ENDBRANCH   1   5
BRANCH   3  12
HETATM   12  N3  UNL     1       0.797  12.367   9.695  1.00  0.00    -0.027 NA
BRANCH  12  13
HETATM   13  N4  UNL     1      -0.256  12.770   8.852  1.00  0.00    -0.329 N 
ATOM     14  H42 UNL     1      -0.500  13.733   8.620  1.00  0.00     0.174 HD
ATOM     15  H41 UNL     1      -0.718  11.920   8.526  1.00  0.00     0.174 HD
ENDBRANCH  12  13
ENDBRANCH   3  12
TORSDOF 4
ENDMDL
MODEL 4
REMARK VINA RESULT: -5.120051790      4.654      7.053
REMARK  4 active torsions:
REMARK  status: ('A' for Active; 'I' for Inactive)
REMARK    1  A    between atoms: C2_2  and  N1_4 
REMARK       I    between atoms: N1_4  and  C4_6 
REMARK    2  A    between atoms: C4_6  and  C5_8 
REMARK       I    between atoms: C5_8  and  N2_10 
REMARK    3  A    between atoms: N2_10  and  N3_12 
REMARK    4  A    between atoms: N3_12  and  N4_13 
ROOT
HETATM    1  C5  UNL     1      -1.750   6.658  16.492  1.00  0.00     0.326 C 
HETATM    2  O2  UNL     1      -1.407   7.273  17.550  1.00  0.00    -0.261 OA
HETATM    3  N2  UNL     1      -2.806   5.733  16.519  1.00  0.00    -0.246 N 
ATOM      4  H2  UNL     1      -3.072   5.245  15.664  1.00  0.00     0.187 HD
ENDROOT
BRANCH   1   5
HETATM    5  C4  UNL     1      -0.987   6.979  15.304  1.00  0.00     0.311 C 
HETATM    6  N1  UNL     1      -1.553   7.446  14.101  1.00  0.00    -0.349 N 
ATOM      7  H1  UNL     1      -2.562   7.575  14.028  1.00  0.00     0.163 HD
HETATM    8  O1  UNL     1       0.287   6.817  15.399  1.00  0.00    -0.262 OA
BRANCH   6   9
HETATM    9  C2  UNL     1      -0.705   7.740  12.975  1.00  0.00     0.076 C 
HETATM   10  C1  UNL     1      -0.536   6.546  12.055  1.00  0.00     0.032 C 
HETATM   11  C3  UNL     1      -1.290   8.883  12.147  1.00  0.00     0.032 C 
ENDBRANCH   6   9
ENDBRANCH   1   5
BRANCH   3  12
HETATM   12  N3  UNL     1      -3.493   5.474  17.697  1.00  0.00    -0.027 NA
BRANCH  12  13
HETATM   13  N4  UNL     1      -4.553   6.398  17.766  1.00  0.00    -0.329 N 
ATOM     14  H42 UNL     1      -4.521   7.311  18.221  1.00  0.00     0.174 HD
ATOM     15  H41 UNL     1      -5.345   5.979  17.278  1.00  0.00     0.174 HD
ENDBRANCH  12  13
ENDBRANCH   3  12
TORSDOF 4
ENDMDL
MODEL 5
REMARK VINA RESULT: -5.086363032      1.996      2.047
REMARK  4 active torsions:
REMARK  status: ('A' for Active; 'I' for Inactive)
REMARK    1  A    between atoms: C2_2  and  N1_4 
REMARK       I    between atoms: N1_4  and  C4_6 
REMARK    2  A    between atoms: C4_6  and  C5_8 
REMARK       I    between atoms: C5_8  and  N2_10 
REMARK    3  A    between atoms: N2_10  and  N3_12 
REMARK    4  A    between atoms: N3_12  and  N4_13 
ROOT
HETATM    1  C5  UNL     1      -1.426   9.788  10.660  1.00  0.00     0.326 C 
HETATM    2  O2  UNL     1      -0.394  10.526  10.585  1.00  0.00    -0.261 OA
HETATM    3  N2  UNL     1      -2.509   9.990   9.789  1.00  0.00    -0.246 N 
ATOM      4  H2  UNL     1      -3.331   9.392   9.859  1.00  0.00     0.187 HD
ENDROOT
BRANCH   1   5
HETATM    5  C4  UNL     1      -1.392   8.763  11.683  1.00  0.00     0.311 C 
HETATM    6  N1  UNL     1      -1.357   9.026  13.066  1.00  0.00    -0.349 N 
ATOM      7  H1  UNL     1      -1.352   9.989  13.403  1.00  0.00     0.163 HD
HETATM    8  O1  UNL     1      -1.400   7.549  11.255  1.00  0.00    -0.262 OA
BRANCH   6   9
HETATM    9  C2  UNL     1      -1.328   7.934  14.004  1.00  0.00     0.076 C 
HETATM   10  C1  UNL     1       0.086   7.548  14.394  1.00  0.00     0.032 C 
HETATM   11  C3  UNL     1      -2.075   8.307  15.284  1.00  0.00     0.032 C 
ENDBRANCH   6   9
ENDBRANCH   1   5
BRANCH   3  12
HETATM   12  N3  UNL     1      -2.471  10.995   8.832  1.00  0.00    -0.027 NA
BRANCH  12  13
HETATM   13  N4  UNL     1      -1.644  10.538   7.788  1.00  0.00    -0.329 N 
ATOM     14  H42 UNL     1      -1.103  11.126   7.154  1.00  0.00     0.174 HD
ATOM     15  H41 UNL     1      -1.695   9.519   7.793  1.00  0.00     0.174 HD
ENDBRANCH  12  13
ENDBRANCH   3  12
TORSDOF 4
ENDMDL
