MODEL 1
REMARK VINA RESULT: -5.696830941      0.000      0.000
REMARK  5 active torsions:
REMARK  status: ('A' for Active; 'I' for Inactive)
REMARK       I    between atoms: C2_2  and  N1_4 
REMARK    1  A    between atoms: N1_4  and  N2_6 
REMARK    2  A    between atoms: N2_6  and  C3_8 
REMARK    3  A    between atoms: C3_8  and  O2_15 
REMARK    4  A    between atoms: N3_9  and  C4_11 
REMARK    5  A    between atoms: O2_15  and  N5_16 
ROOT
HETATM    1  C3  UNL     1      75.562  10.988  32.082  1.00  0.00     0.262 C 
HETATM    2  N3  UNL     1      75.021  11.849  31.311  1.00  0.00    -0.316 N 
ATOM      3  H3  UNL     1      75.374  11.991  30.365  1.00  0.00     0.170 HD
ENDROOT
BRANCH   1   4
HETATM    4  N2  UNL     1      75.093  10.775  33.393  1.00  0.00    -0.261 N 
ATOM      5  H2  UNL     1      75.105  11.544  34.063  1.00  0.00     0.190 HD
BRANCH   4   6
HETATM    6  N1  UNL     1      74.613   9.524  33.789  1.00  0.00    -0.267 N 
HETATM    7  C2  UNL     1      73.254   9.244  34.011  1.00  0.00     0.232 C 
HETATM    8  C1  UNL     1      72.833   7.892  34.429  1.00  0.00     0.119 C 
HETATM    9  O1  UNL     1      72.403  10.170  33.847  1.00  0.00    -0.272 OA
ATOM     10  H1  UNL     1      75.287   8.771  33.923  1.00  0.00     0.190 HD
ENDBRANCH   4   6
ENDBRANCH   1   4
BRANCH   1  11
HETATM   11  O2  UNL     1      76.629  10.257  31.612  1.00  0.00    -0.206 OA
BRANCH  11  12
HETATM   12  N5  UNL     1      76.438   9.482  30.472  1.00  0.00    -0.302 N 
ATOM     13  H52 UNL     1      76.506   9.908  29.547  1.00  0.00     0.184 HD
ATOM     14  H51 UNL     1      76.231   8.491  30.596  1.00  0.00     0.184 HD
ENDBRANCH  11  12
ENDBRANCH   1  11
BRANCH   2  15
HETATM   15  C4  UNL     1      73.921  12.605  31.793  1.00  0.00     0.176 C 
HETATM   16  N4  UNL     1      73.247  13.392  31.026  1.00  0.00    -0.395 N 
ATOM     17  H42 UNL     1      73.526  13.461  30.047  1.00  0.00     0.156 HD
ATOM     18  H41 UNL     1      72.456  13.936  31.372  1.00  0.00     0.156 HD
ENDBRANCH   2  15
TORSDOF 5
ENDMDL
MODEL 2
REMARK VINA RESULT: -5.692259760      1.386      1.439
REMARK  5 active torsions:
REMARK  status: ('A' for Active; 'I' for Inactive)
REMARK       I    between atoms: C2_2  and  N1_4 
REMARK    1  A    between atoms: N1_4  and  N2_6 
REMARK    2  A    between atoms: N2_6  and  C3_8 
REMARK    3  A    between atoms: C3_8  and  O2_15 
REMARK    4  A    between atoms: N3_9  and  C4_11 
REMARK    5  A    between atoms: O2_15  and  N5_16 
ROOT
HETATM    1  C3  UNL     1      75.684  10.978  32.020  1.00  0.00     0.262 C 
HETATM    2  N3  UNL     1      75.972  12.131  32.485  1.00  0.00    -0.316 N 
ATOM      3  H3  UNL     1      76.941  12.444  32.529  1.00  0.00     0.170 HD
ENDROOT
BRANCH   1   4
HETATM    4  N2  UNL     1      74.353  10.523  31.949  1.00  0.00    -0.261 N 
ATOM      5  H2  UNL     1      73.723  10.917  31.251  1.00  0.00     0.190 HD
BRANCH   4   6
HETATM    6  N1  UNL     1      73.885   9.538  32.823  1.00  0.00    -0.267 N 
HETATM    7  C2  UNL     1      72.828   9.736  33.728  1.00  0.00     0.232 C 
HETATM    8  C1  UNL     1      72.397   8.639  34.618  1.00  0.00     0.119 C 
HETATM    9  O1  UNL     1      72.258  10.868  33.766  1.00  0.00    -0.272 OA
ATOM     10  H1  UNL     1      74.336   8.623  32.803  1.00  0.00     0.190 HD
ENDBRANCH   4   6
ENDBRANCH   1   4
BRANCH   1  11
HETATM   11  O2  UNL     1      76.706  10.168  31.580  1.00  0.00    -0.206 OA
BRANCH  11  12
HETATM   12  N5  UNL     1      76.504   9.438  30.412  1.00  0.00    -0.302 N 
ATOM     13  H52 UNL     1      75.558   9.284  30.062  1.00  0.00     0.184 HD
ATOM     14  H51 UNL     1      77.324   9.070  29.930  1.00  0.00     0.184 HD
ENDBRANCH  11  12
ENDBRANCH   1  11
BRANCH   2  15
HETATM   15  C4  UNL     1      74.920  12.969  32.939  1.00  0.00     0.176 C 
HETATM   16  N4  UNL     1      74.610  13.056  34.188  1.00  0.00    -0.395 N 
ATOM     17  H42 UNL     1      75.146  12.500  34.854  1.00  0.00     0.156 HD
ATOM     18  H41 UNL     1      73.854  13.658  34.514  1.00  0.00     0.156 HD
ENDBRANCH   2  15
TORSDOF 5
ENDMDL
MODEL 3
REMARK VINA RESULT: -5.629854711      2.198      2.411
REMARK  5 active torsions:
REMARK  status: ('A' for Active; 'I' for Inactive)
REMARK       I    between atoms: C2_2  and  N1_4 
REMARK    1  A    between atoms: N1_4  and  N2_6 
REMARK    2  A    between atoms: N2_6  and  C3_8 
REMARK    3  A    between atoms: C3_8  and  O2_15 
REMARK    4  A    between atoms: N3_9  and  C4_11 
REMARK    5  A    between atoms: O2_15  and  N5_16 
ROOT
HETATM    1  C3  UNL     1      75.201  13.257  33.482  1.00  0.00     0.262 C 
HETATM    2  N3  UNL     1      74.896  13.715  32.331  1.00  0.00    -0.316 N 
ATOM      3  H3  UNL     1      75.550  14.308  31.820  1.00  0.00     0.170 HD
ENDROOT
BRANCH   1   4
HETATM    4  N2  UNL     1      74.315  12.437  34.208  1.00  0.00    -0.261 N 
ATOM      5  H2  UNL     1      73.623  12.865  34.824  1.00  0.00     0.190 HD
BRANCH   4   6
HETATM    6  N1  UNL     1      74.369  11.045  34.096  1.00  0.00    -0.267 N 
HETATM    7  C2  UNL     1      73.284  10.251  33.689  1.00  0.00     0.232 C 
HETATM    8  C1  UNL     1      73.429   8.785  33.598  1.00  0.00     0.119 C 
HETATM    9  O1  UNL     1      72.184  10.816  33.404  1.00  0.00    -0.272 OA
ATOM     10  H1  UNL     1      75.248  10.579  34.322  1.00  0.00     0.190 HD
ENDBRANCH   4   6
ENDBRANCH   1   4
BRANCH   1  11
HETATM   11  O2  UNL     1      76.427  13.578  34.019  1.00  0.00    -0.206 OA
BRANCH  11  12
HETATM   12  N5  UNL     1      77.387  12.573  34.102  1.00  0.00    -0.302 N 
ATOM     13  H52 UNL     1      78.011  12.527  34.908  1.00  0.00     0.184 HD
ATOM     14  H51 UNL     1      77.438  11.898  33.339  1.00  0.00     0.184 HD
ENDBRANCH  11  12
ENDBRANCH   1  11
BRANCH   2  15
HETATM   15  C4  UNL     1      73.632  13.386  31.775  1.00  0.00     0.176 C 
HETATM   16  N4  UNL     1      73.513  12.543  30.807  1.00  0.00    -0.395 N 
ATOM     17  H42 UNL     1      74.361  12.109  30.442  1.00  0.00     0.156 HD
ATOM     18  H41 UNL     1      72.604  12.307  30.407  1.00  0.00     0.156 HD
ENDBRANCH   2  15
TORSDOF 5
ENDMDL
MODEL 4
REMARK VINA RESULT: -5.531179245      2.044      2.548
REMARK  5 active torsions:
REMARK  status: ('A' for Active; 'I' for Inactive)
REMARK       I    between atoms: C2_2  and  N1_4 
REMARK    1  A    between atoms: N1_4  and  N2_6 
REMARK    2  A    between atoms: N2_6  and  C3_8 
REMARK    3  A    between atoms: C3_8  and  O2_15 
REMARK    4  A    between atoms: N3_9  and  C4_11 
REMARK    5  A    between atoms: O2_15  and  N5_16 
ROOT
HETATM    1  C3  UNL     1      75.743  11.855  32.315  1.00  0.00     0.262 C 
HETATM    2  N3  UNL     1      74.739  12.627  32.468  1.00  0.00    -0.316 N 
ATOM      3  H3  UNL     1      74.714  13.298  33.236  1.00  0.00     0.170 HD
ENDROOT
BRANCH   1   4
HETATM    4  N2  UNL     1      75.800  10.919  31.264  1.00  0.00    -0.261 N 
ATOM      5  H2  UNL     1      75.643  11.229  30.305  1.00  0.00     0.190 HD
BRANCH   4   6
HETATM    6  N1  UNL     1      76.069   9.571  31.517  1.00  0.00    -0.267 N 
HETATM    7  C2  UNL     1      75.129   8.675  32.054  1.00  0.00     0.232 C 
HETATM    8  C1  UNL     1      75.498   7.265  32.291  1.00  0.00     0.119 C 
HETATM    9  O1  UNL     1      73.966   9.100  32.332  1.00  0.00    -0.272 OA
ATOM     10  H1  UNL     1      77.000   9.218  31.298  1.00  0.00     0.190 HD
ENDBRANCH   4   6
ENDBRANCH   1   4
BRANCH   1  11
HETATM   11  O2  UNL     1      76.790  11.946  33.204  1.00  0.00    -0.206 OA
BRANCH  11  12
HETATM   12  N5  UNL     1      76.535  12.489  34.460  1.00  0.00    -0.302 N 
ATOM     13  H52 UNL     1      76.980  13.364  34.739  1.00  0.00     0.184 HD
ATOM     14  H51 UNL     1      75.896  11.988  35.077  1.00  0.00     0.184 HD
ENDBRANCH  11  12
ENDBRANCH   1  11
BRANCH   2  15
HETATM   15  C4  UNL     1      73.658  12.535  31.553  1.00  0.00     0.176 C 
HETATM   16  N4  UNL     1      73.065  13.583  31.093  1.00  0.00    -0.395 N 
ATOM     17  H42 UNL     1      73.395  14.496  31.406  1.00  0.00     0.156 HD
ATOM     18  H41 UNL     1      72.287  13.517  30.436  1.00  0.00     0.156 HD
ENDBRANCH   2  15
TORSDOF 5
ENDMDL
MODEL 5
REMARK VINA RESULT: -5.521458536      2.640      3.321
REMARK  5 active torsions:
REMARK  status: ('A' for Active; 'I' for Inactive)
REMARK       I    between atoms: C2_2  and  N1_4 
REMARK    1  A    between atoms: N1_4  and  N2_6 
REMARK    2  A    between atoms: N2_6  and  C3_8 
REMARK    3  A    between atoms: C3_8  and  O2_15 
REMARK    4  A    between atoms: N3_9  and  C4_11 
REMARK    5  A    between atoms: O2_15  and  N5_16 
ROOT
HETATM    1  C3  UNL     1      75.782  11.780  32.327  1.00  0.00     0.262 C 
HETATM    2  N3  UNL     1      74.764  12.534  32.477  1.00  0.00    -0.316 N 
ATOM      3  H3  UNL     1      74.709  13.179  33.266  1.00  0.00     0.170 HD
ENDROOT
BRANCH   1   4
HETATM    4  N2  UNL     1      75.881  10.882  31.247  1.00  0.00    -0.261 N 
ATOM      5  H2  UNL     1      76.179  11.224  30.333  1.00  0.00     0.190 HD
BRANCH   4   6
HETATM    6  N1  UNL     1      75.575   9.528  31.409  1.00  0.00    -0.267 N 
HETATM    7  C2  UNL     1      76.523   8.496  31.313  1.00  0.00     0.232 C 
HETATM    8  C1  UNL     1      76.113   7.090  31.498  1.00  0.00     0.119 C 
HETATM    9  O1  UNL     1      77.731   8.795  31.064  1.00  0.00    -0.272 OA
ATOM     10  H1  UNL     1      74.607   9.274  31.610  1.00  0.00     0.190 HD
ENDBRANCH   4   6
ENDBRANCH   1   4
BRANCH   1  11
HETATM   11  O2  UNL     1      76.802  11.853  33.249  1.00  0.00    -0.206 OA
BRANCH  11  12
HETATM   12  N5  UNL     1      76.533  12.457  34.473  1.00  0.00    -0.302 N 
ATOM     13  H52 UNL     1      76.138  13.398  34.504  1.00  0.00     0.184 HD
ATOM     14  H51 UNL     1      76.742  11.932  35.322  1.00  0.00     0.184 HD
ENDBRANCH  11  12
ENDBRANCH   1  11
BRANCH   2  15
HETATM   15  C4  UNL     1      73.711  12.462  31.528  1.00  0.00     0.176 C 
HETATM   16  N4  UNL     1      73.121  13.518  31.083  1.00  0.00    -0.395 N 
ATOM     17  H42 UNL     1      73.432  14.424  31.434  1.00  0.00     0.156 HD
ATOM     18  H41 UNL     1      72.363  13.465  30.402  1.00  0.00     0.156 HD
ENDBRANCH   2  15
TORSDOF 5
ENDMDL
