MODEL 1
REMARK VINA RESULT: -5.874166387      0.000      0.000
REMARK  3 active torsions:
REMARK  status: ('A' for Active; 'I' for Inactive)
REMARK    1  A    between atoms: C2_2  and  N2_5 
REMARK       I    between atoms: N2_5  and  C4_7 
REMARK    2  A    between atoms: C4_7  and  C5_9 
REMARK       I    between atoms: C5_9  and  N3_11 
REMARK    3  A    between atoms: N3_11  and  N4_13 
ROOT
HETATM    1  C1  UNL     1      75.308   7.688  31.987  1.00  0.00     0.048 C 
HETATM    2  C2  UNL     1      76.233   8.853  31.847  1.00  0.00     0.188 C 
HETATM    3  C3  UNL     1      77.134   8.639  30.710  1.00  0.00     0.084 C 
HETATM    4  N1  UNL     1      77.842   8.451  29.799  1.00  0.00    -0.195 NA
ENDROOT
BRANCH   2   5
HETATM    5  N2  UNL     1      75.431  10.046  31.673  1.00  0.00    -0.336 N 
HETATM    6  C4  UNL     1      75.832  11.330  32.075  1.00  0.00     0.312 C 
HETATM    7  O1  UNL     1      76.941  11.484  32.618  1.00  0.00    -0.262 OA
ATOM      8  H2  UNL     1      74.516   9.948  31.231  1.00  0.00     0.164 HD
BRANCH   6   9
HETATM    9  C5  UNL     1      74.962  12.467  31.862  1.00  0.00     0.327 C 
HETATM   10  O2  UNL     1      75.245  13.579  32.423  1.00  0.00    -0.261 OA
HETATM   11  N3  UNL     1      73.801  12.418  31.057  1.00  0.00    -0.268 N 
ATOM     12  H3  UNL     1      73.538  11.551  30.590  1.00  0.00     0.190 HD
BRANCH  11  13
HETATM   13  N4  UNL     1      73.021  13.556  30.905  1.00  0.00    -0.342 N 
ATOM     14  H42 UNL     1      72.064  13.554  31.259  1.00  0.00     0.176 HD
ATOM     15  H41 UNL     1      73.411  14.378  30.444  1.00  0.00     0.176 HD
ENDBRANCH  11  13
ENDBRANCH   6   9
ENDBRANCH   2   5
TORSDOF 3
ENDMDL
MODEL 2
REMARK VINA RESULT: -5.827110100      1.813      4.829
REMARK  3 active torsions:
REMARK  status: ('A' for Active; 'I' for Inactive)
REMARK    1  A    between atoms: C2_2  and  N2_5 
REMARK       I    between atoms: N2_5  and  C4_7 
REMARK    2  A    between atoms: C4_7  and  C5_9 
REMARK       I    between atoms: C5_9  and  N3_11 
REMARK    3  A    between atoms: N3_11  and  N4_13 
ROOT
HETATM    1  C1  UNL     1      72.953  13.173  31.151  1.00  0.00     0.048 C 
HETATM    2  C2  UNL     1      74.194  12.859  31.920  1.00  0.00     0.188 C 
HETATM    3  C3  UNL     1      73.930  12.970  33.358  1.00  0.00     0.084 C 
HETATM    4  N1  UNL     1      73.699  13.061  34.501  1.00  0.00    -0.195 NA
ENDROOT
BRANCH   2   5
HETATM    5  N2  UNL     1      74.621  11.523  31.559  1.00  0.00    -0.336 N 
HETATM    6  C4  UNL     1      75.894  11.001  31.839  1.00  0.00     0.312 C 
HETATM    7  O1  UNL     1      76.730  11.706  32.433  1.00  0.00    -0.262 OA
ATOM      8  H2  UNL     1      73.956  10.924  31.070  1.00  0.00     0.164 HD
BRANCH   6   9
HETATM    9  C5  UNL     1      76.234   9.652  31.438  1.00  0.00     0.327 C 
HETATM   10  O2  UNL     1      76.186   8.715  32.306  1.00  0.00    -0.261 OA
HETATM   11  N3  UNL     1      76.624   9.306  30.124  1.00  0.00    -0.268 N 
ATOM     12  H3  UNL     1      76.677  10.022  29.400  1.00  0.00     0.190 HD
BRANCH  11  13
HETATM   13  N4  UNL     1      76.934   7.987  29.824  1.00  0.00    -0.342 N 
ATOM     14  H42 UNL     1      76.256   7.419  29.317  1.00  0.00     0.176 HD
ATOM     15  H41 UNL     1      77.834   7.601  30.113  1.00  0.00     0.176 HD
ENDBRANCH  11  13
ENDBRANCH   6   9
ENDBRANCH   2   5
TORSDOF 3
ENDMDL
MODEL 3
REMARK VINA RESULT: -5.736945484      3.355      3.664
REMARK  3 active torsions:
REMARK  status: ('A' for Active; 'I' for Inactive)
REMARK    1  A    between atoms: C2_2  and  N2_5 
REMARK       I    between atoms: N2_5  and  C4_7 
REMARK    2  A    between atoms: C4_7  and  C5_9 
REMARK       I    between atoms: C5_9  and  N3_11 
REMARK    3  A    between atoms: N3_11  and  N4_13 
ROOT
HETATM    1  C1  UNL     1      73.913   7.038  33.749  1.00  0.00     0.048 C 
HETATM    2  C2  UNL     1      74.184   8.207  34.638  1.00  0.00     0.188 C 
HETATM    3  C3  UNL     1      75.500   8.059  35.266  1.00  0.00     0.084 C 
HETATM    4  N1  UNL     1      76.554   7.925  35.755  1.00  0.00    -0.195 NA
ENDROOT
BRANCH   2   5
HETATM    5  N2  UNL     1      74.109   9.410  33.835  1.00  0.00    -0.336 N 
HETATM    6  C4  UNL     1      72.944  10.177  33.673  1.00  0.00     0.312 C 
HETATM    7  O1  UNL     1      71.894   9.826  34.241  1.00  0.00    -0.262 OA
ATOM      8  H2  UNL     1      74.955   9.720  33.357  1.00  0.00     0.164 HD
BRANCH   6   9
HETATM    9  C5  UNL     1      72.962  11.367  32.848  1.00  0.00     0.327 C 
HETATM   10  O2  UNL     1      72.423  12.437  33.290  1.00  0.00    -0.261 OA
HETATM   11  N3  UNL     1      73.550  11.414  31.564  1.00  0.00    -0.268 N 
ATOM     12  H3  UNL     1      73.991  10.583  31.172  1.00  0.00     0.190 HD
BRANCH  11  13
HETATM   13  N4  UNL     1      73.523  12.597  30.838  1.00  0.00    -0.342 N 
ATOM     14  H42 UNL     1      72.821  12.717  30.109  1.00  0.00     0.176 HD
ATOM     15  H41 UNL     1      74.203  13.330  31.042  1.00  0.00     0.176 HD
ENDBRANCH  11  13
ENDBRANCH   6   9
ENDBRANCH   2   5
TORSDOF 3
ENDMDL
MODEL 4
REMARK VINA RESULT: -5.667961124      2.252      4.968
REMARK  3 active torsions:
REMARK  status: ('A' for Active; 'I' for Inactive)
REMARK    1  A    between atoms: C2_2  and  N2_5 
REMARK       I    between atoms: N2_5  and  C4_7 
REMARK    2  A    between atoms: C4_7  and  C5_9 
REMARK       I    between atoms: C5_9  and  N3_11 
REMARK    3  A    between atoms: N3_11  and  N4_13 
ROOT
HETATM    1  C1  UNL     1      75.837  13.626  33.598  1.00  0.00     0.048 C 
HETATM    2  C2  UNL     1      74.921  12.457  33.754  1.00  0.00     0.188 C 
HETATM    3  C3  UNL     1      73.527  12.910  33.730  1.00  0.00     0.084 C 
HETATM    4  N1  UNL     1      72.422  13.290  33.705  1.00  0.00    -0.195 NA
ENDROOT
BRANCH   2   5
HETATM    5  N2  UNL     1      75.196  11.523  32.682  1.00  0.00    -0.336 N 
HETATM    6  C4  UNL     1      75.402  10.147  32.870  1.00  0.00     0.312 C 
HETATM    7  O1  UNL     1      75.351   9.670  34.018  1.00  0.00    -0.262 OA
ATOM      8  H2  UNL     1      75.244  11.888  31.731  1.00  0.00     0.164 HD
BRANCH   6   9
HETATM    9  C5  UNL     1      75.673   9.287  31.737  1.00  0.00     0.327 C 
HETATM   10  O2  UNL     1      75.195   8.103  31.727  1.00  0.00    -0.261 OA
HETATM   11  N3  UNL     1      76.447   9.688  30.624  1.00  0.00    -0.268 N 
ATOM     12  H3  UNL     1      76.848  10.626  30.590  1.00  0.00     0.190 HD
BRANCH  11  13
HETATM   13  N4  UNL     1      76.660   8.801  29.578  1.00  0.00    -0.342 N 
ATOM     14  H42 UNL     1      75.901   8.614  28.923  1.00  0.00     0.176 HD
ATOM     15  H41 UNL     1      77.568   8.348  29.477  1.00  0.00     0.176 HD
ENDBRANCH  11  13
ENDBRANCH   6   9
ENDBRANCH   2   5
TORSDOF 3
ENDMDL
MODEL 5
REMARK VINA RESULT: -5.650561456      1.801      1.899
REMARK  3 active torsions:
REMARK  status: ('A' for Active; 'I' for Inactive)
REMARK    1  A    between atoms: C2_2  and  N2_5 
REMARK       I    between atoms: N2_5  and  C4_7 
REMARK    2  A    between atoms: C4_7  and  C5_9 
REMARK       I    between atoms: C5_9  and  N3_11 
REMARK    3  A    between atoms: N3_11  and  N4_13 
ROOT
HETATM    1  C1  UNL     1      74.402   6.909  33.356  1.00  0.00     0.048 C 
HETATM    2  C2  UNL     1      75.270   7.883  32.630  1.00  0.00     0.188 C 
HETATM    3  C3  UNL     1      75.896   7.228  31.477  1.00  0.00     0.084 C 
HETATM    4  N1  UNL     1      76.384   6.689  30.561  1.00  0.00    -0.195 NA
ENDROOT
BRANCH   2   5
HETATM    5  N2  UNL     1      74.449   9.004  32.224  1.00  0.00    -0.336 N 
HETATM    6  C4  UNL     1      74.600  10.310  32.717  1.00  0.00     0.312 C 
HETATM    7  O1  UNL     1      75.486  10.550  33.556  1.00  0.00    -0.262 OA
ATOM      8  H2  UNL     1      73.714   8.834  31.537  1.00  0.00     0.164 HD
BRANCH   6   9
HETATM    9  C5  UNL     1      73.729  11.370  32.253  1.00  0.00     0.327 C 
HETATM   10  O2  UNL     1      72.570  11.495  32.775  1.00  0.00    -0.261 OA
HETATM   11  N3  UNL     1      74.093  12.289  31.242  1.00  0.00    -0.268 N 
ATOM     12  H3  UNL     1      75.009  12.225  30.798  1.00  0.00     0.190 HD
BRANCH  11  13
HETATM   13  N4  UNL     1      73.198  13.276  30.856  1.00  0.00    -0.342 N 
ATOM     14  H42 UNL     1      72.247  13.013  30.599  1.00  0.00     0.176 HD
ATOM     15  H41 UNL     1      73.499  14.251  30.834  1.00  0.00     0.176 HD
ENDBRANCH  11  13
ENDBRANCH   6   9
ENDBRANCH   2   5
TORSDOF 3
ENDMDL
