MODEL 1
REMARK VINA RESULT: -6.082215862      0.000      0.000
REMARK  2 active torsions:
REMARK  status: ('A' for Active; 'I' for Inactive)
REMARK    1  A    between atoms: N1_1  and  N2_4 
REMARK       I    between atoms: N2_4  and  C1_6 
REMARK       I    between atoms: C1_6  and  N3_8 
REMARK       I    between atoms: C2_10  and  N5_12 
REMARK    2  A    between atoms: N5_12  and  N6_14 
ROOT
HETATM    1  N2  UNL     1      76.107   9.938  30.852  1.00  0.00    -0.258 N 
ATOM      2  H2  UNL     1      76.090  10.926  30.598  1.00  0.00     0.191 HD
HETATM    3  C1  UNL     1      75.445   9.489  32.026  1.00  0.00     0.340 C 
HETATM    4  O1  UNL     1      75.467   8.280  32.334  1.00  0.00    -0.245 OA
HETATM    5  N3  UNL     1      74.756  10.453  32.840  1.00  0.00    -0.280 N 
ATOM      6  H3  UNL     1      73.758  10.337  33.014  1.00  0.00     0.173 HD
HETATM    7  C2  UNL     1      75.374  11.461  33.354  1.00  0.00     0.215 C 
HETATM    8  N4  UNL     1      76.746  11.711  33.176  1.00  0.00    -0.062 NA
HETATM    9  N5  UNL     1      74.614  12.357  34.141  1.00  0.00    -0.213 N 
ATOM     10  H5  UNL     1      74.842  12.491  35.126  1.00  0.00     0.196 HD
ENDROOT
BRANCH   1  11
HETATM   11  N1  UNL     1      76.783   9.014  30.049  1.00  0.00    -0.341 N 
ATOM     12  H12 UNL     1      76.372   8.094  29.892  1.00  0.00     0.177 HD
ATOM     13  H11 UNL     1      77.676   9.274  29.630  1.00  0.00     0.177 HD
ENDBRANCH   1  11
BRANCH   9  14
HETATM   14  N6  UNL     1      73.553  13.057  33.569  1.00  0.00    -0.036 N 
HETATM   15  O2  UNL     1      72.532  13.363  34.187  1.00  0.00    -0.516 OA
HETATM   16  O3  UNL     1      73.681  13.414  32.245  1.00  0.00    -0.516 OA
ENDBRANCH   9  14
TORSDOF 2
ENDMDL
MODEL 2
REMARK VINA RESULT: -6.039785078      2.151      4.923
REMARK  2 active torsions:
REMARK  status: ('A' for Active; 'I' for Inactive)
REMARK    1  A    between atoms: N1_1  and  N2_4 
REMARK       I    between atoms: N2_4  and  C1_6 
REMARK       I    between atoms: C1_6  and  N3_8 
REMARK       I    between atoms: C2_10  and  N5_12 
REMARK    2  A    between atoms: N5_12  and  N6_14 
ROOT
HETATM    1  N2  UNL     1      74.152  12.186  31.128  1.00  0.00    -0.258 N 
ATOM      2  H2  UNL     1      73.776  11.458  30.520  1.00  0.00     0.191 HD
HETATM    3  C1  UNL     1      75.329  11.950  31.885  1.00  0.00     0.340 C 
HETATM    4  O1  UNL     1      75.788  12.841  32.627  1.00  0.00    -0.245 OA
HETATM    5  N3  UNL     1      75.973  10.669  31.775  1.00  0.00    -0.280 N 
ATOM      6  H3  UNL     1      76.943  10.622  31.463  1.00  0.00     0.173 HD
HETATM    7  C2  UNL     1      75.350   9.577  32.062  1.00  0.00     0.215 C 
HETATM    8  N4  UNL     1      74.015   9.531  32.501  1.00  0.00    -0.062 NA
HETATM    9  N5  UNL     1      76.064   8.365  31.924  1.00  0.00    -0.213 N 
ATOM     10  H5  UNL     1      76.223   7.771  32.738  1.00  0.00     0.196 HD
ENDROOT
BRANCH   1  11
HETATM   11  N1  UNL     1      73.512  13.426  31.223  1.00  0.00    -0.341 N 
ATOM     12  H12 UNL     1      72.864  13.712  30.489  1.00  0.00     0.177 HD
ATOM     13  H11 UNL     1      73.702  14.027  32.025  1.00  0.00     0.177 HD
ENDBRANCH   1  11
BRANCH   9  14
HETATM   14  N6  UNL     1      76.550   7.982  30.675  1.00  0.00    -0.036 N 
HETATM   15  O2  UNL     1      75.932   7.246  29.904  1.00  0.00    -0.516 OA
HETATM   16  O3  UNL     1      77.787   8.466  30.311  1.00  0.00    -0.516 OA
ENDBRANCH   9  14
TORSDOF 2
ENDMDL
MODEL 3
REMARK VINA RESULT: -5.799174207      1.251      1.251
REMARK  2 active torsions:
REMARK  status: ('A' for Active; 'I' for Inactive)
REMARK    1  A    between atoms: N1_1  and  N2_4 
REMARK       I    between atoms: N2_4  and  C1_6 
REMARK       I    between atoms: C1_6  and  N3_8 
REMARK       I    between atoms: C2_10  and  N5_12 
REMARK    2  A    between atoms: N5_12  and  N6_14 
ROOT
HETATM    1  N2  UNL     1      75.046   9.027  31.451  1.00  0.00    -0.258 N 
ATOM      2  H2  UNL     1      74.506   9.619  30.820  1.00  0.00     0.191 HD
HETATM    3  C1  UNL     1      75.213   9.396  32.812  1.00  0.00     0.340 C 
HETATM    4  O1  UNL     1      75.873   8.670  33.583  1.00  0.00    -0.245 OA
HETATM    5  N3  UNL     1      74.608  10.616  33.274  1.00  0.00    -0.280 N 
ATOM      6  H3  UNL     1      73.936  10.581  34.040  1.00  0.00     0.173 HD
HETATM    7  C2  UNL     1      74.898  11.753  32.740  1.00  0.00     0.215 C 
HETATM    8  N4  UNL     1      75.811  11.910  31.683  1.00  0.00    -0.062 NA
HETATM    9  N5  UNL     1      74.254  12.899  33.261  1.00  0.00    -0.213 N 
ATOM     10  H5  UNL     1      74.804  13.646  33.684  1.00  0.00     0.196 HD
ENDROOT
BRANCH   1  11
HETATM   11  N1  UNL     1      75.628   7.844  30.984  1.00  0.00    -0.341 N 
ATOM     12  H12 UNL     1      75.038   7.029  30.818  1.00  0.00     0.177 HD
ATOM     13  H11 UNL     1      76.633   7.814  30.816  1.00  0.00     0.177 HD
ENDBRANCH   1  11
BRANCH   9  14
HETATM   14  N6  UNL     1      72.866  13.008  33.194  1.00  0.00    -0.036 N 
HETATM   15  O2  UNL     1      72.175  13.449  34.114  1.00  0.00    -0.516 OA
HETATM   16  O3  UNL     1      72.262  12.594  32.027  1.00  0.00    -0.516 OA
ENDBRANCH   9  14
TORSDOF 2
ENDMDL
MODEL 4
REMARK VINA RESULT: -5.751443830      1.336      4.693
REMARK  2 active torsions:
REMARK  status: ('A' for Active; 'I' for Inactive)
REMARK    1  A    between atoms: N1_1  and  N2_4 
REMARK       I    between atoms: N2_4  and  C1_6 
REMARK       I    between atoms: C1_6  and  N3_8 
REMARK       I    between atoms: C2_10  and  N5_12 
REMARK    2  A    between atoms: N5_12  and  N6_14 
ROOT
HETATM    1  N2  UNL     1      74.302  12.389  33.754  1.00  0.00    -0.258 N 
ATOM      2  H2  UNL     1      74.670  11.560  34.221  1.00  0.00     0.191 HD
HETATM    3  C1  UNL     1      74.219  12.435  32.337  1.00  0.00     0.340 C 
HETATM    4  O1  UNL     1      73.766  13.449  31.768  1.00  0.00    -0.245 OA
HETATM    5  N3  UNL     1      74.664  11.294  31.584  1.00  0.00    -0.280 N 
ATOM      6  H3  UNL     1      74.010  10.822  30.959  1.00  0.00     0.173 HD
HETATM    7  C2  UNL     1      75.872  10.856  31.681  1.00  0.00     0.215 C 
HETATM    8  N4  UNL     1      76.850  11.434  32.510  1.00  0.00    -0.062 NA
HETATM    9  N5  UNL     1      76.220   9.729  30.901  1.00  0.00    -0.213 N 
ATOM     10  H5  UNL     1      76.951   9.803  30.194  1.00  0.00     0.196 HD
ENDROOT
BRANCH   1  11
HETATM   11  N1  UNL     1      73.873  13.490  34.503  1.00  0.00    -0.341 N 
ATOM     12  H12 UNL     1      73.175  13.356  35.234  1.00  0.00     0.177 HD
ATOM     13  H11 UNL     1      74.266  14.410  34.308  1.00  0.00     0.177 HD
ENDBRANCH   1  11
BRANCH   9  14
HETATM   14  N6  UNL     1      75.563   8.516  31.100  1.00  0.00    -0.036 N 
HETATM   15  O2  UNL     1      74.672   8.356  31.936  1.00  0.00    -0.516 OA
HETATM   16  O3  UNL     1      75.948   7.458  30.305  1.00  0.00    -0.516 OA
ENDBRANCH   9  14
TORSDOF 2
ENDMDL
MODEL 5
REMARK VINA RESULT: -5.551791560      2.431      4.824
REMARK  2 active torsions:
REMARK  status: ('A' for Active; 'I' for Inactive)
REMARK    1  A    between atoms: N1_1  and  N2_4 
REMARK       I    between atoms: N2_4  and  C1_6 
REMARK       I    between atoms: C1_6  and  N3_8 
REMARK       I    between atoms: C2_10  and  N5_12 
REMARK    2  A    between atoms: N5_12  and  N6_14 
ROOT
HETATM    1  N2  UNL     1      74.642   9.077  34.854  1.00  0.00    -0.258 N 
ATOM      2  H2  UNL     1      75.655   8.955  34.838  1.00  0.00     0.191 HD
HETATM    3  C1  UNL     1      73.915   9.192  33.639  1.00  0.00     0.340 C 
HETATM    4  O1  UNL     1      72.677   9.340  33.660  1.00  0.00    -0.245 OA
HETATM    5  N3  UNL     1      74.637   9.134  32.396  1.00  0.00    -0.280 N 
ATOM      6  H3  UNL     1      74.400   8.413  31.715  1.00  0.00     0.173 HD
HETATM    7  C2  UNL     1      75.577   9.974  32.127  1.00  0.00     0.215 C 
HETATM    8  N4  UNL     1      75.979  11.003  32.995  1.00  0.00    -0.062 NA
HETATM    9  N5  UNL     1      76.231   9.839  30.880  1.00  0.00    -0.213 N 
ATOM     10  H5  UNL     1      76.190  10.597  30.199  1.00  0.00     0.196 HD
ENDROOT
BRANCH   1  11
HETATM   11  N1  UNL     1      73.957   9.131  36.071  1.00  0.00    -0.341 N 
ATOM     12  H12 UNL     1      73.930  10.009  36.591  1.00  0.00     0.177 HD
ATOM     13  H11 UNL     1      73.493   8.294  36.422  1.00  0.00     0.177 HD
ENDBRANCH   1  11
BRANCH   9  14
HETATM   14  N6  UNL     1      76.930   8.671  30.583  1.00  0.00    -0.036 N 
HETATM   15  O2  UNL     1      78.145   8.548  30.746  1.00  0.00    -0.516 OA
HETATM   16  O3  UNL     1      76.199   7.615  30.084  1.00  0.00    -0.516 OA
ENDBRANCH   9  14
TORSDOF 2
ENDMDL
