MODEL 1
REMARK VINA RESULT: -7.389216038      0.000      0.000
REMARK  13 active torsions:
REMARK  status: ('A' for Active; 'I' for Inactive)
REMARK    1  A    between atoms: C2_2  and  N1_3 
REMARK    2  A    between atoms: C4_7  and  N3_8 
REMARK    3  A    between atoms: N3_8  and  C5_10 
REMARK    4  A    between atoms: C6_14  and  C7_15 
REMARK    5  A    between atoms: C7_15  and  O1_16 
REMARK    6  A    between atoms: C8_19  and  S1_20 
REMARK    7  A    between atoms: S1_20  and  N5_23 
REMARK    8  A    between atoms: N5_23  and  C9_25 
REMARK    9  A    between atoms: C9_25  and  C10_26 
REMARK   10  A    between atoms: C10_26  and  C11_27 
REMARK   11  A    between atoms: C12_30  and  N7_31 
REMARK   12  A    between atoms: N10_44  and  N11_45 
REMARK   13  A    between atoms: C17_48  and  O7_49 
ROOT
HETATM    1  S1  UNL     1      -1.751  19.383  17.450  1.00  0.00     0.256 S 
HETATM    2  O3  UNL     1      -2.248  17.997  17.684  1.00  0.00    -0.203 OA
HETATM    3  O4  UNL     1      -2.922  20.194  16.912  1.00  0.00    -0.203 OA
ENDROOT
BRANCH   1   4
HETATM    4  C8  UNL     1      -0.450  19.420  16.239  1.00  0.00     0.298 C 
HETATM    5  O2  UNL     1      -0.989  19.667  15.006  1.00  0.00    -0.332 OA
HETATM    6  C6  UNL     1      -0.243  20.463  14.171  1.00  0.00     0.348 C 
HETATM    7  N4  UNL     1       1.150  20.042  14.240  1.00  0.00    -0.023 N 
HETATM    8  C5  UNL     1       1.709  20.331  15.541  1.00  0.00     0.321 C 
ATOM      9  H42 UNL     1       1.706  20.454  13.490  1.00  0.00     0.282 HD
ATOM     10  H41 UNL     1       1.260  19.059  13.991  1.00  0.00     0.282 HD
HETATM   11  C17 UNL     1       0.645  20.362  16.616  1.00  0.00     0.214 C 
BRANCH   6  12
HETATM   12  C7  UNL     1      -0.772  20.292  12.750  1.00  0.00     0.225 C 
BRANCH  12  13
HETATM   13  O1  UNL     1      -0.144  19.235  12.119  1.00  0.00    -0.397 OA
ATOM     14  H1  UNL     1       0.632  19.533  11.659  1.00  0.00     0.209 HD
ENDBRANCH  12  13
ENDBRANCH   6  12
BRANCH   8  15
HETATM   15  N3  UNL     1       2.743  19.386  15.913  1.00  0.00    -0.349 N 
ATOM     16  H3  UNL     1       3.013  18.659  15.250  1.00  0.00     0.163 HD
BRANCH  15  17
HETATM   17  C4  UNL     1       3.392  19.445  17.179  1.00  0.00     0.104 C 
HETATM   18  N2  UNL     1       3.803  20.485  17.813  1.00  0.00    -0.353 N 
HETATM   19  C3  UNL     1       4.413  20.150  19.066  1.00  0.00     0.397 C 
ATOM     20  H2  UNL     1       3.707  21.439  17.463  1.00  0.00     0.162 HD
HETATM   21  N1  UNL     1       4.711  18.735  18.938  1.00  0.00     0.112 N 
HETATM   22  C18 UNL     1       3.708  18.232  18.000  1.00  0.00     0.350 C 
BRANCH  21  23
HETATM   23  C2  UNL     1       4.631  18.097  20.221  1.00  0.00     0.270 C 
HETATM   24  C1  UNL     1       4.945  19.121  21.300  1.00  0.00     0.037 C 
ENDBRANCH  21  23
ENDBRANCH  15  17
ENDBRANCH   8  15
BRANCH  11  25
HETATM   25  O7  UNL     1       0.235  21.675  16.774  1.00  0.00    -0.388 OA
ATOM     26  H7  UNL     1      -0.008  22.012  15.919  1.00  0.00     0.210 HD
ENDBRANCH  11  25
ENDBRANCH   1   4
BRANCH   1  27
HETATM   27  N5  UNL     1      -1.268  20.135  18.925  1.00  0.00    -0.317 N 
ATOM     28  H5  UNL     1      -1.324  21.126  19.158  1.00  0.00     0.172 HD
BRANCH  27  29
HETATM   29  C9  UNL     1      -0.753  19.040  19.787  1.00  0.00     0.138 C 
BRANCH  29  30
HETATM   30  C10 UNL     1       0.754  19.083  19.822  1.00  0.00     0.079 C 
BRANCH  30  31
HETATM   31  C11 UNL     1       1.187  19.334  21.201  1.00  0.00     0.047 A 
HETATM   32  N6  UNL     1       1.173  18.277  22.089  1.00  0.00    -0.195 N 
HETATM   33  C12 UNL     1       1.483  18.438  23.373  1.00  0.00     0.677 A 
ATOM     34  H6  UNL     1       0.918  17.349  21.753  1.00  0.00     0.184 HD
HETATM   35  N8  UNL     1       1.822  19.646  23.835  1.00  0.00    -0.174 N 
HETATM   36  C13 UNL     1       1.865  20.731  23.048  1.00  0.00     0.164 A 
ATOM     37  H8  UNL     1       2.057  19.745  24.823  1.00  0.00     0.186 HD
HETATM   38  C14 UNL     1       1.537  20.565  21.684  1.00  0.00     0.102 A 
HETATM   39  N10 UNL     1       2.230  21.930  23.552  1.00  0.00    -0.194 N 
HETATM   40  C15 UNL     1       1.603  21.661  20.876  1.00  0.00     0.265 A 
HETATM   41  O5  UNL     1       1.338  21.594  19.670  1.00  0.00    -0.267 OA
HETATM   42  N9  UNL     1       1.975  22.853  21.420  1.00  0.00    -0.273 N 
HETATM   43  C16 UNL     1       2.276  22.977  22.713  1.00  0.00     0.349 A 
ATOM     44  H9  UNL     1       2.025  23.676  20.820  1.00  0.00     0.173 HD
HETATM   45  O6  UNL     1       2.620  24.106  23.194  1.00  0.00    -0.244 OA
BRANCH  33  46
HETATM   46  N7  UNL     1       1.450  17.388  24.165  1.00  0.00    -0.234 N 
ATOM     47  H72 UNL     1       2.260  17.121  24.726  1.00  0.00     0.174 HD
ATOM     48  H71 UNL     1       0.592  16.838  24.211  1.00  0.00     0.174 HD
ENDBRANCH  33  46
BRANCH  39  49
HETATM   49  N11 UNL     1       2.545  22.052  24.908  1.00  0.00    -0.333 N 
ATOM     50 2H11 UNL     1       2.908  21.269  25.451  1.00  0.00     0.177 HD
ATOM     51 1H11 UNL     1       2.412  22.944  25.384  1.00  0.00     0.177 HD
ENDBRANCH  39  49
ENDBRANCH  30  31
ENDBRANCH  29  30
ENDBRANCH  27  29
ENDBRANCH   1  27
TORSDOF 13
ENDMDL
MODEL 2
REMARK VINA RESULT: -7.224507032      2.315      6.399
REMARK  13 active torsions:
REMARK  status: ('A' for Active; 'I' for Inactive)
REMARK    1  A    between atoms: C2_2  and  N1_3 
REMARK    2  A    between atoms: C4_7  and  N3_8 
REMARK    3  A    between atoms: N3_8  and  C5_10 
REMARK    4  A    between atoms: C6_14  and  C7_15 
REMARK    5  A    between atoms: C7_15  and  O1_16 
REMARK    6  A    between atoms: C8_19  and  S1_20 
REMARK    7  A    between atoms: S1_20  and  N5_23 
REMARK    8  A    between atoms: N5_23  and  C9_25 
REMARK    9  A    between atoms: C9_25  and  C10_26 
REMARK   10  A    between atoms: C10_26  and  C11_27 
REMARK   11  A    between atoms: C12_30  and  N7_31 
REMARK   12  A    between atoms: N10_44  and  N11_45 
REMARK   13  A    between atoms: C17_48  and  O7_49 
ROOT
HETATM    1  S1  UNL     1      -3.163  20.660  16.762  1.00  0.00     0.256 S 
HETATM    2  O3  UNL     1      -4.554  20.124  16.807  1.00  0.00    -0.203 OA
HETATM    3  O4  UNL     1      -2.371  19.772  15.812  1.00  0.00    -0.203 OA
ENDROOT
BRANCH   1   4
HETATM    4  C8  UNL     1      -2.382  20.598  18.358  1.00  0.00     0.298 C 
HETATM    5  O2  UNL     1      -3.336  20.725  19.330  1.00  0.00    -0.332 OA
HETATM    6  C6  UNL     1      -3.141  19.976  20.466  1.00  0.00     0.348 C 
HETATM    7  N4  UNL     1      -1.741  20.072  20.859  1.00  0.00    -0.023 N 
HETATM    8  C5  UNL     1      -0.891  19.415  19.893  1.00  0.00     0.321 C 
ATOM      9  H42 UNL     1      -1.588  19.714  21.802  1.00  0.00     0.282 HD
ATOM     10  H41 UNL     1      -1.459  21.040  21.014  1.00  0.00     0.282 HD
HETATM   11  C17 UNL     1      -1.518  19.391  18.516  1.00  0.00     0.214 C 
BRANCH   6  12
HETATM   12  C7  UNL     1      -4.034  20.539  21.567  1.00  0.00     0.225 C 
BRANCH  12  13
HETATM   13  O1  UNL     1      -4.900  19.569  22.037  1.00  0.00    -0.397 OA
ATOM     14  H1  UNL     1      -5.768  19.931  22.169  1.00  0.00     0.209 HD
ENDBRANCH  12  13
ENDBRANCH   6  12
BRANCH   8  15
HETATM   15  N3  UNL     1       0.420  20.027  19.814  1.00  0.00    -0.349 N 
ATOM     16  H3  UNL     1       0.725  20.437  18.930  1.00  0.00     0.163 HD
BRANCH  15  17
HETATM   17  C4  UNL     1       1.295  20.073  20.937  1.00  0.00     0.104 C 
HETATM   18  N2  UNL     1       2.218  20.931  21.190  1.00  0.00    -0.353 N 
HETATM   19  C3  UNL     1       2.895  20.651  22.422  1.00  0.00     0.397 C 
ATOM     20  H2  UNL     1       2.443  21.720  20.584  1.00  0.00     0.162 HD
HETATM   21  N1  UNL     1       2.560  19.264  22.693  1.00  0.00     0.112 N 
HETATM   22  C18 UNL     1       1.263  19.068  22.047  1.00  0.00     0.350 C 
BRANCH  21  23
HETATM   23  C2  UNL     1       2.508  19.038  24.109  1.00  0.00     0.270 C 
HETATM   24  C1  UNL     1       1.510  17.926  24.394  1.00  0.00     0.037 C 
ENDBRANCH  21  23
ENDBRANCH  15  17
ENDBRANCH   8  15
BRANCH  11  25
HETATM   25  O7  UNL     1      -2.191  18.189  18.374  1.00  0.00    -0.388 OA
ATOM     26  H7  UNL     1      -1.608  17.492  18.652  1.00  0.00     0.210 HD
ENDBRANCH  11  25
ENDBRANCH   1   4
BRANCH   1  27
HETATM   27  N5  UNL     1      -3.124  22.251  16.097  1.00  0.00    -0.317 N 
ATOM     28  H5  UNL     1      -3.300  23.127  16.587  1.00  0.00     0.172 HD
BRANCH  27  29
HETATM   29  C9  UNL     1      -2.781  22.081  14.661  1.00  0.00     0.138 C 
BRANCH  29  30
HETATM   30  C10 UNL     1      -1.469  22.764  14.366  1.00  0.00     0.079 C 
BRANCH  30  31
HETATM   31  C11 UNL     1      -0.400  21.759  14.371  1.00  0.00     0.047 A 
HETATM   32  N6  UNL     1      -0.357  20.851  13.331  1.00  0.00    -0.195 N 
HETATM   33  C12 UNL     1       0.537  19.866  13.300  1.00  0.00     0.677 A 
ATOM     34  H6  UNL     1      -1.028  20.938  12.568  1.00  0.00     0.184 HD
HETATM   35  N8  UNL     1       1.426  19.735  14.289  1.00  0.00    -0.174 N 
HETATM   36  C13 UNL     1       1.462  20.569  15.339  1.00  0.00     0.164 A 
ATOM     37  H8  UNL     1       2.102  18.972  14.244  1.00  0.00     0.186 HD
HETATM   38  C14 UNL     1       0.515  21.617  15.377  1.00  0.00     0.102 A 
HETATM   39  N10 UNL     1       2.388  20.411  16.310  1.00  0.00    -0.194 N 
HETATM   40  C15 UNL     1       0.563  22.481  16.431  1.00  0.00     0.265 A 
HETATM   41  O5  UNL     1      -0.227  23.427  16.531  1.00  0.00    -0.267 OA
HETATM   42  N9  UNL     1       1.512  22.290  17.390  1.00  0.00    -0.273 N 
HETATM   43  C16 UNL     1       2.391  21.288  17.326  1.00  0.00     0.349 A 
ATOM     44  H9  UNL     1       1.552  22.932  18.181  1.00  0.00     0.173 HD
HETATM   45  O6  UNL     1       3.266  21.135  18.238  1.00  0.00    -0.244 OA
BRANCH  33  46
HETATM   46  N7  UNL     1       0.523  19.036  12.280  1.00  0.00    -0.234 N 
ATOM     47  H72 UNL     1       1.226  19.091  11.542  1.00  0.00     0.174 HD
ATOM     48  H71 UNL     1      -0.210  18.328  12.236  1.00  0.00     0.174 HD
ENDBRANCH  33  46
BRANCH  39  49
HETATM   49  N11 UNL     1       3.306  19.360  16.236  1.00  0.00    -0.333 N 
ATOM     50 2H11 UNL     1       3.975  19.172  16.982  1.00  0.00     0.177 HD
ATOM     51 1H11 UNL     1       3.320  18.752  15.417  1.00  0.00     0.177 HD
ENDBRANCH  39  49
ENDBRANCH  30  31
ENDBRANCH  29  30
ENDBRANCH  27  29
ENDBRANCH   1  27
TORSDOF 13
ENDMDL
MODEL 3
REMARK VINA RESULT: -7.178529659      2.615      5.178
REMARK  13 active torsions:
REMARK  status: ('A' for Active; 'I' for Inactive)
REMARK    1  A    between atoms: C2_2  and  N1_3 
REMARK    2  A    between atoms: C4_7  and  N3_8 
REMARK    3  A    between atoms: N3_8  and  C5_10 
REMARK    4  A    between atoms: C6_14  and  C7_15 
REMARK    5  A    between atoms: C7_15  and  O1_16 
REMARK    6  A    between atoms: C8_19  and  S1_20 
REMARK    7  A    between atoms: S1_20  and  N5_23 
REMARK    8  A    between atoms: N5_23  and  C9_25 
REMARK    9  A    between atoms: C9_25  and  C10_26 
REMARK   10  A    between atoms: C10_26  and  C11_27 
REMARK   11  A    between atoms: C12_30  and  N7_31 
REMARK   12  A    between atoms: N10_44  and  N11_45 
REMARK   13  A    between atoms: C17_48  and  O7_49 
ROOT
HETATM    1  S1  UNL     1       0.568  19.140  15.170  1.00  0.00     0.256 S 
HETATM    2  O3  UNL     1       1.077  18.144  14.184  1.00  0.00    -0.203 OA
HETATM    3  O4  UNL     1       0.618  20.504  14.496  1.00  0.00    -0.203 OA
ENDROOT
BRANCH   1   4
HETATM    4  C8  UNL     1       1.587  19.204  16.625  1.00  0.00     0.298 C 
HETATM    5  O2  UNL     1       2.475  18.164  16.599  1.00  0.00    -0.332 OA
HETATM    6  C6  UNL     1       3.731  18.431  17.090  1.00  0.00     0.348 C 
HETATM    7  N4  UNL     1       3.601  19.193  18.326  1.00  0.00    -0.023 N 
HETATM    8  C5  UNL     1       3.072  20.512  18.061  1.00  0.00     0.321 C 
ATOM      9  H42 UNL     1       4.482  19.235  18.838  1.00  0.00     0.282 HD
ATOM     10  H41 UNL     1       3.043  18.695  19.019  1.00  0.00     0.282 HD
HETATM   11  C17 UNL     1       2.230  20.540  16.805  1.00  0.00     0.214 C 
BRANCH   6  12
HETATM   12  C7  UNL     1       4.428  17.103  17.365  1.00  0.00     0.225 C 
BRANCH  12  13
HETATM   13  O1  UNL     1       4.514  16.869  18.725  1.00  0.00    -0.397 OA
ATOM     14  H1  UNL     1       5.125  17.472  19.131  1.00  0.00     0.209 HD
ENDBRANCH  12  13
ENDBRANCH   6  12
BRANCH   8  15
HETATM   15  N3  UNL     1       2.296  21.022  19.173  1.00  0.00    -0.349 N 
ATOM     16  H3  UNL     1       1.992  21.996  19.161  1.00  0.00     0.163 HD
BRANCH  15  17
HETATM   17  C4  UNL     1       1.945  20.201  20.282  1.00  0.00     0.104 C 
HETATM   18  N2  UNL     1       1.091  19.240  20.320  1.00  0.00    -0.353 N 
HETATM   19  C3  UNL     1       1.008  18.641  21.620  1.00  0.00     0.397 C 
ATOM     20  H2  UNL     1       0.538  18.939  19.518  1.00  0.00     0.162 HD
HETATM   21  N1  UNL     1       1.610  19.631  22.496  1.00  0.00     0.112 N 
HETATM   22  C18 UNL     1       2.555  20.349  21.643  1.00  0.00     0.350 C 
BRANCH  21  23
HETATM   23  C2  UNL     1       2.253  18.982  23.602  1.00  0.00     0.270 C 
HETATM   24  C1  UNL     1       1.319  17.920  24.161  1.00  0.00     0.037 C 
ENDBRANCH  21  23
ENDBRANCH  15  17
ENDBRANCH   8  15
BRANCH  11  25
HETATM   25  O7  UNL     1       3.044  20.924  15.753  1.00  0.00    -0.388 OA
ATOM     26  H7  UNL     1       2.866  20.348  15.018  1.00  0.00     0.210 HD
ENDBRANCH  11  25
ENDBRANCH   1   4
BRANCH   1  27
HETATM   27  N5  UNL     1      -1.084  18.844  15.564  1.00  0.00    -0.317 N 
ATOM     28  H5  UNL     1      -1.474  18.006  15.995  1.00  0.00     0.172 HD
BRANCH  27  29
HETATM   29  C9  UNL     1      -1.824  20.063  15.146  1.00  0.00     0.138 C 
BRANCH  29  30
HETATM   30  C10 UNL     1      -2.733  20.516  16.261  1.00  0.00     0.079 C 
BRANCH  30  31
HETATM   31  C11 UNL     1      -1.971  21.380  17.170  1.00  0.00     0.047 A 
HETATM   32  N6  UNL     1      -1.159  22.350  16.618  1.00  0.00    -0.195 N 
HETATM   33  C12 UNL     1      -0.383  23.126  17.371  1.00  0.00     0.677 A 
ATOM     34  H6  UNL     1      -1.154  22.475  15.605  1.00  0.00     0.184 HD
HETATM   35  N8  UNL     1      -0.376  22.979  18.699  1.00  0.00    -0.174 N 
HETATM   36  C13 UNL     1      -1.132  22.065  19.327  1.00  0.00     0.164 A 
ATOM     37  H8  UNL     1       0.226  23.585  19.257  1.00  0.00     0.186 HD
HETATM   38  C14 UNL     1      -1.958  21.240  18.531  1.00  0.00     0.102 A 
HETATM   39  N10 UNL     1      -1.108  21.962  20.673  1.00  0.00    -0.194 N 
HETATM   40  C15 UNL     1      -2.745  20.325  19.167  1.00  0.00     0.265 A 
HETATM   41  O5  UNL     1      -3.499  19.572  18.540  1.00  0.00    -0.267 OA
HETATM   42  N9  UNL     1      -2.693  20.251  20.526  1.00  0.00    -0.273 N 
HETATM   43  C16 UNL     1      -1.901  21.044  21.248  1.00  0.00     0.349 A 
ATOM     44  H9  UNL     1      -3.279  19.568  21.006  1.00  0.00     0.173 HD
HETATM   45  O6  UNL     1      -1.874  20.951  22.518  1.00  0.00    -0.244 OA
BRANCH  33  46
HETATM   46  N7  UNL     1       0.366  24.031  16.779  1.00  0.00    -0.234 N 
ATOM     47  H72 UNL     1       0.096  25.015  16.766  1.00  0.00     0.174 HD
ATOM     48  H71 UNL     1       1.230  23.730  16.328  1.00  0.00     0.174 HD
ENDBRANCH  33  46
BRANCH  39  49
HETATM   49  N11 UNL     1      -0.275  22.796  21.423  1.00  0.00    -0.333 N 
ATOM     50 2H11 UNL     1      -0.634  23.384  22.176  1.00  0.00     0.177 HD
ATOM     51 1H11 UNL     1       0.725  22.831  21.225  1.00  0.00     0.177 HD
ENDBRANCH  39  49
ENDBRANCH  30  31
ENDBRANCH  29  30
ENDBRANCH  27  29
ENDBRANCH   1  27
TORSDOF 13
ENDMDL
MODEL 4
REMARK VINA RESULT: -7.133535301      2.454      4.601
REMARK  13 active torsions:
REMARK  status: ('A' for Active; 'I' for Inactive)
REMARK    1  A    between atoms: C2_2  and  N1_3 
REMARK    2  A    between atoms: C4_7  and  N3_8 
REMARK    3  A    between atoms: N3_8  and  C5_10 
REMARK    4  A    between atoms: C6_14  and  C7_15 
REMARK    5  A    between atoms: C7_15  and  O1_16 
REMARK    6  A    between atoms: C8_19  and  S1_20 
REMARK    7  A    between atoms: S1_20  and  N5_23 
REMARK    8  A    between atoms: N5_23  and  C9_25 
REMARK    9  A    between atoms: C9_25  and  C10_26 
REMARK   10  A    between atoms: C10_26  and  C11_27 
REMARK   11  A    between atoms: C12_30  and  N7_31 
REMARK   12  A    between atoms: N10_44  and  N11_45 
REMARK   13  A    between atoms: C17_48  and  O7_49 
ROOT
HETATM    1  S1  UNL     1      -0.962  19.574  18.504  1.00  0.00     0.256 S 
HETATM    2  O3  UNL     1      -0.541  18.439  19.376  1.00  0.00    -0.203 OA
HETATM    3  O4  UNL     1      -2.232  19.141  17.786  1.00  0.00    -0.203 OA
ENDROOT
BRANCH   1   4
HETATM    4  C8  UNL     1       0.268  19.951  17.277  1.00  0.00     0.298 C 
HETATM    5  O2  UNL     1       1.402  19.235  17.542  1.00  0.00    -0.332 OA
HETATM    6  C6  UNL     1       2.088  18.767  16.446  1.00  0.00     0.348 C 
HETATM    7  N4  UNL     1       2.162  19.827  15.449  1.00  0.00    -0.023 N 
HETATM    8  C5  UNL     1       0.852  20.112  14.908  1.00  0.00     0.321 C 
ATOM      9  H42 UNL     1       2.834  19.607  14.714  1.00  0.00     0.282 HD
ATOM     10  H41 UNL     1       2.608  20.665  15.820  1.00  0.00     0.282 HD
HETATM   11  C17 UNL     1      -0.248  19.769  15.887  1.00  0.00     0.214 C 
BRANCH   6  12
HETATM   12  C7  UNL     1       3.492  18.374  16.896  1.00  0.00     0.225 C 
BRANCH  12  13
HETATM   13  O1  UNL     1       4.269  18.012  15.811  1.00  0.00    -0.397 OA
ATOM     14  H1  UNL     1       5.170  17.870  16.077  1.00  0.00     0.209 HD
ENDBRANCH  12  13
ENDBRANCH   6  12
BRANCH   8  15
HETATM   15  N3  UNL     1       0.720  21.497  14.501  1.00  0.00    -0.349 N 
ATOM     16  H3  UNL     1       1.523  21.971  14.087  1.00  0.00     0.163 HD
BRANCH  15  17
HETATM   17  C4  UNL     1      -0.500  22.213  14.662  1.00  0.00     0.104 C 
HETATM   18  N2  UNL     1      -1.582  22.103  13.976  1.00  0.00    -0.353 N 
HETATM   19  C3  UNL     1      -2.607  22.994  14.434  1.00  0.00     0.397 C 
ATOM     20  H2  UNL     1      -1.697  21.456  13.195  1.00  0.00     0.162 HD
HETATM   21  N1  UNL     1      -1.884  23.977  15.221  1.00  0.00     0.112 N 
HETATM   22  C18 UNL     1      -0.709  23.259  15.714  1.00  0.00     0.350 C 
BRANCH  21  23
HETATM   23  C2  UNL     1      -2.715  24.463  16.285  1.00  0.00     0.270 C 
HETATM   24  C1  UNL     1      -3.109  23.295  17.176  1.00  0.00     0.037 C 
ENDBRANCH  21  23
ENDBRANCH  15  17
ENDBRANCH   8  15
BRANCH  11  25
HETATM   25  O7  UNL     1      -0.685  18.485  15.608  1.00  0.00    -0.388 OA
ATOM     26  H7  UNL     1      -1.575  18.542  15.282  1.00  0.00     0.210 HD
ENDBRANCH  11  25
ENDBRANCH   1   4
BRANCH   1  27
HETATM   27  N5  UNL     1      -1.373  20.964  19.439  1.00  0.00    -0.317 N 
ATOM     28  H5  UNL     1      -1.536  21.910  19.096  1.00  0.00     0.172 HD
BRANCH  27  29
HETATM   29  C9  UNL     1      -1.443  20.498  20.848  1.00  0.00     0.138 C 
BRANCH  29  30
HETATM   30  C10 UNL     1      -0.353  21.155  21.657  1.00  0.00     0.079 C 
BRANCH  30  31
HETATM   31  C11 UNL     1       0.747  20.200  21.834  1.00  0.00     0.047 A 
HETATM   32  N6  UNL     1       0.599  19.207  22.782  1.00  0.00    -0.195 N 
HETATM   33  C12 UNL     1       1.577  18.346  23.052  1.00  0.00     0.677 A 
ATOM     34  H6  UNL     1      -0.283  19.132  23.289  1.00  0.00     0.184 HD
HETATM   35  N8  UNL     1       2.741  18.427  22.399  1.00  0.00    -0.174 N 
HETATM   36  C13 UNL     1       2.976  19.356  21.461  1.00  0.00     0.164 A 
ATOM     37  H8  UNL     1       3.476  17.756  22.622  1.00  0.00     0.186 HD
HETATM   38  C14 UNL     1       1.940  20.271  21.170  1.00  0.00     0.102 A 
HETATM   39  N10 UNL     1       4.160  19.391  20.811  1.00  0.00    -0.194 N 
HETATM   40  C15 UNL     1       2.167  21.203  20.200  1.00  0.00     0.265 A 
HETATM   41  O5  UNL     1       1.307  22.033  19.884  1.00  0.00    -0.267 OA
HETATM   42  N9  UNL     1       3.374  21.206  19.567  1.00  0.00    -0.273 N 
HETATM   43  C16 UNL     1       4.332  20.329  19.867  1.00  0.00     0.349 A 
ATOM     44  H9  UNL     1       3.549  21.902  18.842  1.00  0.00     0.173 HD
HETATM   45  O6  UNL     1       5.451  20.358  19.258  1.00  0.00    -0.244 OA
BRANCH  33  46
HETATM   46  N7  UNL     1       1.370  17.425  23.967  1.00  0.00    -0.234 N 
ATOM     47  H72 UNL     1       0.606  16.755  23.881  1.00  0.00     0.174 HD
ATOM     48  H71 UNL     1       1.992  17.390  24.775  1.00  0.00     0.174 HD
ENDBRANCH  33  46
BRANCH  39  49
HETATM   49  N11 UNL     1       5.160  18.468  21.131  1.00  0.00    -0.333 N 
ATOM     50 2H11 UNL     1       5.116  17.496  20.825  1.00  0.00     0.177 HD
ATOM     51 1H11 UNL     1       5.964  18.760  21.685  1.00  0.00     0.177 HD
ENDBRANCH  39  49
ENDBRANCH  30  31
ENDBRANCH  29  30
ENDBRANCH  27  29
ENDBRANCH   1  27
TORSDOF 13
ENDMDL
MODEL 5
REMARK VINA RESULT: -7.107673926      2.623      6.641
REMARK  13 active torsions:
REMARK  status: ('A' for Active; 'I' for Inactive)
REMARK    1  A    between atoms: C2_2  and  N1_3 
REMARK    2  A    between atoms: C4_7  and  N3_8 
REMARK    3  A    between atoms: N3_8  and  C5_10 
REMARK    4  A    between atoms: C6_14  and  C7_15 
REMARK    5  A    between atoms: C7_15  and  O1_16 
REMARK    6  A    between atoms: C8_19  and  S1_20 
REMARK    7  A    between atoms: S1_20  and  N5_23 
REMARK    8  A    between atoms: N5_23  and  C9_25 
REMARK    9  A    between atoms: C9_25  and  C10_26 
REMARK   10  A    between atoms: C10_26  and  C11_27 
REMARK   11  A    between atoms: C12_30  and  N7_31 
REMARK   12  A    between atoms: N10_44  and  N11_45 
REMARK   13  A    between atoms: C17_48  and  O7_49 
ROOT
HETATM    1  S1  UNL     1       3.555  22.374  18.542  1.00  0.00     0.256 S 
HETATM    2  O3  UNL     1       4.750  22.658  17.696  1.00  0.00    -0.203 OA
HETATM    3  O4  UNL     1       3.740  23.133  19.848  1.00  0.00    -0.203 OA
ENDROOT
BRANCH   1   4
HETATM    4  C8  UNL     1       3.416  20.643  18.923  1.00  0.00     0.298 C 
HETATM    5  O2  UNL     1       3.660  19.912  17.793  1.00  0.00    -0.332 OA
HETATM    6  C6  UNL     1       4.346  18.735  17.973  1.00  0.00     0.348 C 
HETATM    7  N4  UNL     1       3.798  18.044  19.133  1.00  0.00    -0.023 N 
HETATM    8  C5  UNL     1       4.088  18.772  20.347  1.00  0.00     0.321 C 
ATOM      9  H42 UNL     1       4.122  17.078  19.185  1.00  0.00     0.282 HD
ATOM     10  H41 UNL     1       2.799  17.865  19.029  1.00  0.00     0.282 HD
HETATM   11  C17 UNL     1       4.265  20.251  20.087  1.00  0.00     0.214 C 
BRANCH   6  12
HETATM   12  C7  UNL     1       4.165  17.881  16.722  1.00  0.00     0.225 C 
BRANCH  12  13
HETATM   13  O1  UNL     1       3.280  18.481  15.845  1.00  0.00    -0.397 OA
ATOM     14  H1  UNL     1       2.879  17.833  15.278  1.00  0.00     0.209 HD
ENDBRANCH  12  13
ENDBRANCH   6  12
BRANCH   8  15
HETATM   15  N3  UNL     1       3.065  18.580  21.356  1.00  0.00    -0.349 N 
ATOM     16  H3  UNL     1       3.322  18.157  22.249  1.00  0.00     0.163 HD
BRANCH  15  17
HETATM   17  C4  UNL     1       1.712  18.965  21.136  1.00  0.00     0.104 C 
HETATM   18  N2  UNL     1       0.847  18.417  20.358  1.00  0.00    -0.353 N 
HETATM   19  C3  UNL     1      -0.419  19.087  20.400  1.00  0.00     0.397 C 
ATOM     20  H2  UNL     1       1.041  17.600  19.778  1.00  0.00     0.162 HD
HETATM   21  N1  UNL     1      -0.108  20.380  20.982  1.00  0.00     0.112 N 
HETATM   22  C18 UNL     1       1.067  20.132  21.818  1.00  0.00     0.350 C 
BRANCH  21  23
HETATM   23  C2  UNL     1      -1.228  20.861  21.739  1.00  0.00     0.270 C 
HETATM   24  C1  UNL     1      -0.749  21.267  23.124  1.00  0.00     0.037 C 
ENDBRANCH  21  23
ENDBRANCH  15  17
ENDBRANCH   8  15
BRANCH  11  25
HETATM   25  O7  UNL     1       5.617  20.496  19.911  1.00  0.00    -0.388 OA
ATOM     26  H7  UNL     1       5.873  21.182  20.515  1.00  0.00     0.210 HD
ENDBRANCH  11  25
ENDBRANCH   1   4
BRANCH   1  27
HETATM   27  N5  UNL     1       2.114  22.982  17.817  1.00  0.00    -0.317 N 
ATOM     28  H5  UNL     1       1.382  23.530  18.268  1.00  0.00     0.172 HD
BRANCH  27  29
HETATM   29  C9  UNL     1       2.158  22.544  16.398  1.00  0.00     0.138 C 
BRANCH  29  30
HETATM   30  C10 UNL     1       0.776  22.614  15.799  1.00  0.00     0.079 C 
BRANCH  30  31
HETATM   31  C11 UNL     1       0.219  21.258  15.734  1.00  0.00     0.047 A 
HETATM   32  N6  UNL     1       0.772  20.370  14.833  1.00  0.00    -0.195 N 
HETATM   33  C12 UNL     1       0.278  19.146  14.664  1.00  0.00     0.677 A 
ATOM     34  H6  UNL     1       1.580  20.660  14.282  1.00  0.00     0.184 HD
HETATM   35  N8  UNL     1      -0.779  18.745  15.376  1.00  0.00    -0.174 N 
HETATM   36  C13 UNL     1      -1.383  19.536  16.276  1.00  0.00     0.164 A 
ATOM     37  H8  UNL     1      -1.141  17.802  15.230  1.00  0.00     0.186 HD
HETATM   38  C14 UNL     1      -0.861  20.837  16.459  1.00  0.00     0.102 A 
HETATM   39  N10 UNL     1      -2.438  19.086  16.988  1.00  0.00    -0.194 N 
HETATM   40  C15 UNL     1      -1.457  21.636  17.390  1.00  0.00     0.265 A 
HETATM   41  O5  UNL     1      -1.054  22.784  17.613  1.00  0.00    -0.267 OA
HETATM   42  N9  UNL     1      -2.519  21.146  18.088  1.00  0.00    -0.273 N 
HETATM   43  C16 UNL     1      -2.989  19.914  17.889  1.00  0.00     0.349 A 
ATOM     44  H9  UNL     1      -2.969  21.740  18.784  1.00  0.00     0.173 HD
HETATM   45  O6  UNL     1      -3.985  19.484  18.557  1.00  0.00    -0.244 OA
BRANCH  33  46
HETATM   46  N7  UNL     1       0.854  18.351  13.789  1.00  0.00    -0.234 N 
ATOM     47  H72 UNL     1       1.802  18.002  13.932  1.00  0.00     0.174 HD
ATOM     48  H71 UNL     1       0.332  18.085  12.953  1.00  0.00     0.174 HD
ENDBRANCH  33  46
BRANCH  39  49
HETATM   49  N11 UNL     1      -2.925  17.793  16.774  1.00  0.00    -0.333 N 
ATOM     50 2H11 UNL     1      -3.913  17.609  16.603  1.00  0.00     0.177 HD
ATOM     51 1H11 UNL     1      -2.285  16.999  16.787  1.00  0.00     0.177 HD
ENDBRANCH  39  49
ENDBRANCH  30  31
ENDBRANCH  29  30
ENDBRANCH  27  29
ENDBRANCH   1  27
TORSDOF 13
ENDMDL
