MODEL 1
REMARK VINA RESULT: -6.928260464      0.000      0.000
REMARK  13 active torsions:
REMARK  status: ('A' for Active; 'I' for Inactive)
REMARK    1  A    between atoms: C1_4  and  C2_6 
REMARK    2  A    between atoms: N3_8  and  C4_9 
REMARK    3  A    between atoms: C6_12  and  O2_13 
REMARK    4  A    between atoms: O2_13  and  S1_14 
REMARK    5  A    between atoms: C7_18  and  N4_19 
REMARK    6  A    between atoms: C7_18  and  C14_39 
REMARK       I    between atoms: N4_19  and  C8_21 
REMARK    7  A    between atoms: C8_21  and  C9_23 
REMARK    8  A    between atoms: C11_25  and  C12_26 
REMARK    9  A    between atoms: C12_26  and  N5_27 
REMARK   10  A    between atoms: C12_26  and  C13_31 
REMARK   11  A    between atoms: C13_31  and  N6_32 
REMARK   12  A    between atoms: C15_42  and  O9_43 
REMARK   13  A    between atoms: C16_45  and  O10_46 
ROOT
HETATM    1  C4  UNL     1      -0.071  21.592  15.070  1.00  0.00     0.193 C 
HETATM    2  C5  UNL     1      -1.217  21.164  15.876  1.00  0.00     0.185 C 
HETATM    3  O1  UNL     1      -2.297  21.101  15.351  1.00  0.00    -0.293 OA
HETATM    4  C6  UNL     1      -1.064  20.815  17.302  1.00  0.00     0.256 C 
HETATM    5  C7  UNL     1      -0.026  21.609  18.015  1.00  0.00     0.175 C 
HETATM    6  C15 UNL     1       1.270  21.696  17.214  1.00  0.00     0.189 C 
HETATM    7  C16 UNL     1       1.102  22.127  15.809  1.00  0.00     0.180 C 
ENDROOT
BRANCH   5   8
HETATM    8  N4  UNL     1       0.354  21.089  19.310  1.00  0.00    -0.333 N 
HETATM    9  C8  UNL     1      -0.511  20.955  20.419  1.00  0.00     0.271 C 
HETATM   10  O6  UNL     1      -1.705  21.279  20.381  1.00  0.00    -0.266 OA
ATOM     11  H4  UNL     1       1.323  20.796  19.432  1.00  0.00     0.164 HD
BRANCH   9  12
HETATM   12  C9  UNL     1      -0.029  20.414  21.696  1.00  0.00     0.124 A 
HETATM   13  C10 UNL     1       1.170  19.756  21.856  1.00  0.00     0.074 A 
HETATM   14  C11 UNL     1       1.263  19.403  23.201  1.00  0.00     0.111 A 
HETATM   15  O7  UNL     1       0.171  19.844  23.748  1.00  0.00    -0.240 OA
HETATM   16  N7  UNL     1      -0.596  20.435  22.903  1.00  0.00    -0.256 N 
ATOM     17  H7  UNL     1      -1.501  20.854  23.121  1.00  0.00     0.195 HD
BRANCH  14  18
HETATM   18  C12 UNL     1       2.384  18.677  23.840  1.00  0.00     0.267 C 
BRANCH  18  19
HETATM   19  N5  UNL     1       1.859  17.742  24.785  1.00  0.00    -0.067 N 
ATOM     20  H53 UNL     1       2.586  17.337  25.374  1.00  0.00     0.275 HD
ATOM     21  H52 UNL     1       1.316  18.197  25.520  1.00  0.00     0.275 HD
ATOM     22  H51 UNL     1       1.321  17.032  24.289  1.00  0.00     0.275 HD
ENDBRANCH  18  19
BRANCH  18  23
HETATM   23  C13 UNL     1       3.358  19.654  24.463  1.00  0.00     0.269 C 
BRANCH  23  24
HETATM   24  N6  UNL     1       2.738  20.947  24.608  1.00  0.00    -0.077 N 
ATOM     25  H63 UNL     1       3.184  21.652  24.021  1.00  0.00     0.274 HD
ATOM     26  H62 UNL     1       1.807  20.973  24.193  1.00  0.00     0.274 HD
ATOM     27  H61 UNL     1       2.725  21.221  25.591  1.00  0.00     0.274 HD
ENDBRANCH  23  24
ENDBRANCH  18  23
ENDBRANCH  14  18
ENDBRANCH   9  12
ENDBRANCH   5   8
BRANCH   5  28
HETATM   28  C14 UNL     1      -0.486  23.007  18.232  1.00  0.00     0.265 C 
HETATM   29  N8  UNL     1       0.388  24.004  18.743  1.00  0.00    -0.060 NA
HETATM   30  O8  UNL     1      -1.677  23.335  17.962  1.00  0.00    -0.274 OA
ENDBRANCH   5  28
BRANCH   4  31
HETATM   31  O2  UNL     1      -0.914  19.456  17.502  1.00  0.00    -0.241 OA
BRANCH  31  32
HETATM   32  S1  UNL     1      -2.173  18.577  18.012  1.00  0.00     0.252 S 
HETATM   33  O3  UNL     1      -1.793  17.824  19.273  1.00  0.00    -0.572 OA
HETATM   34  O4  UNL     1      -3.441  19.347  18.246  1.00  0.00    -0.572 OA
HETATM   35  O5  UNL     1      -2.552  17.406  16.868  1.00  0.00    -0.572 OA
ENDBRANCH  31  32
ENDBRANCH   4  31
BRANCH   6  36
HETATM   36  O9  UNL     1       2.001  20.512  17.275  1.00  0.00    -0.390 OA
ATOM     37  H9  UNL     1       2.657  20.463  16.590  1.00  0.00     0.210 HD
ENDBRANCH   6  36
BRANCH   7  38
HETATM   38  O10 UNL     1       2.258  21.681  15.116  1.00  0.00    -0.390 OA
ATOM     39  H10 UNL     1       2.787  22.452  14.946  1.00  0.00     0.210 HD
ENDBRANCH   7  38
BRANCH   1  40
HETATM   40  N3  UNL     1       0.318  20.583  14.073  1.00  0.00    -0.336 N 
HETATM   41  C3  UNL     1       0.601  20.840  12.784  1.00  0.00     0.125 A 
HETATM   42  C2  UNL     1       0.927  19.661  12.132  1.00  0.00     0.090 A 
HETATM   43  N9  UNL     1       0.834  18.706  13.044  1.00  0.00    -0.348 N 
HETATM   44  C17 UNL     1       0.463  19.260  14.230  1.00  0.00     0.184 A 
ATOM     45  H9  UNL     1       1.013  17.715  12.884  1.00  0.00     0.167 HD
BRANCH  42  46
HETATM   46  C1  UNL     1       1.293  19.551  10.715  1.00  0.00     0.138 C 
HETATM   47  N1  UNL     1       2.342  20.129  10.253  1.00  0.00    -0.386 N 
ATOM     48  H12 UNL     1       2.597  20.052   9.268  1.00  0.00     0.157 HD
ATOM     49  H11 UNL     1       2.961  20.682  10.845  1.00  0.00     0.157 HD
HETATM   50  N2  UNL     1       0.432  18.780   9.889  1.00  0.00    -0.081 NA
ENDBRANCH  42  46
ENDBRANCH   1  40
TORSDOF 13
ENDMDL
MODEL 2
REMARK VINA RESULT: -6.330065760      2.465      3.186
REMARK  13 active torsions:
REMARK  status: ('A' for Active; 'I' for Inactive)
REMARK    1  A    between atoms: C1_4  and  C2_6 
REMARK    2  A    between atoms: N3_8  and  C4_9 
REMARK    3  A    between atoms: C6_12  and  O2_13 
REMARK    4  A    between atoms: O2_13  and  S1_14 
REMARK    5  A    between atoms: C7_18  and  N4_19 
REMARK    6  A    between atoms: C7_18  and  C14_39 
REMARK       I    between atoms: N4_19  and  C8_21 
REMARK    7  A    between atoms: C8_21  and  C9_23 
REMARK    8  A    between atoms: C11_25  and  C12_26 
REMARK    9  A    between atoms: C12_26  and  N5_27 
REMARK   10  A    between atoms: C12_26  and  C13_31 
REMARK   11  A    between atoms: C13_31  and  N6_32 
REMARK   12  A    between atoms: C15_42  and  O9_43 
REMARK   13  A    between atoms: C16_45  and  O10_46 
ROOT
HETATM    1  C4  UNL     1       1.500  21.915  16.836  1.00  0.00     0.193 C 
HETATM    2  C5  UNL     1       0.608  21.691  17.976  1.00  0.00     0.185 C 
HETATM    3  O1  UNL     1      -0.576  21.832  17.816  1.00  0.00    -0.293 OA
HETATM    4  C6  UNL     1       1.135  21.301  19.299  1.00  0.00     0.256 C 
HETATM    5  C7  UNL     1       2.467  21.884  19.618  1.00  0.00     0.175 C 
HETATM    6  C15 UNL     1       3.441  21.745  18.452  1.00  0.00     0.189 C 
HETATM    7  C16 UNL     1       2.921  22.217  17.151  1.00  0.00     0.180 C 
ENDROOT
BRANCH   5   8
HETATM    8  N4  UNL     1       3.136  21.287  20.753  1.00  0.00    -0.333 N 
HETATM    9  C8  UNL     1       2.674  21.335  22.088  1.00  0.00     0.271 C 
HETATM   10  O6  UNL     1       1.627  21.908  22.414  1.00  0.00    -0.266 OA
ATOM     11  H4  UNL     1       4.009  20.792  20.576  1.00  0.00     0.164 HD
BRANCH   9  12
HETATM   12  C9  UNL     1       3.427  20.696  23.174  1.00  0.00     0.124 A 
HETATM   13  C10 UNL     1       4.695  20.179  23.038  1.00  0.00     0.074 A 
HETATM   14  C11 UNL     1       5.060  19.665  24.282  1.00  0.00     0.111 A 
HETATM   15  O7  UNL     1       4.043  19.890  25.058  1.00  0.00    -0.240 OA
HETATM   16  N7  UNL     1       3.082  20.485  24.445  1.00  0.00    -0.256 N 
ATOM     17  H7  UNL     1       2.193  20.755  24.867  1.00  0.00     0.195 HD
BRANCH  14  18
HETATM   18  C12 UNL     1       6.344  19.009  24.616  1.00  0.00     0.267 C 
BRANCH  18  19
HETATM   19  N5  UNL     1       6.709  18.125  23.553  1.00  0.00    -0.067 N 
ATOM     20  H53 UNL     1       7.245  17.323  23.883  1.00  0.00     0.275 HD
ATOM     21  H52 UNL     1       5.907  17.617  23.179  1.00  0.00     0.275 HD
ATOM     22  H51 UNL     1       7.204  18.653  22.834  1.00  0.00     0.275 HD
ENDBRANCH  18  19
BRANCH  18  23
HETATM   23  C13 UNL     1       6.246  18.306  25.953  1.00  0.00     0.269 C 
BRANCH  23  24
HETATM   24  N6  UNL     1       5.188  17.328  25.922  1.00  0.00    -0.077 N 
ATOM     25  H63 UNL     1       4.286  17.748  25.699  1.00  0.00     0.274 HD
ATOM     26  H62 UNL     1       5.267  16.706  25.117  1.00  0.00     0.274 HD
ATOM     27  H61 UNL     1       5.162  16.813  26.802  1.00  0.00     0.274 HD
ENDBRANCH  23  24
ENDBRANCH  18  23
ENDBRANCH  14  18
ENDBRANCH   9  12
ENDBRANCH   5   8
BRANCH   5  28
HETATM   28  C14 UNL     1       2.353  23.339  19.904  1.00  0.00     0.265 C 
HETATM   29  N8  UNL     1       3.505  24.152  20.088  1.00  0.00    -0.060 NA
HETATM   30  O8  UNL     1       1.216  23.885  19.990  1.00  0.00    -0.274 OA
ENDBRANCH   5  28
BRANCH   4  31
HETATM   31  O2  UNL     1       1.098  19.935  19.503  1.00  0.00    -0.241 OA
BRANCH  31  32
HETATM   32  S1  UNL     1      -0.049  19.297  20.450  1.00  0.00     0.252 S 
HETATM   33  O3  UNL     1       0.595  18.455  21.534  1.00  0.00    -0.572 OA
HETATM   34  O4  UNL     1      -0.992  20.287  21.072  1.00  0.00    -0.572 OA
HETATM   35  O5  UNL     1      -1.010  18.248  19.555  1.00  0.00    -0.572 OA
ENDBRANCH  31  32
ENDBRANCH   4  31
BRANCH   6  36
HETATM   36  O9  UNL     1       3.933  20.447  18.335  1.00  0.00    -0.390 OA
ATOM     37  H9  UNL     1       3.248  19.825  18.119  1.00  0.00     0.210 HD
ENDBRANCH   6  36
BRANCH   7  38
HETATM   38  O10 UNL     1       3.703  21.578  16.153  1.00  0.00    -0.390 OA
ATOM     39  H10 UNL     1       4.535  22.037  16.125  1.00  0.00     0.210 HD
ENDBRANCH   7  38
BRANCH   1  40
HETATM   40  N3  UNL     1       1.372  20.865  15.814  1.00  0.00    -0.336 N 
HETATM   41  C3  UNL     1       0.920  21.056  14.563  1.00  0.00     0.125 A 
HETATM   42  C2  UNL     1       0.930  19.855  13.871  1.00  0.00     0.090 A 
HETATM   43  N9  UNL     1       1.392  18.952  14.723  1.00  0.00    -0.348 N 
HETATM   44  C17 UNL     1       1.663  19.560  15.909  1.00  0.00     0.184 A 
ATOM     45  H9  UNL     1       1.523  17.961  14.522  1.00  0.00     0.167 HD
BRANCH  42  46
HETATM   46  C1  UNL     1       0.505  19.677  12.478  1.00  0.00     0.138 C 
HETATM   47  N1  UNL     1       1.296  19.173  11.601  1.00  0.00    -0.386 N 
ATOM     48  H12 UNL     1       1.000  19.049  10.633  1.00  0.00     0.157 HD
ATOM     49  H11 UNL     1       2.244  18.877  11.833  1.00  0.00     0.157 HD
HETATM   50  N2  UNL     1      -0.816  20.089  12.154  1.00  0.00    -0.081 NA
ENDBRANCH  42  46
ENDBRANCH   1  40
TORSDOF 13
ENDMDL
MODEL 3
REMARK VINA RESULT: -6.314001185      4.367      7.391
REMARK  13 active torsions:
REMARK  status: ('A' for Active; 'I' for Inactive)
REMARK    1  A    between atoms: C1_4  and  C2_6 
REMARK    2  A    between atoms: N3_8  and  C4_9 
REMARK    3  A    between atoms: C6_12  and  O2_13 
REMARK    4  A    between atoms: O2_13  and  S1_14 
REMARK    5  A    between atoms: C7_18  and  N4_19 
REMARK    6  A    between atoms: C7_18  and  C14_39 
REMARK       I    between atoms: N4_19  and  C8_21 
REMARK    7  A    between atoms: C8_21  and  C9_23 
REMARK    8  A    between atoms: C11_25  and  C12_26 
REMARK    9  A    between atoms: C12_26  and  N5_27 
REMARK   10  A    between atoms: C12_26  and  C13_31 
REMARK   11  A    between atoms: C13_31  and  N6_32 
REMARK   12  A    between atoms: C15_42  and  O9_43 
REMARK   13  A    between atoms: C16_45  and  O10_46 
ROOT
HETATM    1  C4  UNL     1       0.512  20.321  20.118  1.00  0.00     0.193 C 
HETATM    2  C5  UNL     1      -0.114  21.447  19.420  1.00  0.00     0.185 C 
HETATM    3  O1  UNL     1       0.484  22.488  19.360  1.00  0.00    -0.293 OA
HETATM    4  C6  UNL     1      -1.448  21.320  18.802  1.00  0.00     0.256 C 
HETATM    5  C7  UNL     1      -2.373  20.410  19.531  1.00  0.00     0.175 C 
HETATM    6  C15 UNL     1      -1.694  19.097  19.910  1.00  0.00     0.189 C 
HETATM    7  C16 UNL     1      -0.396  19.249  20.602  1.00  0.00     0.180 C 
ENDROOT
BRANCH   5   8
HETATM    8  N4  UNL     1      -3.560  20.033  18.795  1.00  0.00    -0.333 N 
HETATM    9  C8  UNL     1      -4.566  20.924  18.361  1.00  0.00     0.271 C 
HETATM   10  O6  UNL     1      -4.521  22.143  18.578  1.00  0.00    -0.266 OA
ATOM     11  H4  UNL     1      -3.679  19.045  18.572  1.00  0.00     0.164 HD
BRANCH   9  12
HETATM   12  C9  UNL     1      -5.738  20.444  17.619  1.00  0.00     0.124 A 
HETATM   13  C10 UNL     1      -6.675  21.266  17.034  1.00  0.00     0.074 A 
HETATM   14  C11 UNL     1      -7.620  20.438  16.431  1.00  0.00     0.111 A 
HETATM   15  O7  UNL     1      -7.221  19.226  16.673  1.00  0.00    -0.240 OA
HETATM   16  N7  UNL     1      -6.134  19.197  17.359  1.00  0.00    -0.256 N 
ATOM     17  H7  UNL     1      -5.649  18.351  17.658  1.00  0.00     0.195 HD
BRANCH  14  18
HETATM   18  C12 UNL     1      -8.816  20.879  15.678  1.00  0.00     0.267 C 
BRANCH  18  19
HETATM   19  N5  UNL     1      -8.999  22.284  15.868  1.00  0.00    -0.067 N 
ATOM     20  H53 UNL     1      -8.430  22.649  16.631  1.00  0.00     0.275 HD
ATOM     21  H52 UNL     1      -8.592  22.833  15.110  1.00  0.00     0.275 HD
ATOM     22  H51 UNL     1      -9.992  22.477  15.998  1.00  0.00     0.275 HD
ENDBRANCH  18  19
BRANCH  18  23
HETATM   23  C13 UNL     1     -10.028  20.070  16.092  1.00  0.00     0.269 C 
BRANCH  23  24
HETATM   24  N6  UNL     1     -10.077  19.952  17.527  1.00  0.00    -0.077 N 
ATOM     25  H63 UNL     1     -10.453  20.792  17.967  1.00  0.00     0.274 HD
ATOM     26  H62 UNL     1     -10.792  19.291  17.831  1.00  0.00     0.274 HD
ATOM     27  H61 UNL     1      -9.155  19.711  17.891  1.00  0.00     0.274 HD
ENDBRANCH  23  24
ENDBRANCH  18  23
ENDBRANCH  14  18
ENDBRANCH   9  12
ENDBRANCH   5   8
BRANCH   5  28
HETATM   28  C14 UNL     1      -2.834  21.031  20.801  1.00  0.00     0.265 C 
HETATM   29  N8  UNL     1      -3.665  20.326  21.713  1.00  0.00    -0.060 NA
HETATM   30  O8  UNL     1      -2.492  22.213  21.094  1.00  0.00    -0.274 OA
ENDBRANCH   5  28
BRANCH   4  31
HETATM   31  O2  UNL     1      -1.381  21.029  17.452  1.00  0.00    -0.241 OA
BRANCH  31  32
HETATM   32  S1  UNL     1      -1.571  22.214  16.366  1.00  0.00     0.252 S 
HETATM   33  O3  UNL     1      -1.870  23.518  17.081  1.00  0.00    -0.572 OA
HETATM   34  O4  UNL     1      -0.421  22.407  15.420  1.00  0.00    -0.572 OA
HETATM   35  O5  UNL     1      -2.910  21.894  15.402  1.00  0.00    -0.572 OA
ENDBRANCH  31  32
ENDBRANCH   4  31
BRANCH   6  36
HETATM   36  O9  UNL     1      -1.565  18.242  18.818  1.00  0.00    -0.390 OA
ATOM     37  H9  UNL     1      -1.731  17.337  19.053  1.00  0.00     0.210 HD
ENDBRANCH   6  36
BRANCH   7  38
HETATM   38  O10 UNL     1       0.294  18.021  20.427  1.00  0.00    -0.390 OA
ATOM     39  H10 UNL     1       0.947  17.975  21.117  1.00  0.00     0.210 HD
ENDBRANCH   7  38
BRANCH   1  40
HETATM   40  N3  UNL     1       1.662  19.778  19.381  1.00  0.00    -0.336 N 
HETATM   41  C3  UNL     1       1.649  19.416  18.085  1.00  0.00     0.125 A 
HETATM   42  C2  UNL     1       2.899  18.947  17.716  1.00  0.00     0.090 A 
HETATM   43  N9  UNL     1       3.653  19.033  18.802  1.00  0.00    -0.348 N 
HETATM   44  C17 UNL     1       2.906  19.538  19.820  1.00  0.00     0.184 A 
ATOM     45  H9  UNL     1       4.634  18.765  18.864  1.00  0.00     0.167 HD
BRANCH  42  46
HETATM   46  C1  UNL     1       3.261  18.464  16.378  1.00  0.00     0.138 C 
HETATM   47  N1  UNL     1       4.480  18.203  16.072  1.00  0.00    -0.386 N 
ATOM     48  H12 UNL     1       4.731  17.868  15.142  1.00  0.00     0.157 HD
ATOM     49  H11 UNL     1       5.242  18.318  16.741  1.00  0.00     0.157 HD
HETATM   50  N2  UNL     1       2.199  18.304  15.447  1.00  0.00    -0.081 NA
ENDBRANCH  42  46
ENDBRANCH   1  40
TORSDOF 13
ENDMDL
MODEL 4
REMARK VINA RESULT: -6.203581583      3.438      4.962
REMARK  13 active torsions:
REMARK  status: ('A' for Active; 'I' for Inactive)
REMARK    1  A    between atoms: C1_4  and  C2_6 
REMARK    2  A    between atoms: N3_8  and  C4_9 
REMARK    3  A    between atoms: C6_12  and  O2_13 
REMARK    4  A    between atoms: O2_13  and  S1_14 
REMARK    5  A    between atoms: C7_18  and  N4_19 
REMARK    6  A    between atoms: C7_18  and  C14_39 
REMARK       I    between atoms: N4_19  and  C8_21 
REMARK    7  A    between atoms: C8_21  and  C9_23 
REMARK    8  A    between atoms: C11_25  and  C12_26 
REMARK    9  A    between atoms: C12_26  and  N5_27 
REMARK   10  A    between atoms: C12_26  and  C13_31 
REMARK   11  A    between atoms: C13_31  and  N6_32 
REMARK   12  A    between atoms: C15_42  and  O9_43 
REMARK   13  A    between atoms: C16_45  and  O10_46 
ROOT
HETATM    1  C4  UNL     1       1.658  20.695  15.782  1.00  0.00     0.193 C 
HETATM    2  C5  UNL     1       1.757  21.752  16.792  1.00  0.00     0.185 C 
HETATM    3  O1  UNL     1       1.303  22.835  16.536  1.00  0.00    -0.293 OA
HETATM    4  C6  UNL     1       2.398  21.507  18.099  1.00  0.00     0.256 C 
HETATM    5  C7  UNL     1       3.533  20.545  18.049  1.00  0.00     0.175 C 
HETATM    6  C15 UNL     1       3.184  19.298  17.241  1.00  0.00     0.189 C 
HETATM    7  C16 UNL     1       2.618  19.567  15.902  1.00  0.00     0.180 C 
ENDROOT
BRANCH   5   8
HETATM    8  N4  UNL     1       3.975  20.059  19.338  1.00  0.00    -0.333 N 
HETATM    9  C8  UNL     1       4.516  20.860  20.368  1.00  0.00     0.271 C 
HETATM   10  O6  UNL     1       4.664  22.084  20.257  1.00  0.00    -0.266 OA
ATOM     11  H4  UNL     1       3.889  19.059  19.517  1.00  0.00     0.164 HD
BRANCH   9  12
HETATM   12  C9  UNL     1       4.937  20.271  21.646  1.00  0.00     0.124 A 
HETATM   13  C10 UNL     1       4.421  20.630  22.871  1.00  0.00     0.074 A 
HETATM   14  C11 UNL     1       5.072  19.852  23.827  1.00  0.00     0.111 A 
HETATM   15  O7  UNL     1       5.901  19.108  23.160  1.00  0.00    -0.240 OA
HETATM   16  N7  UNL     1       5.845  19.327  21.895  1.00  0.00    -0.256 N 
ATOM     17  H7  UNL     1       6.409  18.852  21.189  1.00  0.00     0.195 HD
BRANCH  14  18
HETATM   18  C12 UNL     1       4.843  19.891  25.290  1.00  0.00     0.267 C 
BRANCH  18  19
HETATM   19  N5  UNL     1       5.132  21.204  25.775  1.00  0.00    -0.067 N 
ATOM     20  H53 UNL     1       5.266  21.223  26.786  1.00  0.00     0.275 HD
ATOM     21  H52 UNL     1       6.062  21.522  25.502  1.00  0.00     0.275 HD
ATOM     22  H51 UNL     1       4.398  21.843  25.469  1.00  0.00     0.275 HD
ENDBRANCH  18  19
BRANCH  18  23
HETATM   23  C13 UNL     1       5.660  18.819  25.980  1.00  0.00     0.269 C 
BRANCH  23  24
HETATM   24  N6  UNL     1       5.035  17.533  25.808  1.00  0.00    -0.077 N 
ATOM     25  H63 UNL     1       4.151  17.601  25.303  1.00  0.00     0.274 HD
ATOM     26  H62 UNL     1       5.541  16.948  25.144  1.00  0.00     0.274 HD
ATOM     27  H61 UNL     1       4.923  17.074  26.712  1.00  0.00     0.274 HD
ENDBRANCH  23  24
ENDBRANCH  18  23
ENDBRANCH  14  18
ENDBRANCH   9  12
ENDBRANCH   5   8
BRANCH   5  28
HETATM   28  C14 UNL     1       4.718  21.158  17.392  1.00  0.00     0.265 C 
HETATM   29  N8  UNL     1       4.719  22.519  16.986  1.00  0.00    -0.060 NA
HETATM   30  O8  UNL     1       5.757  20.469  17.181  1.00  0.00    -0.274 OA
ENDBRANCH   5  28
BRANCH   4  31
HETATM   31  O2  UNL     1       1.485  21.191  19.086  1.00  0.00    -0.241 OA
BRANCH  31  32
HETATM   32  S1  UNL     1       0.976  22.340  20.106  1.00  0.00     0.252 S 
HETATM   33  O3  UNL     1       1.740  23.625  19.849  1.00  0.00    -0.572 OA
HETATM   34  O4  UNL     1      -0.500  22.614  20.079  1.00  0.00    -0.572 OA
HETATM   35  O5  UNL     1       1.330  21.895  21.688  1.00  0.00    -0.572 OA
ENDBRANCH  31  32
ENDBRANCH   4  31
BRANCH   6  36
HETATM   36  O9  UNL     1       2.357  18.430  17.952  1.00  0.00    -0.390 OA
ATOM     37  H9  UNL     1       1.802  17.917  17.377  1.00  0.00     0.210 HD
ENDBRANCH   6  36
BRANCH   7  38
HETATM   38  O10 UNL     1       1.915  18.393  15.523  1.00  0.00    -0.390 OA
ATOM     39  H10 UNL     1       1.380  18.626  14.774  1.00  0.00     0.210 HD
ENDBRANCH   7  38
BRANCH   1  40
HETATM   40  N3  UNL     1       0.276  20.226  15.600  1.00  0.00    -0.336 N 
HETATM   41  C3  UNL     1      -0.515  19.755  16.580  1.00  0.00     0.125 A 
HETATM   42  C2  UNL     1      -1.750  19.403  16.057  1.00  0.00     0.090 A 
HETATM   43  N9  UNL     1      -1.682  19.669  14.761  1.00  0.00    -0.348 N 
HETATM   44  C17 UNL     1      -0.451  20.170  14.476  1.00  0.00     0.184 A 
ATOM     45  H9  UNL     1      -2.433  19.521  14.087  1.00  0.00     0.167 HD
BRANCH  42  46
HETATM   46  C1  UNL     1      -2.870  18.851  16.829  1.00  0.00     0.138 C 
HETATM   47  N1  UNL     1      -3.871  19.582  17.163  1.00  0.00    -0.386 N 
ATOM     48  H12 UNL     1      -4.649  19.199  17.699  1.00  0.00     0.157 HD
ATOM     49  H11 UNL     1      -3.930  20.568  16.908  1.00  0.00     0.157 HD
HETATM   50  N2  UNL     1      -2.787  17.478  17.184  1.00  0.00    -0.081 NA
ENDBRANCH  42  46
ENDBRANCH   1  40
TORSDOF 13
ENDMDL
MODEL 5
REMARK VINA RESULT: -6.185860576      4.186      7.219
REMARK  13 active torsions:
REMARK  status: ('A' for Active; 'I' for Inactive)
REMARK    1  A    between atoms: C1_4  and  C2_6 
REMARK    2  A    between atoms: N3_8  and  C4_9 
REMARK    3  A    between atoms: C6_12  and  O2_13 
REMARK    4  A    between atoms: O2_13  and  S1_14 
REMARK    5  A    between atoms: C7_18  and  N4_19 
REMARK    6  A    between atoms: C7_18  and  C14_39 
REMARK       I    between atoms: N4_19  and  C8_21 
REMARK    7  A    between atoms: C8_21  and  C9_23 
REMARK    8  A    between atoms: C11_25  and  C12_26 
REMARK    9  A    between atoms: C12_26  and  N5_27 
REMARK   10  A    between atoms: C12_26  and  C13_31 
REMARK   11  A    between atoms: C13_31  and  N6_32 
REMARK   12  A    between atoms: C15_42  and  O9_43 
REMARK   13  A    between atoms: C16_45  and  O10_46 
ROOT
HETATM    1  C4  UNL     1      -4.720  20.850  17.490  1.00  0.00     0.193 C 
HETATM    2  C5  UNL     1      -3.610  21.795  17.639  1.00  0.00     0.185 C 
HETATM    3  O1  UNL     1      -3.864  22.950  17.852  1.00  0.00    -0.293 OA
HETATM    4  C6  UNL     1      -2.206  21.352  17.530  1.00  0.00     0.256 C 
HETATM    5  C7  UNL     1      -1.991  20.241  16.563  1.00  0.00     0.175 C 
HETATM    6  C15 UNL     1      -3.022  19.130  16.738  1.00  0.00     0.189 C 
HETATM    7  C16 UNL     1      -4.428  19.587  16.763  1.00  0.00     0.180 C 
ENDROOT
BRANCH   5   8
HETATM    8  N4  UNL     1      -0.703  19.592  16.659  1.00  0.00    -0.333 N 
HETATM    9  C8  UNL     1       0.540  20.204  16.383  1.00  0.00     0.271 C 
HETATM   10  O6  UNL     1       0.640  21.385  16.024  1.00  0.00    -0.266 OA
ATOM     11  H4  UNL     1      -0.690  18.615  16.950  1.00  0.00     0.164 HD
BRANCH   9  12
HETATM   12  C9  UNL     1       1.799  19.459  16.510  1.00  0.00     0.124 A 
HETATM   13  C10 UNL     1       2.469  19.267  17.698  1.00  0.00     0.074 A 
HETATM   14  C11 UNL     1       3.607  18.518  17.405  1.00  0.00     0.111 A 
HETATM   15  O7  UNL     1       3.562  18.311  16.123  1.00  0.00    -0.240 OA
HETATM   16  N7  UNL     1       2.526  18.843  15.578  1.00  0.00    -0.256 N 
ATOM     17  H7  UNL     1       2.297  18.801  14.585  1.00  0.00     0.195 HD
BRANCH  14  18
HETATM   18  C12 UNL     1       4.632  18.068  18.374  1.00  0.00     0.267 C 
BRANCH  18  19
HETATM   19  N5  UNL     1       4.555  16.647  18.513  1.00  0.00    -0.067 N 
ATOM     20  H53 UNL     1       3.651  16.342  18.873  1.00  0.00     0.275 HD
ATOM     21  H52 UNL     1       4.518  16.172  17.611  1.00  0.00     0.275 HD
ATOM     22  H51 UNL     1       5.332  16.325  19.090  1.00  0.00     0.275 HD
ENDBRANCH  18  19
BRANCH  18  23
HETATM   23  C13 UNL     1       4.468  18.794  19.692  1.00  0.00     0.269 C 
BRANCH  23  24
HETATM   24  N6  UNL     1       4.628  17.873  20.788  1.00  0.00    -0.077 N 
ATOM     25  H63 UNL     1       4.961  16.961  20.475  1.00  0.00     0.274 HD
ATOM     26  H62 UNL     1       5.417  18.124  21.385  1.00  0.00     0.274 HD
ATOM     27  H61 UNL     1       3.758  17.802  21.316  1.00  0.00     0.274 HD
ENDBRANCH  23  24
ENDBRANCH  18  23
ENDBRANCH  14  18
ENDBRANCH   9  12
ENDBRANCH   5   8
BRANCH   5  28
HETATM   28  C14 UNL     1      -2.124  20.725  15.163  1.00  0.00     0.265 C 
HETATM   29  N8  UNL     1      -2.419  22.085  14.873  1.00  0.00    -0.060 NA
HETATM   30  O8  UNL     1      -1.975  19.926  14.195  1.00  0.00    -0.274 OA
ENDBRANCH   5  28
BRANCH   4  31
HETATM   31  O2  UNL     1      -1.635  21.093  18.762  1.00  0.00    -0.241 OA
BRANCH  31  32
HETATM   32  S1  UNL     1      -0.637  22.179  19.427  1.00  0.00     0.252 S 
HETATM   33  O3  UNL     1       0.689  21.520  19.755  1.00  0.00    -0.572 OA
HETATM   34  O4  UNL     1      -0.398  23.417  18.610  1.00  0.00    -0.572 OA
HETATM   35  O5  UNL     1      -1.267  22.712  20.891  1.00  0.00    -0.572 OA
ENDBRANCH  31  32
ENDBRANCH   4  31
BRANCH   6  36
HETATM   36  O9  UNL     1      -2.750  18.337  17.852  1.00  0.00    -0.390 OA
ATOM     37  H9  UNL     1      -1.979  18.635  18.320  1.00  0.00     0.210 HD
ENDBRANCH   6  36
BRANCH   7  38
HETATM   38  O10 UNL     1      -5.169  18.564  17.411  1.00  0.00    -0.390 OA
ATOM     39  H10 UNL     1      -5.525  18.011  16.725  1.00  0.00     0.210 HD
ENDBRANCH   7  38
BRANCH   1  40
HETATM   40  N3  UNL     1      -5.418  20.606  18.761  1.00  0.00    -0.336 N 
HETATM   41  C3  UNL     1      -6.751  20.514  18.905  1.00  0.00     0.125 A 
HETATM   42  C2  UNL     1      -7.065  20.282  20.235  1.00  0.00     0.090 A 
HETATM   43  N9  UNL     1      -5.907  20.236  20.877  1.00  0.00    -0.348 N 
HETATM   44  C17 UNL     1      -4.899  20.434  19.985  1.00  0.00     0.184 A 
ATOM     45  H9  UNL     1      -5.791  20.079  21.877  1.00  0.00     0.167 HD
BRANCH  42  46
HETATM   46  C1  UNL     1      -8.423  20.124  20.770  1.00  0.00     0.138 C 
HETATM   47  N1  UNL     1      -8.751  19.091  21.458  1.00  0.00    -0.386 N 
ATOM     48  H12 UNL     1      -9.695  18.983  21.829  1.00  0.00     0.157 HD
ATOM     49  H11 UNL     1      -8.088  18.344  21.661  1.00  0.00     0.157 HD
HETATM   50  N2  UNL     1      -9.347  21.167  20.487  1.00  0.00    -0.081 NA
ENDBRANCH  42  46
ENDBRANCH   1  40
TORSDOF 13
ENDMDL
