MODEL 1
REMARK VINA RESULT: -7.918750453      0.000      0.000
REMARK  15 active torsions:
REMARK  status: ('A' for Active; 'I' for Inactive)
REMARK    1  A    between atoms: N1_1  and  C1_4 
REMARK    2  A    between atoms: C2_7  and  C3_8 
REMARK    3  A    between atoms: C3_8  and  C8_28 
REMARK    4  A    between atoms: N3_9  and  O1_11 
REMARK    5  A    between atoms: O1_11  and  C4_12 
REMARK    6  A    between atoms: C5_15  and  O4_16 
REMARK    7  A    between atoms: C6_18  and  C7_19 
REMARK    8  A    between atoms: C7_19  and  O5_20 
REMARK    9  A    between atoms: O5_20  and  S1_21 
REMARK   10  A    between atoms: S1_21  and  N4_22 
REMARK   11  A    between atoms: C8_28  and  O9_29 
REMARK   12  A    between atoms: C8_28  and  N5_31 
REMARK   13  A    between atoms: N5_31  and  C9_33 
REMARK   14  A    between atoms: C9_33  and  C10_34 
REMARK   15  A    between atoms: C11_35  and  O10_36 
ROOT
HETATM    1  C3  UNL     1      -3.644  20.325  17.683  1.00  0.00     0.132 C 
HETATM    2  N3  UNL     1      -3.645  20.570  18.992  1.00  0.00    -0.255 N 
ATOM      3  H3  UNL     1      -4.228  21.333  19.337  1.00  0.00     0.195 HD
ENDROOT
BRANCH   1   4
HETATM    4  C2  UNL     1      -4.493  21.200  16.923  1.00  0.00     0.087 A 
HETATM    5  N2  UNL     1      -3.947  22.122  16.065  1.00  0.00    -0.189 N 
HETATM    6  C1  UNL     1      -4.688  22.968  15.329  1.00  0.00     0.679 A 
ATOM      7  H2  UNL     1      -2.931  22.168  15.983  1.00  0.00     0.184 HD
HETATM    8  N8  UNL     1      -6.026  22.982  15.371  1.00  0.00    -0.156 N 
HETATM    9  C15 UNL     1      -6.611  22.101  16.192  1.00  0.00     0.261 A 
ATOM     10  H8  UNL     1      -6.572  23.631  14.805  1.00  0.00     0.187 HD
HETATM   11  C14 UNL     1      -5.861  21.202  16.976  1.00  0.00     0.107 A 
HETATM   12  O13 UNL     1      -7.879  22.049  16.290  1.00  0.00    -0.268 OA
BRANCH   6  13
HETATM   13  N1  UNL     1      -4.105  23.811  14.543  1.00  0.00    -0.234 N 
ATOM     14  H12 UNL     1      -3.171  24.129  14.800  1.00  0.00     0.174 HD
ATOM     15  H11 UNL     1      -4.584  24.132  13.701  1.00  0.00     0.174 HD
ENDBRANCH   6  13
ENDBRANCH   1   4
BRANCH   1  16
HETATM   16  C8  UNL     1      -2.829  19.261  17.171  1.00  0.00     0.171 C 
BRANCH  16  17
HETATM   17  O9  UNL     1      -3.449  18.132  16.965  1.00  0.00    -0.344 OA
ATOM     18  H9  UNL     1      -3.393  17.792  16.079  1.00  0.00     0.219 HD
ENDBRANCH  16  17
BRANCH  16  19
HETATM   19  N5  UNL     1      -1.476  19.219  16.851  1.00  0.00    -0.344 N 
ATOM     20  H5  UNL     1      -0.959  18.392  17.151  1.00  0.00     0.167 HD
BRANCH  19  21
HETATM   21  C9  UNL     1      -0.820  20.109  16.222  1.00  0.00     0.111 C 
BRANCH  21  22
HETATM   22  C10 UNL     1      -0.450  19.898  14.822  1.00  0.00     0.098 A 
HETATM   23  C11 UNL     1       0.455  18.892  14.470  1.00  0.00     0.161 A 
HETATM   24  N6  UNL     1       0.784  18.711  13.180  1.00  0.00    -0.288 N 
HETATM   25  C12 UNL     1       0.282  19.459  12.182  1.00  0.00     0.329 A 
ATOM     26  H6  UNL     1       1.446  17.971  12.947  1.00  0.00     0.172 HD
HETATM   27  O11 UNL     1       0.635  19.236  10.987  1.00  0.00    -0.247 OA
HETATM   28  N7  UNL     1      -0.587  20.430  12.502  1.00  0.00    -0.275 N 
HETATM   29  C13 UNL     1      -0.948  20.650  13.781  1.00  0.00     0.265 A 
ATOM     30  H7  UNL     1      -0.982  21.011  11.763  1.00  0.00     0.173 HD
HETATM   31  O12 UNL     1      -1.774  21.575  14.065  1.00  0.00    -0.267 OA
BRANCH  23  32
HETATM   32  O10 UNL     1       0.987  18.108  15.475  1.00  0.00    -0.345 OA
ATOM     33  H10 UNL     1       1.346  17.260  15.242  1.00  0.00     0.219 HD
ENDBRANCH  23  32
ENDBRANCH  21  22
ENDBRANCH  19  21
ENDBRANCH  16  19
ENDBRANCH   1  16
BRANCH   2  34
HETATM   34  O1  UNL     1      -2.923  19.870  19.888  1.00  0.00    -0.217 OA
BRANCH  34  35
HETATM   35  C4  UNL     1      -1.694  20.386  20.350  1.00  0.00     0.471 C 
HETATM   36  O2  UNL     1      -1.645  20.154  21.737  1.00  0.00    -0.175 OA
HETATM   37  O3  UNL     1      -0.539  20.694  22.243  1.00  0.00    -0.201 OA
HETATM   38  C5  UNL     1       0.525  19.923  21.812  1.00  0.00     0.325 C 
HETATM   39  C6  UNL     1       0.581  20.011  20.296  1.00  0.00     0.210 C 
HETATM   40  O8  UNL     1      -0.655  19.702  19.714  1.00  0.00    -0.323 OA
BRANCH  38  41
HETATM   41  O4  UNL     1       1.698  20.466  22.304  1.00  0.00    -0.366 OA
ATOM     42  H4  UNL     1       2.371  20.402  21.636  1.00  0.00     0.212 HD
ENDBRANCH  38  41
BRANCH  39  43
HETATM   43  C7  UNL     1       1.612  19.049  19.791  1.00  0.00     0.229 C 
BRANCH  43  44
HETATM   44  O5  UNL     1       1.549  18.956  18.400  1.00  0.00    -0.257 OA
BRANCH  44  45
HETATM   45  S1  UNL     1       3.087  18.812  17.735  1.00  0.00     0.355 S 
HETATM   46  O6  UNL     1       3.275  17.434  17.169  1.00  0.00    -0.176 OA
HETATM   47  O7  UNL     1       4.132  19.050  18.782  1.00  0.00    -0.176 OA
BRANCH  45  48
HETATM   48  N4  UNL     1       3.320  19.976  16.479  1.00  0.00    -0.306 N 
ATOM     49  H42 UNL     1       2.895  20.903  16.478  1.00  0.00     0.171 HD
ATOM     50  H41 UNL     1       3.933  19.605  15.753  1.00  0.00     0.171 HD
ENDBRANCH  45  48
ENDBRANCH  44  45
ENDBRANCH  43  44
ENDBRANCH  39  43
ENDBRANCH  34  35
ENDBRANCH   2  34
TORSDOF 15
ENDMDL
MODEL 2
REMARK VINA RESULT: -7.774342274      2.749      6.438
REMARK  15 active torsions:
REMARK  status: ('A' for Active; 'I' for Inactive)
REMARK    1  A    between atoms: N1_1  and  C1_4 
REMARK    2  A    between atoms: C2_7  and  C3_8 
REMARK    3  A    between atoms: C3_8  and  C8_28 
REMARK    4  A    between atoms: N3_9  and  O1_11 
REMARK    5  A    between atoms: O1_11  and  C4_12 
REMARK    6  A    between atoms: C5_15  and  O4_16 
REMARK    7  A    between atoms: C6_18  and  C7_19 
REMARK    8  A    between atoms: C7_19  and  O5_20 
REMARK    9  A    between atoms: O5_20  and  S1_21 
REMARK   10  A    between atoms: S1_21  and  N4_22 
REMARK   11  A    between atoms: C8_28  and  O9_29 
REMARK   12  A    between atoms: C8_28  and  N5_31 
REMARK   13  A    between atoms: N5_31  and  C9_33 
REMARK   14  A    between atoms: C9_33  and  C10_34 
REMARK   15  A    between atoms: C11_35  and  O10_36 
ROOT
HETATM    1  C3  UNL     1      -0.140  19.305  19.811  1.00  0.00     0.132 C 
HETATM    2  N3  UNL     1      -1.306  18.792  19.427  1.00  0.00    -0.255 N 
ATOM      3  H3  UNL     1      -2.008  18.607  20.144  1.00  0.00     0.195 HD
ENDROOT
BRANCH   1   4
HETATM    4  C2  UNL     1      -0.036  19.533  21.226  1.00  0.00     0.087 A 
HETATM    5  N2  UNL     1      -0.789  20.511  21.827  1.00  0.00    -0.189 N 
HETATM    6  C1  UNL     1      -0.735  20.773  23.143  1.00  0.00     0.679 A 
ATOM      7  H2  UNL     1      -1.419  21.065  21.246  1.00  0.00     0.184 HD
HETATM    8  N8  UNL     1       0.061  20.099  23.983  1.00  0.00    -0.156 N 
HETATM    9  C15 UNL     1       0.818  19.132  23.449  1.00  0.00     0.261 A 
ATOM     10  H8  UNL     1       0.089  20.311  24.980  1.00  0.00     0.187 HD
HETATM   11  C14 UNL     1       0.783  18.835  22.072  1.00  0.00     0.107 A 
HETATM   12  O13 UNL     1       1.602  18.444  24.179  1.00  0.00    -0.268 OA
BRANCH   6  13
HETATM   13  N1  UNL     1      -1.472  21.709  23.641  1.00  0.00    -0.234 N 
ATOM     14  H12 UNL     1      -1.008  22.435  24.187  1.00  0.00     0.174 HD
ATOM     15  H11 UNL     1      -2.479  21.701  23.478  1.00  0.00     0.174 HD
ENDBRANCH   6  13
ENDBRANCH   1   4
BRANCH   1  16
HETATM   16  C8  UNL     1       0.867  19.570  18.823  1.00  0.00     0.171 C 
BRANCH  16  17
HETATM   17  O9  UNL     1       1.860  18.724  18.796  1.00  0.00    -0.344 OA
ATOM     18  H9  UNL     1       2.718  19.098  18.957  1.00  0.00     0.219 HD
ENDBRANCH  16  17
BRANCH  16  19
HETATM   19  N5  UNL     1       0.974  20.582  17.876  1.00  0.00    -0.344 N 
ATOM     20  H5  UNL     1       0.354  21.385  17.991  1.00  0.00     0.167 HD
BRANCH  19  21
HETATM   21  C9  UNL     1       1.766  20.607  16.880  1.00  0.00     0.111 C 
BRANCH  21  22
HETATM   22  C10 UNL     1       1.284  20.241  15.548  1.00  0.00     0.098 A 
HETATM   23  C11 UNL     1       0.716  21.204  14.708  1.00  0.00     0.161 A 
HETATM   24  N6  UNL     1       0.278  20.851  13.488  1.00  0.00    -0.288 N 
HETATM   25  C12 UNL     1       0.356  19.595  13.014  1.00  0.00     0.329 A 
ATOM     26  H6  UNL     1      -0.132  21.571  12.893  1.00  0.00     0.172 HD
HETATM   27  O11 UNL     1      -0.075  19.331  11.854  1.00  0.00    -0.247 OA
HETATM   28  N7  UNL     1       0.898  18.658  13.807  1.00  0.00    -0.275 N 
HETATM   29  C13 UNL     1       1.351  18.963  15.039  1.00  0.00     0.265 A 
ATOM     30  H7  UNL     1       0.968  17.698  13.472  1.00  0.00     0.173 HD
HETATM   31  O12 UNL     1       1.861  18.061  15.777  1.00  0.00    -0.267 OA
BRANCH  23  32
HETATM   32  O10 UNL     1       0.623  22.502  15.169  1.00  0.00    -0.345 OA
ATOM     33  H10 UNL     1       1.229  22.785  15.844  1.00  0.00     0.219 HD
ENDBRANCH  23  32
ENDBRANCH  21  22
ENDBRANCH  19  21
ENDBRANCH  16  19
ENDBRANCH   1  16
BRANCH   2  34
HETATM   34  O1  UNL     1      -1.615  18.501  18.149  1.00  0.00    -0.217 OA
BRANCH  34  35
HETATM   35  C4  UNL     1      -2.615  19.244  17.486  1.00  0.00     0.471 C 
HETATM   36  O2  UNL     1      -3.729  19.292  18.343  1.00  0.00    -0.175 OA
HETATM   37  O3  UNL     1      -4.736  19.915  17.734  1.00  0.00    -0.201 OA
HETATM   38  C5  UNL     1      -4.404  21.256  17.665  1.00  0.00     0.325 C 
HETATM   39  C6  UNL     1      -3.154  21.382  16.808  1.00  0.00     0.210 C 
HETATM   40  O8  UNL     1      -2.133  20.536  17.257  1.00  0.00    -0.323 OA
BRANCH  38  41
HETATM   41  O4  UNL     1      -5.421  21.935  17.019  1.00  0.00    -0.366 OA
ATOM     42  H4  UNL     1      -5.258  22.869  17.086  1.00  0.00     0.212 HD
ENDBRANCH  38  41
BRANCH  39  43
HETATM   43  C7  UNL     1      -2.672  22.799  16.859  1.00  0.00     0.229 C 
BRANCH  43  44
HETATM   44  O5  UNL     1      -3.429  23.601  16.004  1.00  0.00    -0.257 OA
BRANCH  44  45
HETATM   45  S1  UNL     1      -2.502  24.150  14.714  1.00  0.00     0.355 S 
HETATM   46  O6  UNL     1      -2.041  22.989  13.882  1.00  0.00    -0.176 OA
HETATM   47  O7  UNL     1      -1.299  24.892  15.214  1.00  0.00    -0.176 OA
BRANCH  45  48
HETATM   48  N4  UNL     1      -3.416  25.230  13.721  1.00  0.00    -0.306 N 
ATOM     49  H42 UNL     1      -3.908  24.943  12.875  1.00  0.00     0.171 HD
ATOM     50  H41 UNL     1      -3.390  26.176  14.099  1.00  0.00     0.171 HD
ENDBRANCH  45  48
ENDBRANCH  44  45
ENDBRANCH  43  44
ENDBRANCH  39  43
ENDBRANCH  34  35
ENDBRANCH   2  34
TORSDOF 15
ENDMDL
MODEL 3
REMARK VINA RESULT: -7.689903331      2.040      2.716
REMARK  15 active torsions:
REMARK  status: ('A' for Active; 'I' for Inactive)
REMARK    1  A    between atoms: N1_1  and  C1_4 
REMARK    2  A    between atoms: C2_7  and  C3_8 
REMARK    3  A    between atoms: C3_8  and  C8_28 
REMARK    4  A    between atoms: N3_9  and  O1_11 
REMARK    5  A    between atoms: O1_11  and  C4_12 
REMARK    6  A    between atoms: C5_15  and  O4_16 
REMARK    7  A    between atoms: C6_18  and  C7_19 
REMARK    8  A    between atoms: C7_19  and  O5_20 
REMARK    9  A    between atoms: O5_20  and  S1_21 
REMARK   10  A    between atoms: S1_21  and  N4_22 
REMARK   11  A    between atoms: C8_28  and  O9_29 
REMARK   12  A    between atoms: C8_28  and  N5_31 
REMARK   13  A    between atoms: N5_31  and  C9_33 
REMARK   14  A    between atoms: C9_33  and  C10_34 
REMARK   15  A    between atoms: C11_35  and  O10_36 
ROOT
HETATM    1  C3  UNL     1      -2.181  21.132  18.794  1.00  0.00     0.132 C 
HETATM    2  N3  UNL     1      -1.710  21.573  19.958  1.00  0.00    -0.255 N 
ATOM      3  H3  UNL     1      -2.336  21.563  20.764  1.00  0.00     0.195 HD
ENDROOT
BRANCH   1   4
HETATM    4  C2  UNL     1      -3.547  20.689  18.845  1.00  0.00     0.087 A 
HETATM    5  N2  UNL     1      -4.237  20.705  20.030  1.00  0.00    -0.189 N 
HETATM    6  C1  UNL     1      -5.515  20.303  20.142  1.00  0.00     0.679 A 
ATOM      7  H2  UNL     1      -3.758  21.038  20.867  1.00  0.00     0.184 HD
HETATM    8  N8  UNL     1      -6.224  19.851  19.100  1.00  0.00    -0.156 N 
HETATM    9  C15 UNL     1      -5.598  19.815  17.917  1.00  0.00     0.261 A 
ATOM     10  H8  UNL     1      -7.193  19.550  19.202  1.00  0.00     0.187 HD
HETATM   11  C14 UNL     1      -4.260  20.229  17.769  1.00  0.00     0.107 A 
HETATM   12  O13 UNL     1      -6.202  19.398  16.876  1.00  0.00    -0.268 OA
BRANCH   6  13
HETATM   13  N1  UNL     1      -6.102  20.344  21.291  1.00  0.00    -0.234 N 
ATOM     14  H12 UNL     1      -5.870  19.615  21.966  1.00  0.00     0.174 HD
ATOM     15  H11 UNL     1      -6.767  21.091  21.493  1.00  0.00     0.174 HD
ENDBRANCH   6  13
ENDBRANCH   1   4
BRANCH   1  16
HETATM   16  C8  UNL     1      -1.323  21.139  17.644  1.00  0.00     0.171 C 
BRANCH  16  17
HETATM   17  O9  UNL     1      -0.377  20.241  17.646  1.00  0.00    -0.344 OA
ATOM     18  H9  UNL     1       0.395  20.465  18.153  1.00  0.00     0.219 HD
ENDBRANCH  16  17
BRANCH  16  19
HETATM   19  N5  UNL     1      -1.321  21.945  16.511  1.00  0.00    -0.344 N 
ATOM     20  H5  UNL     1      -2.194  22.424  16.288  1.00  0.00     0.167 HD
BRANCH  19  21
HETATM   21  C9  UNL     1      -0.340  22.145  15.726  1.00  0.00     0.111 C 
BRANCH  21  22
HETATM   22  C10 UNL     1      -0.186  21.329  14.520  1.00  0.00     0.098 A 
HETATM   23  C11 UNL     1       1.064  20.812  14.167  1.00  0.00     0.161 A 
HETATM   24  N6  UNL     1       1.188  20.065  13.058  1.00  0.00    -0.288 N 
HETATM   25  C12 UNL     1       0.156  19.777  12.246  1.00  0.00     0.329 A 
ATOM     26  H6  UNL     1       2.110  19.698  12.820  1.00  0.00     0.172 HD
HETATM   27  O11 UNL     1       0.343  19.067  11.215  1.00  0.00    -0.247 OA
HETATM   28  N7  UNL     1      -1.051  20.266  12.569  1.00  0.00    -0.275 N 
HETATM   29  C13 UNL     1      -1.227  21.020  13.672  1.00  0.00     0.265 A 
ATOM     30  H7  UNL     1      -1.850  20.063  11.970  1.00  0.00     0.173 HD
HETATM   31  O12 UNL     1      -2.379  21.476  13.962  1.00  0.00    -0.267 OA
BRANCH  23  32
HETATM   32  O10 UNL     1       2.143  21.091  14.983  1.00  0.00    -0.345 OA
ATOM     33  H10 UNL     1       2.115  20.790  15.884  1.00  0.00     0.219 HD
ENDBRANCH  23  32
ENDBRANCH  21  22
ENDBRANCH  19  21
ENDBRANCH  16  19
ENDBRANCH   1  16
BRANCH   2  34
HETATM   34  O1  UNL     1      -0.456  22.032  20.136  1.00  0.00    -0.217 OA
BRANCH  34  35
HETATM   35  C4  UNL     1       0.461  21.281  20.900  1.00  0.00     0.471 C 
HETATM   36  O2  UNL     1      -0.276  20.284  21.565  1.00  0.00    -0.175 OA
HETATM   37  O3  UNL     1       0.530  19.591  22.367  1.00  0.00    -0.201 OA
HETATM   38  C5  UNL     1       1.344  18.818  21.559  1.00  0.00     0.325 C 
HETATM   39  C6  UNL     1       2.182  19.758  20.708  1.00  0.00     0.210 C 
HETATM   40  O8  UNL     1       1.387  20.693  20.035  1.00  0.00    -0.323 OA
BRANCH  38  41
HETATM   41  O4  UNL     1       2.211  18.096  22.359  1.00  0.00    -0.366 OA
ATOM     42  H4  UNL     1       2.614  18.686  22.986  1.00  0.00     0.212 HD
ENDBRANCH  38  41
BRANCH  39  43
HETATM   43  C7  UNL     1       2.945  18.952  19.702  1.00  0.00     0.229 C 
BRANCH  43  44
HETATM   44  O5  UNL     1       2.148  18.684  18.588  1.00  0.00    -0.257 OA
BRANCH  44  45
HETATM   45  S1  UNL     1       3.088  18.454  17.214  1.00  0.00     0.355 S 
HETATM   46  O6  UNL     1       2.208  18.182  16.029  1.00  0.00    -0.176 OA
HETATM   47  O7  UNL     1       4.014  17.291  17.405  1.00  0.00    -0.176 OA
BRANCH  45  48
HETATM   48  N4  UNL     1       4.053  19.852  16.893  1.00  0.00    -0.306 N 
ATOM     49  H42 UNL     1       4.372  20.120  15.962  1.00  0.00     0.171 HD
ATOM     50  H41 UNL     1       4.251  20.359  17.755  1.00  0.00     0.171 HD
ENDBRANCH  45  48
ENDBRANCH  44  45
ENDBRANCH  43  44
ENDBRANCH  39  43
ENDBRANCH  34  35
ENDBRANCH   2  34
TORSDOF 15
ENDMDL
MODEL 4
REMARK VINA RESULT: -7.625871387      2.795      6.522
REMARK  15 active torsions:
REMARK  status: ('A' for Active; 'I' for Inactive)
REMARK    1  A    between atoms: N1_1  and  C1_4 
REMARK    2  A    between atoms: C2_7  and  C3_8 
REMARK    3  A    between atoms: C3_8  and  C8_28 
REMARK    4  A    between atoms: N3_9  and  O1_11 
REMARK    5  A    between atoms: O1_11  and  C4_12 
REMARK    6  A    between atoms: C5_15  and  O4_16 
REMARK    7  A    between atoms: C6_18  and  C7_19 
REMARK    8  A    between atoms: C7_19  and  O5_20 
REMARK    9  A    between atoms: O5_20  and  S1_21 
REMARK   10  A    between atoms: S1_21  and  N4_22 
REMARK   11  A    between atoms: C8_28  and  O9_29 
REMARK   12  A    between atoms: C8_28  and  N5_31 
REMARK   13  A    between atoms: N5_31  and  C9_33 
REMARK   14  A    between atoms: C9_33  and  C10_34 
REMARK   15  A    between atoms: C11_35  and  O10_36 
ROOT
HETATM    1  C3  UNL     1       1.146  19.506  16.248  1.00  0.00     0.132 C 
HETATM    2  N3  UNL     1       0.312  19.582  17.282  1.00  0.00    -0.255 N 
ATOM      3  H3  UNL     1      -0.645  19.887  17.105  1.00  0.00     0.195 HD
ENDROOT
BRANCH   1   4
HETATM    4  C2  UNL     1       0.556  19.876  14.991  1.00  0.00     0.087 A 
HETATM    5  N2  UNL     1       1.012  19.322  13.821  1.00  0.00    -0.189 N 
HETATM    6  C1  UNL     1       0.503  19.628  12.616  1.00  0.00     0.679 A 
ATOM      7  H2  UNL     1       1.774  18.645  13.869  1.00  0.00     0.184 HD
HETATM    8  N8  UNL     1      -0.497  20.504  12.455  1.00  0.00    -0.156 N 
HETATM    9  C15 UNL     1      -0.980  21.076  13.565  1.00  0.00     0.261 A 
ATOM     10  H8  UNL     1      -0.872  20.725  11.532  1.00  0.00     0.187 HD
HETATM   11  C14 UNL     1      -0.467  20.775  14.842  1.00  0.00     0.107 A 
HETATM   12  O13 UNL     1      -1.931  21.920  13.498  1.00  0.00    -0.268 OA
BRANCH   6  13
HETATM   13  N1  UNL     1       0.983  19.068  11.556  1.00  0.00    -0.234 N 
ATOM     14  H12 UNL     1       1.887  18.602  11.637  1.00  0.00     0.174 HD
ATOM     15  H11 UNL     1       0.457  19.103  10.683  1.00  0.00     0.174 HD
ENDBRANCH   6  13
ENDBRANCH   1   4
BRANCH   1  16
HETATM   16  C8  UNL     1       2.500  19.084  16.469  1.00  0.00     0.171 C 
BRANCH  16  17
HETATM   17  O9  UNL     1       2.681  17.793  16.527  1.00  0.00    -0.344 OA
ATOM     18  H9  UNL     1       2.345  17.302  15.785  1.00  0.00     0.219 HD
ENDBRANCH  16  17
BRANCH  16  19
HETATM   19  N5  UNL     1       3.669  19.818  16.635  1.00  0.00    -0.344 N 
ATOM     20  H5  UNL     1       3.862  20.538  15.940  1.00  0.00     0.167 HD
BRANCH  19  21
HETATM   21  C9  UNL     1       4.523  19.679  17.569  1.00  0.00     0.111 C 
BRANCH  21  22
HETATM   22  C10 UNL     1       4.084  19.620  18.964  1.00  0.00     0.098 A 
HETATM   23  C11 UNL     1       4.109  18.412  19.667  1.00  0.00     0.161 A 
HETATM   24  N6  UNL     1       3.703  18.376  20.946  1.00  0.00    -0.288 N 
HETATM   25  C12 UNL     1       3.263  19.460  21.609  1.00  0.00     0.329 A 
ATOM     26  H6  UNL     1       3.730  17.483  21.439  1.00  0.00     0.172 HD
HETATM   27  O11 UNL     1       2.894  19.355  22.815  1.00  0.00    -0.247 OA
HETATM   28  N7  UNL     1       3.231  20.627  20.949  1.00  0.00    -0.275 N 
HETATM   29  C13 UNL     1       3.628  20.715  19.665  1.00  0.00     0.265 A 
ATOM     30  H7  UNL     1       2.901  21.464  21.429  1.00  0.00     0.173 HD
HETATM   31  O12 UNL     1       3.591  21.832  19.055  1.00  0.00    -0.267 OA
BRANCH  23  32
HETATM   32  O10 UNL     1       4.557  17.282  19.011  1.00  0.00    -0.345 OA
ATOM     33  H10 UNL     1       5.051  16.640  19.507  1.00  0.00     0.219 HD
ENDBRANCH  23  32
ENDBRANCH  21  22
ENDBRANCH  19  21
ENDBRANCH  16  19
ENDBRANCH   1  16
BRANCH   2  34
HETATM   34  O1  UNL     1       0.657  19.280  18.549  1.00  0.00    -0.217 OA
BRANCH  34  35
HETATM   35  C4  UNL     1      -0.323  19.303  19.563  1.00  0.00     0.471 C 
HETATM   36  O2  UNL     1       0.124  20.202  20.548  1.00  0.00    -0.175 OA
HETATM   37  O3  UNL     1      -0.726  20.203  21.572  1.00  0.00    -0.201 OA
HETATM   38  C5  UNL     1      -1.878  20.838  21.146  1.00  0.00     0.325 C 
HETATM   39  C6  UNL     1      -2.470  20.015  20.013  1.00  0.00     0.210 C 
HETATM   40  O8  UNL     1      -1.525  19.756  19.013  1.00  0.00    -0.323 OA
BRANCH  38  41
HETATM   41  O4  UNL     1      -2.796  20.843  22.181  1.00  0.00    -0.366 OA
ATOM     42  H4  UNL     1      -3.659  20.663  21.827  1.00  0.00     0.212 HD
ENDBRANCH  38  41
BRANCH  39  43
HETATM   43  C7  UNL     1      -3.619  20.767  19.415  1.00  0.00     0.229 C 
BRANCH  43  44
HETATM   44  O5  UNL     1      -4.763  19.968  19.389  1.00  0.00    -0.257 OA
BRANCH  44  45
HETATM   45  S1  UNL     1      -5.214  19.612  17.810  1.00  0.00     0.355 S 
HETATM   46  O6  UNL     1      -5.596  20.872  17.088  1.00  0.00    -0.176 OA
HETATM   47  O7  UNL     1      -6.386  18.678  17.800  1.00  0.00    -0.176 OA
BRANCH  45  48
HETATM   48  N4  UNL     1      -3.918  18.845  16.961  1.00  0.00    -0.306 N 
ATOM     49  H42 UNL     1      -2.943  18.887  17.257  1.00  0.00     0.171 HD
ATOM     50  H41 UNL     1      -4.266  18.355  16.138  1.00  0.00     0.171 HD
ENDBRANCH  45  48
ENDBRANCH  44  45
ENDBRANCH  43  44
ENDBRANCH  39  43
ENDBRANCH  34  35
ENDBRANCH   2  34
TORSDOF 15
ENDMDL
MODEL 5
REMARK VINA RESULT: -7.603861335      3.176      5.646
REMARK  15 active torsions:
REMARK  status: ('A' for Active; 'I' for Inactive)
REMARK    1  A    between atoms: N1_1  and  C1_4 
REMARK    2  A    between atoms: C2_7  and  C3_8 
REMARK    3  A    between atoms: C3_8  and  C8_28 
REMARK    4  A    between atoms: N3_9  and  O1_11 
REMARK    5  A    between atoms: O1_11  and  C4_12 
REMARK    6  A    between atoms: C5_15  and  O4_16 
REMARK    7  A    between atoms: C6_18  and  C7_19 
REMARK    8  A    between atoms: C7_19  and  O5_20 
REMARK    9  A    between atoms: O5_20  and  S1_21 
REMARK   10  A    between atoms: S1_21  and  N4_22 
REMARK   11  A    between atoms: C8_28  and  O9_29 
REMARK   12  A    between atoms: C8_28  and  N5_31 
REMARK   13  A    between atoms: N5_31  and  C9_33 
REMARK   14  A    between atoms: C9_33  and  C10_34 
REMARK   15  A    between atoms: C11_35  and  O10_36 
ROOT
HETATM    1  C3  UNL     1       0.741  21.193  19.507  1.00  0.00     0.132 C 
HETATM    2  N3  UNL     1       1.298  22.401  19.495  1.00  0.00    -0.255 N 
ATOM      3  H3  UNL     1       1.528  22.833  20.390  1.00  0.00     0.195 HD
ENDROOT
BRANCH   1   4
HETATM    4  C2  UNL     1       0.541  20.654  20.824  1.00  0.00     0.087 A 
HETATM    5  N2  UNL     1       1.104  19.452  21.174  1.00  0.00    -0.189 N 
HETATM    6  C1  UNL     1       0.951  18.896  22.388  1.00  0.00     0.679 A 
ATOM      7  H2  UNL     1       1.664  18.957  20.480  1.00  0.00     0.184 HD
HETATM    8  N8  UNL     1       0.234  19.470  23.361  1.00  0.00    -0.156 N 
HETATM    9  C15 UNL     1      -0.338  20.646  23.074  1.00  0.00     0.261 A 
ATOM     10  H8  UNL     1       0.129  19.034  24.278  1.00  0.00     0.187 HD
HETATM   11  C14 UNL     1      -0.196  21.253  21.810  1.00  0.00     0.107 A 
HETATM   12  O13 UNL     1      -1.036  21.258  23.945  1.00  0.00    -0.268 OA
BRANCH   6  13
HETATM   13  N1  UNL     1       1.509  17.760  22.647  1.00  0.00    -0.234 N 
ATOM     14  H12 UNL     1       1.741  17.157  21.857  1.00  0.00     0.174 HD
ATOM     15  H11 UNL     1       1.702  17.500  23.614  1.00  0.00     0.174 HD
ENDBRANCH   6  13
ENDBRANCH   1   4
BRANCH   1  16
HETATM   16  C8  UNL     1       0.403  20.564  18.262  1.00  0.00     0.171 C 
BRANCH  16  17
HETATM   17  O9  UNL     1       1.027  19.446  18.012  1.00  0.00    -0.344 OA
ATOM     18  H9  UNL     1       1.956  19.531  17.831  1.00  0.00     0.219 HD
ENDBRANCH  16  17
BRANCH  16  19
HETATM   19  N5  UNL     1      -0.485  20.941  17.261  1.00  0.00    -0.344 N 
ATOM     20  H5  UNL     1      -1.453  20.636  17.367  1.00  0.00     0.167 HD
BRANCH  19  21
HETATM   21  C9  UNL     1      -0.211  21.629  16.226  1.00  0.00     0.111 C 
BRANCH  21  22
HETATM   22  C10 UNL     1      -0.118  20.981  14.916  1.00  0.00     0.098 A 
HETATM   23  C11 UNL     1       1.079  20.392  14.498  1.00  0.00     0.161 A 
HETATM   24  N6  UNL     1       1.147  19.802  13.293  1.00  0.00    -0.288 N 
HETATM   25  C12 UNL     1       0.106  19.743  12.444  1.00  0.00     0.329 A 
ATOM     26  H6  UNL     1       2.030  19.378  13.009  1.00  0.00     0.172 HD
HETATM   27  O11 UNL     1       0.239  19.171  11.322  1.00  0.00    -0.247 OA
HETATM   28  N7  UNL     1      -1.050  20.304  12.829  1.00  0.00    -0.275 N 
HETATM   29  C13 UNL     1      -1.168  20.908  14.028  1.00  0.00     0.265 A 
ATOM     30  H7  UNL     1      -1.854  20.274  12.203  1.00  0.00     0.173 HD
HETATM   31  O12 UNL     1      -2.273  21.435  14.376  1.00  0.00    -0.267 OA
BRANCH  23  32
HETATM   32  O10 UNL     1       2.164  20.437  15.350  1.00  0.00    -0.345 OA
ATOM     33  H10 UNL     1       2.017  20.277  16.275  1.00  0.00     0.219 HD
ENDBRANCH  23  32
ENDBRANCH  21  22
ENDBRANCH  19  21
ENDBRANCH  16  19
ENDBRANCH   1  16
BRANCH   2  34
HETATM   34  O1  UNL     1       1.575  23.089  18.370  1.00  0.00    -0.217 OA
BRANCH  34  35
HETATM   35  C4  UNL     1       2.895  23.113  17.874  1.00  0.00     0.471 C 
HETATM   36  O2  UNL     1       3.706  23.659  18.885  1.00  0.00    -0.175 OA
HETATM   37  O3  UNL     1       4.955  23.781  18.442  1.00  0.00    -0.201 OA
HETATM   38  C5  UNL     1       5.481  22.505  18.348  1.00  0.00     0.325 C 
HETATM   39  C6  UNL     1       4.663  21.740  17.319  1.00  0.00     0.210 C 
HETATM   40  O8  UNL     1       3.293  21.802  17.599  1.00  0.00    -0.323 OA
BRANCH  38  41
HETATM   41  O4  UNL     1       6.776  22.590  17.870  1.00  0.00    -0.366 OA
ATOM     42  H4  UNL     1       7.353  22.117  18.459  1.00  0.00     0.212 HD
ENDBRANCH  38  41
BRANCH  39  43
HETATM   43  C7  UNL     1       5.098  20.306  17.324  1.00  0.00     0.229 C 
BRANCH  43  44
HETATM   44  O5  UNL     1       4.104  19.499  17.879  1.00  0.00    -0.257 OA
BRANCH  44  45
HETATM   45  S1  UNL     1       4.092  17.978  17.164  1.00  0.00     0.355 S 
HETATM   46  O6  UNL     1       5.092  17.929  16.045  1.00  0.00    -0.176 OA
HETATM   47  O7  UNL     1       2.733  17.673  16.610  1.00  0.00    -0.176 OA
BRANCH  45  48
HETATM   48  N4  UNL     1       4.479  16.755  18.322  1.00  0.00    -0.306 N 
ATOM     49  H42 UNL     1       4.932  16.944  19.217  1.00  0.00     0.171 HD
ATOM     50  H41 UNL     1       4.194  15.836  17.985  1.00  0.00     0.171 HD
ENDBRANCH  45  48
ENDBRANCH  44  45
ENDBRANCH  43  44
ENDBRANCH  39  43
ENDBRANCH  34  35
ENDBRANCH   2  34
TORSDOF 15
ENDMDL
