MODEL 1
REMARK VINA RESULT: -7.711096189      0.000      0.000
REMARK  12 active torsions:
REMARK  status: ('A' for Active; 'I' for Inactive)
REMARK    1  A    between atoms: N1_1  and  C1_4 
REMARK    2  A    between atoms: C2_7  and  C3_8 
REMARK    3  A    between atoms: C6_12  and  C7_13 
REMARK       I    between atoms: C7_13  and  N4_15 
REMARK    4  A    between atoms: N4_15  and  C8_17 
REMARK    5  A    between atoms: C10_22  and  C11_23 
REMARK    6  A    between atoms: C11_23  and  O2_24 
REMARK    7  A    between atoms: O2_24  and  S1_25 
REMARK    8  A    between atoms: S1_25  and  N6_28 
REMARK       I    between atoms: N6_28  and  C12_30 
REMARK    9  A    between atoms: C12_30  and  C13_32 
REMARK   10  A    between atoms: C13_32  and  N7_33 
REMARK   11  A    between atoms: C14_37  and  O6_38 
REMARK   12  A    between atoms: N8_42  and  N9_43 
ROOT
HETATM    1  C7  UNL     1       2.206  19.971  16.142  1.00  0.00     0.259 C 
HETATM    2  O1  UNL     1       1.186  19.200  16.300  1.00  0.00    -0.267 OA
HETATM    3  N4  UNL     1       2.183  20.808  15.051  1.00  0.00    -0.348 N 
ATOM      4  H4  UNL     1       2.964  21.440  14.874  1.00  0.00     0.163 HD
ENDROOT
BRANCH   3   5
HETATM    5  C8  UNL     1       1.029  20.788  14.141  1.00  0.00     0.141 C 
HETATM    6  C9  UNL     1       0.333  19.441  14.189  1.00  0.00     0.260 C 
HETATM    7  N5  UNL     1      -1.000  19.777  13.699  1.00  0.00    -0.064 N 
HETATM    8  C10 UNL     1      -1.315  21.048  14.333  1.00  0.00     0.241 C 
ATOM      9  H52 UNL     1      -1.077  19.789  12.682  1.00  0.00     0.277 HD
ATOM     10  H51 UNL     1      -1.697  19.049  13.858  1.00  0.00     0.277 HD
HETATM   11  C14 UNL     1      -0.037  21.730  14.643  1.00  0.00     0.175 C 
BRANCH   8  12
HETATM   12  C11 UNL     1      -2.197  20.792  15.514  1.00  0.00     0.227 C 
BRANCH  12  13
HETATM   13  O2  UNL     1      -2.842  19.582  15.521  1.00  0.00    -0.257 OA
BRANCH  13  14
HETATM   14  S1  UNL     1      -2.709  18.873  17.054  1.00  0.00     0.364 S 
HETATM   15  O3  UNL     1      -2.652  17.377  16.979  1.00  0.00    -0.175 OA
HETATM   16  O4  UNL     1      -3.910  19.320  17.878  1.00  0.00    -0.175 OA
BRANCH  14  17
HETATM   17  N6  UNL     1      -1.334  19.556  17.829  1.00  0.00    -0.230 N 
HETATM   18  C12 UNL     1      -0.853  19.000  19.040  1.00  0.00     0.258 C 
HETATM   19  O5  UNL     1      -1.423  18.017  19.541  1.00  0.00    -0.271 OA
ATOM     20  H6  UNL     1      -0.864  20.362  17.417  1.00  0.00     0.183 HD
BRANCH  18  21
HETATM   21  C13 UNL     1       0.331  19.616  19.681  1.00  0.00     0.332 C 
BRANCH  21  22
HETATM   22  N7  UNL     1       1.234  18.603  20.184  1.00  0.00    -0.071 N 
ATOM     23  H73 UNL     1       0.904  18.210  21.066  1.00  0.00     0.274 HD
ATOM     24  H72 UNL     1       1.204  17.756  19.617  1.00  0.00     0.274 HD
ATOM     25  H71 UNL     1       2.183  18.968  20.266  1.00  0.00     0.274 HD
ENDBRANCH  21  22
ENDBRANCH  18  21
ENDBRANCH  14  17
ENDBRANCH  13  14
ENDBRANCH  12  13
ENDBRANCH   8  12
BRANCH  11  26
HETATM   26  O6  UNL     1       0.195  21.898  16.006  1.00  0.00    -0.391 OA
ATOM     27  H6  UNL     1       0.016  21.059  16.415  1.00  0.00     0.210 HD
ENDBRANCH  11  26
ENDBRANCH   3   5
BRANCH   1  28
HETATM   28  C6  UNL     1       3.234  19.853  17.127  1.00  0.00     0.126 C 
HETATM   29  C5  UNL     1       3.521  20.977  17.895  1.00  0.00     0.068 C 
HETATM   30  C4  UNL     1       4.179  20.984  19.132  1.00  0.00     0.047 C 
HETATM   31  N3  UNL     1       3.094  22.213  17.364  1.00  0.00    -0.101 NA
HETATM   32  C3  UNL     1       4.785  19.926  19.780  1.00  0.00     0.063 C 
HETATM   33  C16 UNL     1       4.512  18.593  19.553  1.00  0.00     0.281 C 
HETATM   34  N8  UNL     1       4.308  17.970  18.350  1.00  0.00    -0.189 N 
HETATM   35  O8  UNL     1       4.429  17.828  20.534  1.00  0.00    -0.265 OA
HETATM   36  C15 UNL     1       3.890  18.622  17.238  1.00  0.00     0.286 C 
HETATM   37  O7  UNL     1       4.138  18.019  16.169  1.00  0.00    -0.265 OA
BRANCH  32  38
HETATM   38  C2  UNL     1       5.793  20.234  20.825  1.00  0.00     0.056 A 
HETATM   39  N2  UNL     1       6.632  19.368  21.335  1.00  0.00    -0.336 N 
HETATM   40  C1  UNL     1       7.467  19.761  22.295  1.00  0.00     0.142 A 
ATOM     41  H2  UNL     1       6.646  18.405  21.001  1.00  0.00     0.168 HD
HETATM   42  S2  UNL     1       7.083  21.398  22.503  1.00  0.00    -0.064 SA
HETATM   43  C17 UNL     1       5.845  21.516  21.333  1.00  0.00     0.083 A 
BRANCH  40  44
HETATM   44  N1  UNL     1       8.367  19.022  22.914  1.00  0.00    -0.380 N 
ATOM     45  H12 UNL     1       8.522  18.015  22.873  1.00  0.00     0.158 HD
ATOM     46  H11 UNL     1       9.087  19.345  23.560  1.00  0.00     0.158 HD
ENDBRANCH  40  44
ENDBRANCH  32  38
BRANCH  34  47
HETATM   47  N9  UNL     1       4.551  16.606  18.295  1.00  0.00    -0.333 N 
ATOM     48  H92 UNL     1       3.847  16.025  17.841  1.00  0.00     0.177 HD
ATOM     49  H91 UNL     1       5.407  16.228  18.704  1.00  0.00     0.177 HD
ENDBRANCH  34  47
ENDBRANCH   1  28
TORSDOF 12
ENDMDL
MODEL 2
REMARK VINA RESULT: -7.330138076      3.499      8.860
REMARK  12 active torsions:
REMARK  status: ('A' for Active; 'I' for Inactive)
REMARK    1  A    between atoms: N1_1  and  C1_4 
REMARK    2  A    between atoms: C2_7  and  C3_8 
REMARK    3  A    between atoms: C6_12  and  C7_13 
REMARK       I    between atoms: C7_13  and  N4_15 
REMARK    4  A    between atoms: N4_15  and  C8_17 
REMARK    5  A    between atoms: C10_22  and  C11_23 
REMARK    6  A    between atoms: C11_23  and  O2_24 
REMARK    7  A    between atoms: O2_24  and  S1_25 
REMARK    8  A    between atoms: S1_25  and  N6_28 
REMARK       I    between atoms: N6_28  and  C12_30 
REMARK    9  A    between atoms: C12_30  and  C13_32 
REMARK   10  A    between atoms: C13_32  and  N7_33 
REMARK   11  A    between atoms: C14_37  and  O6_38 
REMARK   12  A    between atoms: N8_42  and  N9_43 
ROOT
HETATM    1  C7  UNL     1      -0.820  20.044  15.800  1.00  0.00     0.259 C 
HETATM    2  O1  UNL     1      -0.505  19.814  14.572  1.00  0.00    -0.267 OA
HETATM    3  N4  UNL     1       0.218  20.125  16.699  1.00  0.00    -0.348 N 
ATOM      4  H4  UNL     1       0.029  20.305  17.685  1.00  0.00     0.163 HD
ENDROOT
BRANCH   3   5
HETATM    5  C8  UNL     1       1.601  19.952  16.232  1.00  0.00     0.141 C 
HETATM    6  C9  UNL     1       2.404  21.219  16.458  1.00  0.00     0.260 C 
HETATM    7  N5  UNL     1       3.771  20.709  16.461  1.00  0.00    -0.064 N 
HETATM    8  C10 UNL     1       3.698  19.467  17.216  1.00  0.00     0.241 C 
ATOM      9  H52 UNL     1       4.178  20.607  15.532  1.00  0.00     0.277 HD
ATOM     10  H51 UNL     1       4.461  21.371  16.817  1.00  0.00     0.277 HD
HETATM   11  C14 UNL     1       2.315  18.948  17.103  1.00  0.00     0.175 C 
BRANCH   8  12
HETATM   12  C11 UNL     1       4.164  19.725  18.614  1.00  0.00     0.227 C 
BRANCH  12  13
HETATM   13  O2  UNL     1       4.201  18.629  19.438  1.00  0.00    -0.257 OA
BRANCH  13  14
HETATM   14  S1  UNL     1       4.624  19.109  21.007  1.00  0.00     0.364 S 
HETATM   15  O3  UNL     1       4.801  20.594  21.112  1.00  0.00    -0.175 OA
HETATM   16  O4  UNL     1       5.915  18.391  21.379  1.00  0.00    -0.175 OA
BRANCH  14  17
HETATM   17  N6  UNL     1       3.427  18.500  22.081  1.00  0.00    -0.230 N 
HETATM   18  C12 UNL     1       2.093  18.967  21.993  1.00  0.00     0.258 C 
HETATM   19  O5  UNL     1       1.786  19.814  21.139  1.00  0.00    -0.271 OA
ATOM     20  H6  UNL     1       3.678  17.803  22.782  1.00  0.00     0.183 HD
BRANCH  18  21
HETATM   21  C13 UNL     1       1.089  18.424  22.937  1.00  0.00     0.332 C 
BRANCH  21  22
HETATM   22  N7  UNL     1       1.733  17.773  24.059  1.00  0.00    -0.071 N 
ATOM     23  H73 UNL     1       1.808  16.766  23.917  1.00  0.00     0.274 HD
ATOM     24  H72 UNL     1       2.726  17.998  24.105  1.00  0.00     0.274 HD
ATOM     25  H71 UNL     1       1.256  17.997  24.932  1.00  0.00     0.274 HD
ENDBRANCH  21  22
ENDBRANCH  18  21
ENDBRANCH  14  17
ENDBRANCH  13  14
ENDBRANCH  12  13
ENDBRANCH   8  12
BRANCH  11  26
HETATM   26  O6  UNL     1       1.626  18.916  18.314  1.00  0.00    -0.391 OA
ATOM     27  H6  UNL     1       2.057  19.541  18.886  1.00  0.00     0.210 HD
ENDBRANCH  11  26
ENDBRANCH   3   5
BRANCH   1  28
HETATM   28  C6  UNL     1      -2.216  20.184  16.068  1.00  0.00     0.126 C 
HETATM   29  C5  UNL     1      -2.863  19.118  16.686  1.00  0.00     0.068 C 
HETATM   30  C4  UNL     1      -4.080  19.180  17.376  1.00  0.00     0.047 C 
HETATM   31  N3  UNL     1      -2.210  17.869  16.604  1.00  0.00    -0.101 NA
HETATM   32  C3  UNL     1      -4.945  20.251  17.481  1.00  0.00     0.063 C 
HETATM   33  C16 UNL     1      -4.602  21.572  17.288  1.00  0.00     0.281 C 
HETATM   34  N8  UNL     1      -3.790  22.097  16.316  1.00  0.00    -0.189 N 
HETATM   35  O8  UNL     1      -5.061  22.427  18.071  1.00  0.00    -0.265 OA
HETATM   36  C15 UNL     1      -2.838  21.375  15.676  1.00  0.00     0.286 C 
HETATM   37  O7  UNL     1      -2.479  21.862  14.580  1.00  0.00    -0.265 OA
BRANCH  32  38
HETATM   38  C2  UNL     1      -6.354  19.974  17.858  1.00  0.00     0.056 A 
HETATM   39  N2  UNL     1      -6.768  19.714  19.072  1.00  0.00    -0.336 N 
HETATM   40  C1  UNL     1      -8.056  19.446  19.276  1.00  0.00     0.142 A 
ATOM     41  H2  UNL     1      -6.112  19.716  19.852  1.00  0.00     0.168 HD
HETATM   42  S2  UNL     1      -8.731  19.561  17.725  1.00  0.00    -0.064 SA
HETATM   43  C17 UNL     1      -7.311  19.953  16.862  1.00  0.00     0.083 A 
BRANCH  40  44
HETATM   44  N1  UNL     1      -8.635  19.163  20.426  1.00  0.00    -0.380 N 
ATOM     45  H12 UNL     1      -9.098  18.306  20.728  1.00  0.00     0.158 HD
ATOM     46  H11 UNL     1      -8.721  19.775  21.238  1.00  0.00     0.158 HD
ENDBRANCH  40  44
ENDBRANCH  32  38
BRANCH  34  47
HETATM   47  N9  UNL     1      -3.975  23.432  15.989  1.00  0.00    -0.333 N 
ATOM     48  H92 UNL     1      -3.751  23.712  15.035  1.00  0.00     0.177 HD
ATOM     49  H91 UNL     1      -4.319  24.082  16.696  1.00  0.00     0.177 HD
ENDBRANCH  34  47
ENDBRANCH   1  28
TORSDOF 12
ENDMDL
MODEL 3
REMARK VINA RESULT: -7.262644284      2.932      8.253
REMARK  12 active torsions:
REMARK  status: ('A' for Active; 'I' for Inactive)
REMARK    1  A    between atoms: N1_1  and  C1_4 
REMARK    2  A    between atoms: C2_7  and  C3_8 
REMARK    3  A    between atoms: C6_12  and  C7_13 
REMARK       I    between atoms: C7_13  and  N4_15 
REMARK    4  A    between atoms: N4_15  and  C8_17 
REMARK    5  A    between atoms: C10_22  and  C11_23 
REMARK    6  A    between atoms: C11_23  and  O2_24 
REMARK    7  A    between atoms: O2_24  and  S1_25 
REMARK    8  A    between atoms: S1_25  and  N6_28 
REMARK       I    between atoms: N6_28  and  C12_30 
REMARK    9  A    between atoms: C12_30  and  C13_32 
REMARK   10  A    between atoms: C13_32  and  N7_33 
REMARK   11  A    between atoms: C14_37  and  O6_38 
REMARK   12  A    between atoms: N8_42  and  N9_43 
ROOT
HETATM    1  C7  UNL     1       3.669  20.040  17.990  1.00  0.00     0.259 C 
HETATM    2  O1  UNL     1       4.690  20.129  17.209  1.00  0.00    -0.267 OA
HETATM    3  N4  UNL     1       3.921  19.712  19.301  1.00  0.00    -0.348 N 
ATOM      4  H4  UNL     1       3.151  19.626  19.965  1.00  0.00     0.163 HD
ENDROOT
BRANCH   3   5
HETATM    5  C8  UNL     1       5.305  19.487  19.743  1.00  0.00     0.141 C 
HETATM    6  C9  UNL     1       5.866  20.733  20.401  1.00  0.00     0.260 C 
HETATM    7  N5  UNL     1       6.946  20.181  21.212  1.00  0.00    -0.064 N 
HETATM    8  C10 UNL     1       6.395  18.958  21.776  1.00  0.00     0.241 C 
ATOM      9  H52 UNL     1       7.820  20.047  20.703  1.00  0.00     0.277 HD
ATOM     10  H51 UNL     1       7.317  20.829  21.907  1.00  0.00     0.277 HD
HETATM   11  C14 UNL     1       5.328  18.480  20.866  1.00  0.00     0.175 C 
BRANCH   8  12
HETATM   12  C11 UNL     1       5.954  19.231  23.179  1.00  0.00     0.227 C 
BRANCH  12  13
HETATM   13  O2  UNL     1       5.278  20.409  23.369  1.00  0.00    -0.257 OA
BRANCH  13  14
HETATM   14  S1  UNL     1       4.351  20.312  24.784  1.00  0.00     0.364 S 
HETATM   15  O3  UNL     1       3.723  21.628  25.137  1.00  0.00    -0.175 OA
HETATM   16  O4  UNL     1       5.266  19.841  25.908  1.00  0.00    -0.175 OA
BRANCH  14  17
HETATM   17  N6  UNL     1       3.195  19.057  24.568  1.00  0.00    -0.230 N 
HETATM   18  C12 UNL     1       2.127  19.227  23.652  1.00  0.00     0.258 C 
HETATM   19  O5  UNL     1       2.027  20.280  23.004  1.00  0.00    -0.271 OA
ATOM     20  H6  UNL     1       3.278  18.190  25.099  1.00  0.00     0.183 HD
BRANCH  18  21
HETATM   21  C13 UNL     1       1.149  18.127  23.495  1.00  0.00     0.332 C 
BRANCH  21  22
HETATM   22  N7  UNL     1       1.111  17.660  22.125  1.00  0.00    -0.071 N 
ATOM     23  H73 UNL     1       2.048  17.570  21.732  1.00  0.00     0.274 HD
ATOM     24  H72 UNL     1       0.825  16.683  22.068  1.00  0.00     0.274 HD
ATOM     25  H71 UNL     1       0.518  18.260  21.552  1.00  0.00     0.274 HD
ENDBRANCH  21  22
ENDBRANCH  18  21
ENDBRANCH  14  17
ENDBRANCH  13  14
ENDBRANCH  12  13
ENDBRANCH   8  12
BRANCH  11  26
HETATM   26  O6  UNL     1       4.056  18.495  21.435  1.00  0.00    -0.391 OA
ATOM     27  H6  UNL     1       3.568  17.792  21.022  1.00  0.00     0.210 HD
ENDBRANCH  11  26
ENDBRANCH   3   5
BRANCH   1  28
HETATM   28  C6  UNL     1       2.399  20.293  17.384  1.00  0.00     0.126 C 
HETATM   29  C5  UNL     1       1.690  21.409  17.821  1.00  0.00     0.068 C 
HETATM   30  C4  UNL     1       0.657  22.052  17.126  1.00  0.00     0.047 C 
HETATM   31  N3  UNL     1       2.067  21.927  19.078  1.00  0.00    -0.101 NA
HETATM   32  C3  UNL     1       0.046  21.658  15.953  1.00  0.00     0.063 C 
HETATM   33  C16 UNL     1       0.592  20.799  15.022  1.00  0.00     0.281 C 
HETATM   34  N8  UNL     1       1.292  19.644  15.252  1.00  0.00    -0.189 N 
HETATM   35  O8  UNL     1       0.457  21.070  13.813  1.00  0.00    -0.265 OA
HETATM   36  C15 UNL     1       1.953  19.395  16.409  1.00  0.00     0.286 C 
HETATM   37  O7  UNL     1       2.186  18.182  16.614  1.00  0.00    -0.265 OA
BRANCH  32  38
HETATM   38  C2  UNL     1      -1.294  22.216  15.644  1.00  0.00     0.056 A 
HETATM   39  N2  UNL     1      -1.514  23.256  14.880  1.00  0.00    -0.336 N 
HETATM   40  C1  UNL     1      -2.764  23.683  14.708  1.00  0.00     0.142 A 
ATOM     41  H2  UNL     1      -0.738  23.734  14.423  1.00  0.00     0.168 HD
HETATM   42  S2  UNL     1      -3.679  22.601  15.637  1.00  0.00    -0.064 SA
HETATM   43  C17 UNL     1      -2.402  21.629  16.220  1.00  0.00     0.083 A 
BRANCH  40  44
HETATM   44  N1  UNL     1      -3.158  24.709  13.980  1.00  0.00    -0.380 N 
ATOM     45  H12 UNL     1      -2.603  25.421  13.504  1.00  0.00     0.158 HD
ATOM     46  H11 UNL     1      -4.119  24.974  13.761  1.00  0.00     0.158 HD
ENDBRANCH  40  44
ENDBRANCH  32  38
BRANCH  34  47
HETATM   47  N9  UNL     1       1.305  18.698  14.238  1.00  0.00    -0.333 N 
ATOM     48  H92 UNL     1       2.200  18.514  13.785  1.00  0.00     0.177 HD
ATOM     49  H91 UNL     1       0.439  18.227  13.975  1.00  0.00     0.177 HD
ENDBRANCH  34  47
ENDBRANCH   1  28
TORSDOF 12
ENDMDL
MODEL 4
REMARK VINA RESULT: -7.233096999      3.465      8.968
REMARK  12 active torsions:
REMARK  status: ('A' for Active; 'I' for Inactive)
REMARK    1  A    between atoms: N1_1  and  C1_4 
REMARK    2  A    between atoms: C2_7  and  C3_8 
REMARK    3  A    between atoms: C6_12  and  C7_13 
REMARK       I    between atoms: C7_13  and  N4_15 
REMARK    4  A    between atoms: N4_15  and  C8_17 
REMARK    5  A    between atoms: C10_22  and  C11_23 
REMARK    6  A    between atoms: C11_23  and  O2_24 
REMARK    7  A    between atoms: O2_24  and  S1_25 
REMARK    8  A    between atoms: S1_25  and  N6_28 
REMARK       I    between atoms: N6_28  and  C12_30 
REMARK    9  A    between atoms: C12_30  and  C13_32 
REMARK   10  A    between atoms: C13_32  and  N7_33 
REMARK   11  A    between atoms: C14_37  and  O6_38 
REMARK   12  A    between atoms: N8_42  and  N9_43 
ROOT
HETATM    1  C7  UNL     1      -0.563  20.314  15.563  1.00  0.00     0.259 C 
HETATM    2  O1  UNL     1      -0.172  19.911  14.403  1.00  0.00    -0.267 OA
HETATM    3  N4  UNL     1       0.419  20.586  16.486  1.00  0.00    -0.348 N 
ATOM      4  H4  UNL     1       0.169  20.907  17.421  1.00  0.00     0.163 HD
ENDROOT
BRANCH   3   5
HETATM    5  C8  UNL     1       1.832  20.414  16.119  1.00  0.00     0.141 C 
HETATM    6  C9  UNL     1       2.637  21.643  16.494  1.00  0.00     0.260 C 
HETATM    7  N5  UNL     1       3.990  21.103  16.569  1.00  0.00    -0.064 N 
HETATM    8  C10 UNL     1       3.835  19.815  17.228  1.00  0.00     0.241 C 
ATOM      9  H52 UNL     1       4.468  21.055  15.670  1.00  0.00     0.277 HD
ATOM     10  H51 UNL     1       4.661  21.723  17.023  1.00  0.00     0.277 HD
HETATM   11  C14 UNL     1       2.456  19.337  16.971  1.00  0.00     0.175 C 
BRANCH   8  12
HETATM   12  C11 UNL     1       4.192  19.966  18.673  1.00  0.00     0.227 C 
BRANCH  12  13
HETATM   13  O2  UNL     1       4.156  18.815  19.416  1.00  0.00    -0.257 OA
BRANCH  13  14
HETATM   14  S1  UNL     1       4.590  19.156  21.018  1.00  0.00     0.364 S 
HETATM   15  O3  UNL     1       4.802  20.623  21.243  1.00  0.00    -0.175 OA
HETATM   16  O4  UNL     1       5.864  18.380  21.329  1.00  0.00    -0.175 OA
BRANCH  14  17
HETATM   17  N6  UNL     1       3.379  18.491  22.042  1.00  0.00    -0.230 N 
HETATM   18  C12 UNL     1       2.042  18.949  21.948  1.00  0.00     0.258 C 
HETATM   19  O5  UNL     1       1.743  19.829  21.126  1.00  0.00    -0.271 OA
ATOM     20  H6  UNL     1       3.623  17.766  22.717  1.00  0.00     0.183 HD
BRANCH  18  21
HETATM   21  C13 UNL     1       1.027  18.356  22.848  1.00  0.00     0.332 C 
BRANCH  21  22
HETATM   22  N7  UNL     1       1.650  17.760  24.011  1.00  0.00    -0.071 N 
ATOM     23  H73 UNL     1       1.368  16.788  24.132  1.00  0.00     0.274 HD
ATOM     24  H72 UNL     1       2.649  17.616  23.870  1.00  0.00     0.274 HD
ATOM     25  H71 UNL     1       1.464  18.313  24.848  1.00  0.00     0.274 HD
ENDBRANCH  21  22
ENDBRANCH  18  21
ENDBRANCH  14  17
ENDBRANCH  13  14
ENDBRANCH  12  13
ENDBRANCH   8  12
BRANCH  11  26
HETATM   26  O6  UNL     1       1.673  19.238  18.119  1.00  0.00    -0.391 OA
ATOM     27  H6  UNL     1       2.037  18.527  18.633  1.00  0.00     0.210 HD
ENDBRANCH  11  26
ENDBRANCH   3   5
BRANCH   1  28
HETATM   28  C6  UNL     1      -1.977  20.422  15.739  1.00  0.00     0.126 C 
HETATM   29  C5  UNL     1      -2.600  19.472  16.543  1.00  0.00     0.068 C 
HETATM   30  C4  UNL     1      -3.853  19.604  17.155  1.00  0.00     0.047 C 
HETATM   31  N3  UNL     1      -1.882  18.275  16.754  1.00  0.00    -0.101 NA
HETATM   32  C3  UNL     1      -4.776  20.619  16.996  1.00  0.00     0.063 C 
HETATM   33  C16 UNL     1      -4.489  21.889  16.540  1.00  0.00     0.281 C 
HETATM   34  N8  UNL     1      -3.655  22.246  15.513  1.00  0.00    -0.189 N 
HETATM   35  O8  UNL     1      -5.031  22.859  17.105  1.00  0.00    -0.265 OA
HETATM   36  C15 UNL     1      -2.636  21.465  15.079  1.00  0.00     0.286 C 
HETATM   37  O7  UNL     1      -2.246  21.732  13.919  1.00  0.00    -0.265 OA
BRANCH  32  38
HETATM   38  C2  UNL     1      -6.186  20.343  17.365  1.00  0.00     0.056 A 
HETATM   39  N2  UNL     1      -7.230  20.709  16.665  1.00  0.00    -0.336 N 
HETATM   40  C1  UNL     1      -8.449  20.431  17.122  1.00  0.00     0.142 A 
ATOM     41  H2  UNL     1      -7.110  21.201  15.780  1.00  0.00     0.168 HD
HETATM   42  S2  UNL     1      -8.146  19.626  18.582  1.00  0.00    -0.064 SA
HETATM   43  C17 UNL     1      -6.440  19.679  18.549  1.00  0.00     0.083 A 
BRANCH  40  44
HETATM   44  N1  UNL     1      -9.598  20.728  16.548  1.00  0.00    -0.380 N 
ATOM     45  H12 UNL     1      -9.798  20.964  15.575  1.00  0.00     0.158 HD
ATOM     46  H11 UNL     1     -10.514  20.773  16.994  1.00  0.00     0.158 HD
ENDBRANCH  40  44
ENDBRANCH  32  38
BRANCH  34  47
HETATM   47  N9  UNL     1      -3.891  23.469  14.903  1.00  0.00    -0.333 N 
ATOM     48  H92 UNL     1      -3.448  24.289  15.318  1.00  0.00     0.177 HD
ATOM     49  H91 UNL     1      -4.488  23.516  14.078  1.00  0.00     0.177 HD
ENDBRANCH  34  47
ENDBRANCH   1  28
TORSDOF 12
ENDMDL
MODEL 5
REMARK VINA RESULT: -7.147516264      3.503      8.862
REMARK  12 active torsions:
REMARK  status: ('A' for Active; 'I' for Inactive)
REMARK    1  A    between atoms: N1_1  and  C1_4 
REMARK    2  A    between atoms: C2_7  and  C3_8 
REMARK    3  A    between atoms: C6_12  and  C7_13 
REMARK       I    between atoms: C7_13  and  N4_15 
REMARK    4  A    between atoms: N4_15  and  C8_17 
REMARK    5  A    between atoms: C10_22  and  C11_23 
REMARK    6  A    between atoms: C11_23  and  O2_24 
REMARK    7  A    between atoms: O2_24  and  S1_25 
REMARK    8  A    between atoms: S1_25  and  N6_28 
REMARK       I    between atoms: N6_28  and  C12_30 
REMARK    9  A    between atoms: C12_30  and  C13_32 
REMARK   10  A    between atoms: C13_32  and  N7_33 
REMARK   11  A    between atoms: C14_37  and  O6_38 
REMARK   12  A    between atoms: N8_42  and  N9_43 
ROOT
HETATM    1  C7  UNL     1      -0.304  19.519  16.197  1.00  0.00     0.259 C 
HETATM    2  O1  UNL     1      -0.015  18.561  15.386  1.00  0.00    -0.267 OA
HETATM    3  N4  UNL     1       0.740  20.060  16.910  1.00  0.00    -0.348 N 
ATOM      4  H4  UNL     1       0.572  20.820  17.569  1.00  0.00     0.163 HD
ENDROOT
BRANCH   3   5
HETATM    5  C8  UNL     1       2.101  19.537  16.720  1.00  0.00     0.141 C 
HETATM    6  C9  UNL     1       3.099  20.673  16.602  1.00  0.00     0.260 C 
HETATM    7  N5  UNL     1       4.348  20.010  16.961  1.00  0.00    -0.064 N 
HETATM    8  C10 UNL     1       3.998  19.148  18.079  1.00  0.00     0.241 C 
ATOM      9  H52 UNL     1       4.798  19.524  16.186  1.00  0.00     0.277 HD
ATOM     10  H51 UNL     1       5.117  20.652  17.156  1.00  0.00     0.277 HD
HETATM   11  C14 UNL     1       2.557  18.824  17.969  1.00  0.00     0.175 C 
BRANCH   8  12
HETATM   12  C11 UNL     1       4.398  19.823  19.353  1.00  0.00     0.227 C 
BRANCH  12  13
HETATM   13  O2  UNL     1       4.503  19.007  20.449  1.00  0.00    -0.257 OA
BRANCH  13  14
HETATM   14  S1  UNL     1       4.392  19.934  21.863  1.00  0.00     0.364 S 
HETATM   15  O3  UNL     1       3.856  21.308  21.594  1.00  0.00    -0.175 OA
HETATM   16  O4  UNL     1       5.785  20.016  22.475  1.00  0.00    -0.175 OA
BRANCH  14  17
HETATM   17  N6  UNL     1       3.440  19.054  22.993  1.00  0.00    -0.230 N 
HETATM   18  C12 UNL     1       2.068  18.818  22.732  1.00  0.00     0.258 C 
HETATM   19  O5  UNL     1       1.553  19.244  21.686  1.00  0.00    -0.271 OA
ATOM     20  H6  UNL     1       3.863  18.701  23.852  1.00  0.00     0.183 HD
BRANCH  18  21
HETATM   21  C13 UNL     1       1.278  18.060  23.729  1.00  0.00     0.332 C 
BRANCH  21  22
HETATM   22  N7  UNL     1       2.096  17.690  24.865  1.00  0.00    -0.071 N 
ATOM     23  H73 UNL     1       1.836  16.775  25.233  1.00  0.00     0.274 HD
ATOM     24  H72 UNL     1       3.054  17.477  24.586  1.00  0.00     0.274 HD
ATOM     25  H71 UNL     1       2.065  18.410  25.586  1.00  0.00     0.274 HD
ENDBRANCH  21  22
ENDBRANCH  18  21
ENDBRANCH  14  17
ENDBRANCH  13  14
ENDBRANCH  12  13
ENDBRANCH   8  12
BRANCH  11  26
HETATM   26  O6  UNL     1       1.786  19.328  19.014  1.00  0.00    -0.391 OA
ATOM     27  H6  UNL     1       1.949  18.767  19.764  1.00  0.00     0.210 HD
ENDBRANCH  11  26
ENDBRANCH   3   5
BRANCH   1  28
HETATM   28  C6  UNL     1      -1.682  19.896  16.251  1.00  0.00     0.126 C 
HETATM   29  C5  UNL     1      -2.461  19.342  17.263  1.00  0.00     0.068 C 
HETATM   30  C4  UNL     1      -3.679  19.847  17.734  1.00  0.00     0.047 C 
HETATM   31  N3  UNL     1      -1.953  18.168  17.860  1.00  0.00    -0.101 NA
HETATM   32  C3  UNL     1      -4.419  20.897  17.228  1.00  0.00     0.063 C 
HETATM   33  C16 UNL     1      -3.921  21.909  16.433  1.00  0.00     0.281 C 
HETATM   34  N8  UNL     1      -3.031  21.804  15.397  1.00  0.00    -0.189 N 
HETATM   35  O8  UNL     1      -4.299  23.077  16.653  1.00  0.00    -0.265 OA
HETATM   36  C15 UNL     1      -2.153  20.779  15.274  1.00  0.00     0.286 C 
HETATM   37  O7  UNL     1      -1.714  20.619  14.112  1.00  0.00    -0.265 OA
BRANCH  32  38
HETATM   38  C2  UNL     1      -5.859  20.969  17.580  1.00  0.00     0.056 A 
HETATM   39  N2  UNL     1      -6.807  21.381  16.777  1.00  0.00    -0.336 N 
HETATM   40  C1  UNL     1      -8.060  21.432  17.224  1.00  0.00     0.142 A 
ATOM     41  H2  UNL     1      -6.589  21.658  15.821  1.00  0.00     0.168 HD
HETATM   42  S2  UNL     1      -7.929  20.886  18.823  1.00  0.00    -0.064 SA
HETATM   43  C17 UNL     1      -6.244  20.610  18.856  1.00  0.00     0.083 A 
BRANCH  40  44
HETATM   44  N1  UNL     1      -9.126  21.822  16.553  1.00  0.00    -0.380 N 
ATOM     45  H12 UNL     1      -9.984  22.260  16.891  1.00  0.00     0.158 HD
ATOM     46  H11 UNL     1      -9.279  21.749  15.547  1.00  0.00     0.158 HD
ENDBRANCH  40  44
ENDBRANCH  32  38
BRANCH  34  47
HETATM   47  N9  UNL     1      -3.055  22.807  14.439  1.00  0.00    -0.333 N 
ATOM     48  H92 UNL     1      -3.715  22.700  13.669  1.00  0.00     0.177 HD
ATOM     49  H91 UNL     1      -2.424  23.604  14.526  1.00  0.00     0.177 HD
ENDBRANCH  34  47
ENDBRANCH   1  28
TORSDOF 12
ENDMDL
