MODEL 1
REMARK VINA RESULT: -7.464930421      0.000      0.000
REMARK  15 active torsions:
REMARK  status: ('A' for Active; 'I' for Inactive)
REMARK    1  A    between atoms: N2_7  and  C4_8 
REMARK    2  A    between atoms: C6_10  and  N3_11 
REMARK    3  A    between atoms: N3_11  and  C7_13 
REMARK    4  A    between atoms: C7_13  and  C8_14 
REMARK       I    between atoms: N4_17  and  C10_18 
REMARK    5  A    between atoms: C10_18  and  C11_20 
REMARK    6  A    between atoms: C11_20  and  N5_21 
REMARK    7  A    between atoms: N6_25  and  C12_26 
REMARK    8  A    between atoms: C12_26  and  O3_27 
REMARK    9  A    between atoms: C12_26  and  C13_29 
REMARK   10  A    between atoms: C13_29  and  O4_30 
REMARK   11  A    between atoms: C13_29  and  N7_32 
REMARK   12  A    between atoms: C15_34  and  C16_35 
REMARK   13  A    between atoms: C16_35  and  O5_36 
REMARK   14  A    between atoms: C16_35  and  C17_38 
REMARK   15  A    between atoms: C17_38  and  O6_39 
ROOT
HETATM    1  C8  UNL     1      -3.896  21.869  15.827  1.00  0.00     0.261 C 
HETATM    2  O1  UNL     1      -5.067  22.714  16.057  1.00  0.00    -0.343 OA
HETATM    3  C9  UNL     1      -5.357  22.481  17.443  1.00  0.00     0.322 C 
HETATM    4  N4  UNL     1      -5.093  21.065  17.449  1.00  0.00    -0.233 N 
HETATM    5  C10 UNL     1      -5.861  19.987  17.845  1.00  0.00     0.265 C 
HETATM    6  O2  UNL     1      -5.373  18.802  17.669  1.00  0.00    -0.270 OA
HETATM    7  N6  UNL     1      -3.770  21.072  16.910  1.00  0.00    -0.257 N 
ENDROOT
BRANCH   1   8
HETATM    8  C7  UNL     1      -2.902  22.801  15.281  1.00  0.00     0.176 C 
BRANCH   8   9
HETATM    9  N3  UNL     1      -2.301  22.343  14.045  1.00  0.00    -0.372 N 
ATOM     10  H3  UNL     1      -2.806  22.538  13.180  1.00  0.00     0.161 HD
BRANCH   9  11
HETATM   11  C6  UNL     1      -1.200  21.721  13.947  1.00  0.00     0.107 A 
HETATM   12  C5  UNL     1      -0.161  21.867  14.837  1.00  0.00     0.098 A 
HETATM   13  C4  UNL     1       1.033  21.166  14.690  1.00  0.00     0.132 A 
HETATM   14  N10 UNL     1       1.108  20.344  13.635  1.00  0.00    -0.315 N 
HETATM   15  C19 UNL     1       0.114  20.174  12.743  1.00  0.00     0.195 A 
ATOM     16  H10 UNL     1       1.969  19.815  13.499  1.00  0.00     0.170 HD
HETATM   17  N8  UNL     1      -1.017  20.869  12.923  1.00  0.00    -0.317 N 
HETATM   18  N9  UNL     1       0.282  19.270  11.637  1.00  0.00    -0.063 NA
ATOM     19  H8  UNL     1      -1.774  20.746  12.252  1.00  0.00     0.170 HD
BRANCH  13  20
HETATM   20  N2  UNL     1       2.068  21.359  15.643  1.00  0.00    -0.249 N 
HETATM   21  C3  UNL     1       2.211  22.479  16.402  1.00  0.00     0.122 A 
HETATM   22  C2  UNL     1       3.320  22.321  17.216  1.00  0.00     0.068 A 
HETATM   23  C1  UNL     1       3.827  21.075  16.913  1.00  0.00     0.115 A 
HETATM   24  N1  UNL     1       4.876  20.591  17.490  1.00  0.00    -0.384 N 
HETATM   25  N11 UNL     1       3.038  20.544  15.965  1.00  0.00    -0.278 N 
ATOM     26  H12 UNL     1       5.476  20.995  18.210  1.00  0.00     0.157 HD
ATOM     27  H11 UNL     1       5.251  19.669  17.266  1.00  0.00     0.157 HD
ATOM     28  H11 UNL     1       3.177  19.622  15.550  1.00  0.00     0.189 HD
ENDBRANCH  13  20
ENDBRANCH   9  11
ENDBRANCH   8   9
ENDBRANCH   1   8
BRANCH   7  29
HETATM   29  C12 UNL     1      -2.822  20.906  17.873  1.00  0.00     0.287 C 
BRANCH  29  30
HETATM   30  O3  UNL     1      -3.296  20.085  18.946  1.00  0.00    -0.371 OA
ATOM     31  H3  UNL     1      -2.611  19.521  19.286  1.00  0.00     0.212 HD
ENDBRANCH  29  30
BRANCH  29  32
HETATM   32  C13 UNL     1      -1.482  20.308  17.543  1.00  0.00     0.275 C 
BRANCH  32  33
HETATM   33  O4  UNL     1      -1.443  18.960  17.289  1.00  0.00    -0.372 OA
ATOM     34  H4  UNL     1      -1.069  18.403  17.962  1.00  0.00     0.212 HD
ENDBRANCH  32  33
BRANCH  32  35
HETATM   35  N7  UNL     1      -0.439  20.635  18.500  1.00  0.00    -0.295 N 
HETATM   36  C14 UNL     1      -0.405  21.711  19.471  1.00  0.00     0.166 C 
HETATM   37  C15 UNL     1       0.452  21.083  20.584  1.00  0.00     0.182 C 
HETATM   38  O7  UNL     1       1.488  20.528  19.760  1.00  0.00    -0.294 OA
HETATM   39  C18 UNL     1       0.787  19.941  18.685  1.00  0.00     0.365 C 
HETATM   40  O8  UNL     1       1.257  18.950  18.042  1.00  0.00    -0.238 OA
BRANCH  37  41
HETATM   41  C16 UNL     1      -0.296  19.941  21.231  1.00  0.00     0.172 C 
BRANCH  41  42
HETATM   42  O5  UNL     1      -1.519  20.355  21.744  1.00  0.00    -0.391 OA
ATOM     43  H5  UNL     1      -1.593  20.162  22.671  1.00  0.00     0.210 HD
ENDBRANCH  41  42
BRANCH  41  44
HETATM   44  C17 UNL     1       0.522  19.315  22.321  1.00  0.00     0.198 C 
BRANCH  44  45
HETATM   45  O6  UNL     1       1.164  18.199  21.803  1.00  0.00    -0.398 OA
ATOM     46  H6  UNL     1       0.512  17.534  21.619  1.00  0.00     0.209 HD
ENDBRANCH  44  45
ENDBRANCH  41  44
ENDBRANCH  37  41
ENDBRANCH  32  35
ENDBRANCH  29  32
ENDBRANCH   7  29
BRANCH   5  47
HETATM   47  C11 UNL     1      -7.201  19.953  18.466  1.00  0.00     0.334 C 
BRANCH  47  48
HETATM   48  N5  UNL     1      -7.715  18.672  18.788  1.00  0.00    -0.071 N 
ATOM     49  H53 UNL     1      -7.880  18.611  19.793  1.00  0.00     0.274 HD
ATOM     50  H52 UNL     1      -8.668  18.585  18.438  1.00  0.00     0.274 HD
ATOM     51  H51 UNL     1      -7.162  17.871  18.481  1.00  0.00     0.274 HD
ENDBRANCH  47  48
ENDBRANCH   5  47
TORSDOF 15
ENDMDL
MODEL 2
REMARK VINA RESULT: -7.428523985      2.140      6.416
REMARK  15 active torsions:
REMARK  status: ('A' for Active; 'I' for Inactive)
REMARK    1  A    between atoms: N2_7  and  C4_8 
REMARK    2  A    between atoms: C6_10  and  N3_11 
REMARK    3  A    between atoms: N3_11  and  C7_13 
REMARK    4  A    between atoms: C7_13  and  C8_14 
REMARK       I    between atoms: N4_17  and  C10_18 
REMARK    5  A    between atoms: C10_18  and  C11_20 
REMARK    6  A    between atoms: C11_20  and  N5_21 
REMARK    7  A    between atoms: N6_25  and  C12_26 
REMARK    8  A    between atoms: C12_26  and  O3_27 
REMARK    9  A    between atoms: C12_26  and  C13_29 
REMARK   10  A    between atoms: C13_29  and  O4_30 
REMARK   11  A    between atoms: C13_29  and  N7_32 
REMARK   12  A    between atoms: C15_34  and  C16_35 
REMARK   13  A    between atoms: C16_35  and  O5_36 
REMARK   14  A    between atoms: C16_35  and  C17_38 
REMARK   15  A    between atoms: C17_38  and  O6_39 
ROOT
HETATM    1  C8  UNL     1       3.277  21.471  17.760  1.00  0.00     0.261 C 
HETATM    2  O1  UNL     1       4.451  20.761  17.254  1.00  0.00    -0.343 OA
HETATM    3  C9  UNL     1       4.191  19.404  17.644  1.00  0.00     0.322 C 
HETATM    4  N4  UNL     1       3.643  19.691  18.945  1.00  0.00    -0.233 N 
HETATM    5  C10 UNL     1       3.976  19.235  20.205  1.00  0.00     0.265 C 
HETATM    6  O2  UNL     1       3.335  19.729  21.215  1.00  0.00    -0.270 OA
HETATM    7  N6  UNL     1       2.618  20.614  18.569  1.00  0.00    -0.257 N 
ENDROOT
BRANCH   1   8
HETATM    8  C7  UNL     1       2.756  22.160  16.573  1.00  0.00     0.176 C 
BRANCH   8   9
HETATM    9  N3  UNL     1       2.490  21.271  15.460  1.00  0.00    -0.372 N 
ATOM     10  H3  UNL     1       3.231  20.622  15.194  1.00  0.00     0.161 HD
BRANCH   9  11
HETATM   11  C6  UNL     1       1.415  21.231  14.788  1.00  0.00     0.107 A 
HETATM   12  C5  UNL     1       0.314  22.009  15.067  1.00  0.00     0.098 A 
HETATM   13  C4  UNL     1      -0.848  21.931  14.304  1.00  0.00     0.132 A 
HETATM   14  N10 UNL     1      -0.829  21.059  13.287  1.00  0.00    -0.315 N 
HETATM   15  C19 UNL     1       0.227  20.282  12.984  1.00  0.00     0.195 A 
ATOM     16  H10 UNL     1      -1.665  20.979  12.709  1.00  0.00     0.170 HD
HETATM   17  N8  UNL     1       1.324  20.389  13.744  1.00  0.00    -0.317 N 
HETATM   18  N9  UNL     1       0.158  19.370  11.873  1.00  0.00    -0.063 NA
ATOM     19  H8  UNL     1       2.129  19.804  13.521  1.00  0.00     0.170 HD
BRANCH  13  20
HETATM   20  N2  UNL     1      -1.950  22.762  14.641  1.00  0.00    -0.249 N 
HETATM   21  C3  UNL     1      -1.840  23.963  15.269  1.00  0.00     0.122 A 
HETATM   22  C2  UNL     1      -3.109  24.491  15.436  1.00  0.00     0.068 A 
HETATM   23  C1  UNL     1      -3.970  23.564  14.888  1.00  0.00     0.115 A 
HETATM   24  N1  UNL     1      -5.251  23.730  14.868  1.00  0.00    -0.384 N 
HETATM   25  N11 UNL     1      -3.222  22.549  14.427  1.00  0.00    -0.278 N 
ATOM     26  H12 UNL     1      -5.819  24.501  15.218  1.00  0.00     0.157 HD
ATOM     27  H11 UNL     1      -5.888  23.044  14.462  1.00  0.00     0.157 HD
ATOM     28  H11 UNL     1      -3.598  21.719  13.968  1.00  0.00     0.189 HD
ENDBRANCH  13  20
ENDBRANCH   9  11
ENDBRANCH   8   9
ENDBRANCH   1   8
BRANCH   7  29
HETATM   29  C12 UNL     1       1.386  20.035  18.553  1.00  0.00     0.287 C 
BRANCH  29  30
HETATM   30  O3  UNL     1       1.304  18.991  17.577  1.00  0.00    -0.371 OA
ATOM     31  H3  UNL     1       0.588  18.394  17.761  1.00  0.00     0.212 HD
ENDBRANCH  29  30
BRANCH  29  32
HETATM   32  C13 UNL     1       0.816  19.399  19.792  1.00  0.00     0.275 C 
BRANCH  32  33
HETATM   33  O4  UNL     1       0.979  18.044  19.931  1.00  0.00    -0.372 OA
ATOM     34  H4  UNL     1       1.626  17.747  20.560  1.00  0.00     0.212 HD
ENDBRANCH  32  33
BRANCH  32  35
HETATM   35  N7  UNL     1      -0.576  19.732  20.037  1.00  0.00    -0.295 N 
HETATM   36  C14 UNL     1      -1.123  20.813  20.831  1.00  0.00     0.166 C 
HETATM   37  C15 UNL     1      -2.447  21.086  20.095  1.00  0.00     0.182 C 
HETATM   38  O7  UNL     1      -2.879  19.726  19.935  1.00  0.00    -0.294 OA
HETATM   39  C18 UNL     1      -1.712  19.047  19.526  1.00  0.00     0.365 C 
HETATM   40  O8  UNL     1      -1.765  17.995  18.814  1.00  0.00    -0.238 OA
BRANCH  37  41
HETATM   41  C16 UNL     1      -2.169  21.655  18.724  1.00  0.00     0.172 C 
BRANCH  41  42
HETATM   42  O5  UNL     1      -1.546  22.895  18.800  1.00  0.00    -0.391 OA
ATOM     43  H5  UNL     1      -1.555  23.343  17.963  1.00  0.00     0.210 HD
ENDBRANCH  41  42
BRANCH  41  44
HETATM   44  C17 UNL     1      -3.434  21.775  17.928  1.00  0.00     0.198 C 
BRANCH  44  45
HETATM   45  O6  UNL     1      -3.467  20.746  16.996  1.00  0.00    -0.398 OA
ATOM     46  H6  UNL     1      -4.201  20.892  16.413  1.00  0.00     0.209 HD
ENDBRANCH  44  45
ENDBRANCH  41  44
ENDBRANCH  37  41
ENDBRANCH  32  35
ENDBRANCH  29  32
ENDBRANCH   7  29
BRANCH   5  47
HETATM   47  C11 UNL     1       4.983  18.234  20.617  1.00  0.00     0.334 C 
BRANCH  47  48
HETATM   48  N5  UNL     1       5.806  18.584  21.718  1.00  0.00    -0.071 N 
ATOM     49  H53 UNL     1       5.574  19.525  22.035  1.00  0.00     0.274 HD
ATOM     50  H52 UNL     1       5.535  18.040  22.536  1.00  0.00     0.274 HD
ATOM     51  H51 UNL     1       6.813  18.507  21.573  1.00  0.00     0.274 HD
ENDBRANCH  47  48
ENDBRANCH   5  47
TORSDOF 15
ENDMDL
MODEL 3
REMARK VINA RESULT: -7.332231440      2.516      6.292
REMARK  15 active torsions:
REMARK  status: ('A' for Active; 'I' for Inactive)
REMARK    1  A    between atoms: N2_7  and  C4_8 
REMARK    2  A    between atoms: C6_10  and  N3_11 
REMARK    3  A    between atoms: N3_11  and  C7_13 
REMARK    4  A    between atoms: C7_13  and  C8_14 
REMARK       I    between atoms: N4_17  and  C10_18 
REMARK    5  A    between atoms: C10_18  and  C11_20 
REMARK    6  A    between atoms: C11_20  and  N5_21 
REMARK    7  A    between atoms: N6_25  and  C12_26 
REMARK    8  A    between atoms: C12_26  and  O3_27 
REMARK    9  A    between atoms: C12_26  and  C13_29 
REMARK   10  A    between atoms: C13_29  and  O4_30 
REMARK   11  A    between atoms: C13_29  and  N7_32 
REMARK   12  A    between atoms: C15_34  and  C16_35 
REMARK   13  A    between atoms: C16_35  and  O5_36 
REMARK   14  A    between atoms: C16_35  and  C17_38 
REMARK   15  A    between atoms: C17_38  and  O6_39 
ROOT
HETATM    1  C8  UNL     1       0.193  21.391  15.995  1.00  0.00     0.261 C 
HETATM    2  O1  UNL     1       0.008  22.342  14.900  1.00  0.00    -0.343 OA
HETATM    3  C9  UNL     1      -0.855  21.628  14.003  1.00  0.00     0.322 C 
HETATM    4  N4  UNL     1      -0.239  20.334  14.149  1.00  0.00    -0.233 N 
HETATM    5  C10 UNL     1       0.272  19.448  13.221  1.00  0.00     0.265 C 
HETATM    6  O2  UNL     1       0.833  18.369  13.663  1.00  0.00    -0.270 OA
HETATM    7  N6  UNL     1      -0.298  20.206  15.571  1.00  0.00    -0.257 N 
ENDROOT
BRANCH   1   8
HETATM    8  C7  UNL     1      -0.209  22.153  17.183  1.00  0.00     0.176 C 
BRANCH   8   9
HETATM    9  N3  UNL     1       0.734  22.051  18.279  1.00  0.00    -0.372 N 
ATOM     10  H3  UNL     1       1.055  22.923  18.701  1.00  0.00     0.161 HD
BRANCH   9  11
HETATM   11  C6  UNL     1       1.192  20.971  18.759  1.00  0.00     0.107 A 
HETATM   12  C5  UNL     1       1.055  20.605  20.079  1.00  0.00     0.098 A 
HETATM   13  C4  UNL     1       1.577  19.409  20.565  1.00  0.00     0.132 A 
HETATM   14  N10 UNL     1       2.216  18.639  19.674  1.00  0.00    -0.315 N 
HETATM   15  C19 UNL     1       2.370  18.962  18.377  1.00  0.00     0.195 A 
ATOM     16  H10 UNL     1       2.609  17.756  19.998  1.00  0.00     0.170 HD
HETATM   17  N8  UNL     1       1.852  20.122  17.952  1.00  0.00    -0.317 N 
HETATM   18  N9  UNL     1       3.074  18.074  17.490  1.00  0.00    -0.063 NA
ATOM     19  H8  UNL     1       1.965  20.374  16.971  1.00  0.00     0.170 HD
BRANCH  13  20
HETATM   20  N2  UNL     1       1.401  19.088  21.937  1.00  0.00    -0.249 N 
HETATM   21  C3  UNL     1       0.618  19.795  22.796  1.00  0.00     0.122 A 
HETATM   22  C2  UNL     1       0.682  19.200  24.044  1.00  0.00     0.068 A 
HETATM   23  C1  UNL     1       1.529  18.121  23.895  1.00  0.00     0.115 A 
HETATM   24  N1  UNL     1       1.823  17.328  24.872  1.00  0.00    -0.384 N 
HETATM   25  N11 UNL     1       1.929  18.102  22.615  1.00  0.00    -0.278 N 
ATOM     26  H12 UNL     1       1.518  17.342  25.845  1.00  0.00     0.157 HD
ATOM     27  H11 UNL     1       2.448  16.529  24.762  1.00  0.00     0.157 HD
ATOM     28  H11 UNL     1       2.564  17.407  22.220  1.00  0.00     0.189 HD
ENDBRANCH  13  20
ENDBRANCH   9  11
ENDBRANCH   8   9
ENDBRANCH   1   8
BRANCH   7  29
HETATM   29  C12 UNL     1      -1.311  19.390  15.972  1.00  0.00     0.287 C 
BRANCH  29  30
HETATM   30  O3  UNL     1      -1.048  18.021  15.646  1.00  0.00    -0.371 OA
ATOM     31  H3  UNL     1      -1.312  17.814  14.758  1.00  0.00     0.212 HD
ENDBRANCH  29  30
BRANCH  29  32
HETATM   32  C13 UNL     1      -1.729  19.330  17.416  1.00  0.00     0.275 C 
BRANCH  32  33
HETATM   33  O4  UNL     1      -2.037  18.095  17.928  1.00  0.00    -0.372 OA
ATOM     34  H4  UNL     1      -2.767  17.632  17.533  1.00  0.00     0.212 HD
ENDBRANCH  32  33
BRANCH  32  35
HETATM   35  N7  UNL     1      -2.792  20.258  17.760  1.00  0.00    -0.295 N 
HETATM   36  C14 UNL     1      -3.710  20.952  16.879  1.00  0.00     0.166 C 
HETATM   37  C15 UNL     1      -4.948  21.089  17.783  1.00  0.00     0.182 C 
HETATM   38  O7  UNL     1      -4.284  21.524  18.979  1.00  0.00    -0.294 OA
HETATM   39  C18 UNL     1      -3.158  20.678  19.068  1.00  0.00     0.365 C 
HETATM   40  O8  UNL     1      -2.623  20.393  20.185  1.00  0.00    -0.238 OA
BRANCH  37  41
HETATM   41  C16 UNL     1      -5.548  19.728  18.048  1.00  0.00     0.172 C 
BRANCH  41  42
HETATM   42  O5  UNL     1      -5.791  19.037  16.867  1.00  0.00    -0.391 OA
ATOM     43  H5  UNL     1      -5.674  18.101  16.979  1.00  0.00     0.210 HD
ENDBRANCH  41  42
BRANCH  41  44
HETATM   44  C17 UNL     1      -6.821  19.849  18.832  1.00  0.00     0.198 C 
BRANCH  44  45
HETATM   45  O6  UNL     1      -6.499  19.978  20.175  1.00  0.00    -0.398 OA
ATOM     46  H6  UNL     1      -7.299  19.922  20.684  1.00  0.00     0.209 HD
ENDBRANCH  44  45
ENDBRANCH  41  44
ENDBRANCH  37  41
ENDBRANCH  32  35
ENDBRANCH  29  32
ENDBRANCH   7  29
BRANCH   5  47
HETATM   47  C11 UNL     1       0.287  19.523  11.746  1.00  0.00     0.334 C 
BRANCH  47  48
HETATM   48  N5  UNL     1       1.478  19.097  11.104  1.00  0.00    -0.071 N 
ATOM     49  H53 UNL     1       1.690  19.718  10.324  1.00  0.00     0.274 HD
ATOM     50  H52 UNL     1       2.278  19.279  11.709  1.00  0.00     0.274 HD
ATOM     51  H51 UNL     1       1.500  18.127  10.788  1.00  0.00     0.274 HD
ENDBRANCH  47  48
ENDBRANCH   5  47
TORSDOF 15
ENDMDL
MODEL 4
REMARK VINA RESULT: -7.304189263      2.480      5.641
REMARK  15 active torsions:
REMARK  status: ('A' for Active; 'I' for Inactive)
REMARK    1  A    between atoms: N2_7  and  C4_8 
REMARK    2  A    between atoms: C6_10  and  N3_11 
REMARK    3  A    between atoms: N3_11  and  C7_13 
REMARK    4  A    between atoms: C7_13  and  C8_14 
REMARK       I    between atoms: N4_17  and  C10_18 
REMARK    5  A    between atoms: C10_18  and  C11_20 
REMARK    6  A    between atoms: C11_20  and  N5_21 
REMARK    7  A    between atoms: N6_25  and  C12_26 
REMARK    8  A    between atoms: C12_26  and  O3_27 
REMARK    9  A    between atoms: C12_26  and  C13_29 
REMARK   10  A    between atoms: C13_29  and  O4_30 
REMARK   11  A    between atoms: C13_29  and  N7_32 
REMARK   12  A    between atoms: C15_34  and  C16_35 
REMARK   13  A    between atoms: C16_35  and  O5_36 
REMARK   14  A    between atoms: C16_35  and  C17_38 
REMARK   15  A    between atoms: C17_38  and  O6_39 
ROOT
HETATM    1  C8  UNL     1       0.741  21.603  14.699  1.00  0.00     0.261 C 
HETATM    2  O1  UNL     1       1.402  22.477  15.667  1.00  0.00    -0.343 OA
HETATM    3  C9  UNL     1       0.338  22.812  16.568  1.00  0.00     0.322 C 
HETATM    4  N4  UNL     1      -0.697  22.968  15.579  1.00  0.00    -0.233 N 
HETATM    5  C10 UNL     1      -1.561  24.012  15.307  1.00  0.00     0.265 C 
HETATM    6  O2  UNL     1      -2.356  23.888  14.293  1.00  0.00    -0.270 OA
HETATM    7  N6  UNL     1      -0.587  21.704  14.923  1.00  0.00    -0.257 N 
ENDROOT
BRANCH   1   8
HETATM    8  C7  UNL     1       1.562  20.386  14.720  1.00  0.00     0.176 C 
BRANCH   8   9
HETATM    9  N3  UNL     1       2.656  20.445  15.669  1.00  0.00    -0.372 N 
ATOM     10  H3  UNL     1       3.345  21.186  15.541  1.00  0.00     0.161 HD
BRANCH   9  11
HETATM   11  C6  UNL     1       2.829  19.653  16.644  1.00  0.00     0.107 A 
HETATM   12  C5  UNL     1       2.188  19.784  17.855  1.00  0.00     0.098 A 
HETATM   13  C4  UNL     1       2.410  18.892  18.900  1.00  0.00     0.132 A 
HETATM   14  N10 UNL     1       3.280  17.903  18.657  1.00  0.00    -0.315 N 
HETATM   15  C19 UNL     1       3.926  17.742  17.488  1.00  0.00     0.195 A 
ATOM     16  H10 UNL     1       3.464  17.232  19.403  1.00  0.00     0.170 HD
HETATM   17  N8  UNL     1       3.683  18.623  16.509  1.00  0.00    -0.317 N 
HETATM   18  N9  UNL     1       4.846  16.649  17.315  1.00  0.00    -0.063 NA
ATOM     19  H8  UNL     1       4.168  18.507  15.620  1.00  0.00     0.170 HD
BRANCH  13  20
HETATM   20  N2  UNL     1       1.717  19.080  20.125  1.00  0.00    -0.249 N 
HETATM   21  C3  UNL     1       0.704  19.970  20.303  1.00  0.00     0.122 A 
HETATM   22  C2  UNL     1       0.266  19.884  21.614  1.00  0.00     0.068 A 
HETATM   23  C1  UNL     1       1.052  18.917  22.203  1.00  0.00     0.115 A 
HETATM   24  N1  UNL     1       0.919  18.570  23.441  1.00  0.00    -0.384 N 
HETATM   25  N11 UNL     1       1.903  18.470  21.266  1.00  0.00    -0.278 N 
ATOM     26  H12 UNL     1       0.273  18.910  24.153  1.00  0.00     0.157 HD
ATOM     27  H11 UNL     1       1.501  17.854  23.877  1.00  0.00     0.157 HD
ATOM     28  H11 UNL     1       2.605  17.746  21.424  1.00  0.00     0.189 HD
ENDBRANCH  13  20
ENDBRANCH   9  11
ENDBRANCH   8   9
ENDBRANCH   1   8
BRANCH   7  29
HETATM   29  C12 UNL     1      -1.562  20.837  15.311  1.00  0.00     0.287 C 
BRANCH  29  30
HETATM   30  O3  UNL     1      -2.039  20.051  14.213  1.00  0.00    -0.371 OA
ATOM     31  H3  UNL     1      -1.964  20.518  13.388  1.00  0.00     0.212 HD
ENDBRANCH  29  30
BRANCH  29  32
HETATM   32  C13 UNL     1      -1.305  19.814  16.384  1.00  0.00     0.275 C 
BRANCH  32  33
HETATM   33  O4  UNL     1      -1.494  18.497  16.051  1.00  0.00    -0.372 OA
ATOM     34  H4  UNL     1      -1.871  17.932  16.716  1.00  0.00     0.212 HD
ENDBRANCH  32  33
BRANCH  32  35
HETATM   35  N7  UNL     1      -1.994  20.086  17.633  1.00  0.00    -0.295 N 
HETATM   36  C14 UNL     1      -2.545  21.339  18.111  1.00  0.00     0.166 C 
HETATM   37  C15 UNL     1      -3.715  20.842  18.977  1.00  0.00     0.182 C 
HETATM   38  O7  UNL     1      -3.027  19.792  19.673  1.00  0.00    -0.294 OA
HETATM   39  C18 UNL     1      -2.280  19.149  18.663  1.00  0.00     0.365 C 
HETATM   40  O8  UNL     1      -1.960  17.922  18.746  1.00  0.00    -0.238 OA
BRANCH  37  41
HETATM   41  C16 UNL     1      -4.773  20.210  18.103  1.00  0.00     0.172 C 
BRANCH  41  42
HETATM   42  O5  UNL     1      -5.012  20.964  16.960  1.00  0.00    -0.391 OA
ATOM     43  H5  UNL     1      -5.937  20.999  16.751  1.00  0.00     0.210 HD
ENDBRANCH  41  42
BRANCH  41  44
HETATM   44  C17 UNL     1      -6.054  20.026  18.861  1.00  0.00     0.198 C 
BRANCH  44  45
HETATM   45  O6  UNL     1      -5.751  19.893  20.209  1.00  0.00    -0.398 OA
ATOM     46  H6  UNL     1      -6.277  20.514  20.699  1.00  0.00     0.209 HD
ENDBRANCH  44  45
ENDBRANCH  41  44
ENDBRANCH  37  41
ENDBRANCH  32  35
ENDBRANCH  29  32
ENDBRANCH   7  29
BRANCH   5  47
HETATM   47  C11 UNL     1      -1.743  25.300  16.007  1.00  0.00     0.334 C 
BRANCH  47  48
HETATM   48  N5  UNL     1      -0.690  26.241  15.880  1.00  0.00    -0.071 N 
ATOM     49  H53 UNL     1       0.139  25.897  16.365  1.00  0.00     0.274 HD
ATOM     50  H52 UNL     1      -0.351  26.250  14.918  1.00  0.00     0.274 HD
ATOM     51  H51 UNL     1      -0.894  27.194  16.180  1.00  0.00     0.274 HD
ENDBRANCH  47  48
ENDBRANCH   5  47
TORSDOF 15
ENDMDL
MODEL 5
REMARK VINA RESULT: -7.303824225      2.307      5.941
REMARK  15 active torsions:
REMARK  status: ('A' for Active; 'I' for Inactive)
REMARK    1  A    between atoms: N2_7  and  C4_8 
REMARK    2  A    between atoms: C6_10  and  N3_11 
REMARK    3  A    between atoms: N3_11  and  C7_13 
REMARK    4  A    between atoms: C7_13  and  C8_14 
REMARK       I    between atoms: N4_17  and  C10_18 
REMARK    5  A    between atoms: C10_18  and  C11_20 
REMARK    6  A    between atoms: C11_20  and  N5_21 
REMARK    7  A    between atoms: N6_25  and  C12_26 
REMARK    8  A    between atoms: C12_26  and  O3_27 
REMARK    9  A    between atoms: C12_26  and  C13_29 
REMARK   10  A    between atoms: C13_29  and  O4_30 
REMARK   11  A    between atoms: C13_29  and  N7_32 
REMARK   12  A    between atoms: C15_34  and  C16_35 
REMARK   13  A    between atoms: C16_35  and  O5_36 
REMARK   14  A    between atoms: C16_35  and  C17_38 
REMARK   15  A    between atoms: C17_38  and  O6_39 
ROOT
HETATM    1  C8  UNL     1      -0.158  21.609  16.104  1.00  0.00     0.261 C 
HETATM    2  O1  UNL     1      -0.360  22.537  14.992  1.00  0.00    -0.343 OA
HETATM    3  C9  UNL     1      -1.117  21.752  14.059  1.00  0.00     0.322 C 
HETATM    4  N4  UNL     1      -0.410  20.512  14.249  1.00  0.00    -0.233 N 
HETATM    5  C10 UNL     1       0.216  19.663  13.357  1.00  0.00     0.265 C 
HETATM    6  O2  UNL     1       0.836  18.633  13.838  1.00  0.00    -0.270 OA
HETATM    7  N6  UNL     1      -0.533  20.388  15.667  1.00  0.00    -0.257 N 
ENDROOT
BRANCH   1   8
HETATM    8  C7  UNL     1      -0.680  22.345  17.262  1.00  0.00     0.176 C 
BRANCH   8   9
HETATM    9  N3  UNL     1       0.183  22.278  18.424  1.00  0.00    -0.372 N 
ATOM     10  H3  UNL     1       0.418  23.158  18.883  1.00  0.00     0.161 HD
BRANCH   9  11
HETATM   11  C6  UNL     1       0.671  21.218  18.920  1.00  0.00     0.107 A 
HETATM   12  C5  UNL     1       1.600  20.433  18.275  1.00  0.00     0.098 A 
HETATM   13  C4  UNL     1       2.108  19.274  18.856  1.00  0.00     0.132 A 
HETATM   14  N10 UNL     1       1.642  18.971  20.075  1.00  0.00    -0.315 N 
HETATM   15  C19 UNL     1       0.735  19.713  20.736  1.00  0.00     0.195 A 
ATOM     16  H10 UNL     1       1.995  18.129  20.528  1.00  0.00     0.170 HD
HETATM   17  N8  UNL     1       0.273  20.820  20.141  1.00  0.00    -0.317 N 
HETATM   18  N9  UNL     1       0.288  19.311  22.044  1.00  0.00    -0.063 NA
ATOM     19  H8  UNL     1      -0.415  21.387  20.636  1.00  0.00     0.170 HD
BRANCH  13  20
HETATM   20  N2  UNL     1       3.065  18.507  18.139  1.00  0.00    -0.249 N 
HETATM   21  C3  UNL     1       3.545  18.835  16.910  1.00  0.00     0.122 A 
HETATM   22  C2  UNL     1       4.456  17.868  16.519  1.00  0.00     0.068 A 
HETATM   23  C1  UNL     1       4.498  16.960  17.556  1.00  0.00     0.115 A 
HETATM   24  N1  UNL     1       5.253  15.912  17.533  1.00  0.00    -0.384 N 
HETATM   25  N11 UNL     1       3.646  17.392  18.499  1.00  0.00    -0.278 N 
ATOM     26  H12 UNL     1       5.900  15.584  16.816  1.00  0.00     0.157 HD
ATOM     27  H11 UNL     1       5.285  15.240  18.300  1.00  0.00     0.157 HD
ATOM     28  H11 UNL     1       3.474  16.912  19.383  1.00  0.00     0.189 HD
ENDBRANCH  13  20
ENDBRANCH   9  11
ENDBRANCH   8   9
ENDBRANCH   1   8
BRANCH   7  29
HETATM   29  C12 UNL     1      -1.499  19.497  16.023  1.00  0.00     0.287 C 
BRANCH  29  30
HETATM   30  O3  UNL     1      -1.142  18.158  15.665  1.00  0.00    -0.371 OA
ATOM     31  H3  UNL     1      -1.403  17.534  16.332  1.00  0.00     0.212 HD
ENDBRANCH  29  30
BRANCH  29  32
HETATM   32  C13 UNL     1      -1.940  19.368  17.456  1.00  0.00     0.275 C 
BRANCH  32  33
HETATM   33  O4  UNL     1      -2.229  18.106  17.911  1.00  0.00    -0.372 OA
ATOM     34  H4  UNL     1      -2.651  18.037  18.760  1.00  0.00     0.212 HD
ENDBRANCH  32  33
BRANCH  32  35
HETATM   35  N7  UNL     1      -3.029  20.258  17.819  1.00  0.00    -0.295 N 
HETATM   36  C14 UNL     1      -3.971  20.939  16.952  1.00  0.00     0.166 C 
HETATM   37  C15 UNL     1      -5.209  21.023  17.862  1.00  0.00     0.182 C 
HETATM   38  O7  UNL     1      -4.554  21.458  19.064  1.00  0.00    -0.294 OA
HETATM   39  C18 UNL     1      -3.403  20.645  19.135  1.00  0.00     0.365 C 
HETATM   40  O8  UNL     1      -2.856  20.356  20.245  1.00  0.00    -0.238 OA
BRANCH  37  41
HETATM   41  C16 UNL     1      -5.767  19.641  18.106  1.00  0.00     0.172 C 
BRANCH  41  42
HETATM   42  O5  UNL     1      -5.959  18.949  16.916  1.00  0.00    -0.391 OA
ATOM     43  H5  UNL     1      -5.205  18.415  16.695  1.00  0.00     0.210 HD
ENDBRANCH  41  42
BRANCH  41  44
HETATM   44  C17 UNL     1      -7.061  19.712  18.861  1.00  0.00     0.198 C 
BRANCH  44  45
HETATM   45  O6  UNL     1      -6.776  19.963  20.196  1.00  0.00    -0.398 OA
ATOM     46  H6  UNL     1      -7.596  20.043  20.669  1.00  0.00     0.209 HD
ENDBRANCH  44  45
ENDBRANCH  41  44
ENDBRANCH  37  41
ENDBRANCH  32  35
ENDBRANCH  29  32
ENDBRANCH   7  29
BRANCH   5  47
HETATM   47  C11 UNL     1       0.302  19.730  11.884  1.00  0.00     0.334 C 
BRANCH  47  48
HETATM   48  N5  UNL     1       1.394  19.052  11.284  1.00  0.00    -0.071 N 
ATOM     49  H53 UNL     1       2.271  19.460  11.607  1.00  0.00     0.274 HD
ATOM     50  H52 UNL     1       1.471  18.113  11.674  1.00  0.00     0.274 HD
ATOM     51  H51 UNL     1       1.391  19.001  10.265  1.00  0.00     0.274 HD
ENDBRANCH  47  48
ENDBRANCH   5  47
TORSDOF 15
ENDMDL
