MODEL 1
REMARK VINA RESULT: -6.194825209      0.000      0.000
REMARK  8 active torsions:
REMARK  status: ('A' for Active; 'I' for Inactive)
REMARK    1  A    between atoms: N1_1  and  C1_4 
REMARK    2  A    between atoms: N4_13  and  O3_14 
REMARK    3  A    between atoms: C4_16  and  C5_17 
REMARK    4  A    between atoms: C5_17  and  O4_18 
REMARK    5  A    between atoms: C5_17  and  N5_20 
REMARK    6  A    between atoms: N5_20  and  N6_21 
REMARK       I    between atoms: N6_21  and  C6_22 
REMARK    7  A    between atoms: C6_22  and  C7_24 
REMARK    8  A    between atoms: C7_24  and  N7_25 
ROOT
HETATM    1  C1  UNL     1       6.371  16.746  16.298  1.00  0.00     0.138 C 
HETATM    2  N2  UNL     1       5.361  16.102  16.867  1.00  0.00    -0.293 N 
ATOM      3  H2  UNL     1       4.560  16.677  17.129  1.00  0.00     0.172 HD
HETATM    4  C2  UNL     1       5.257  14.820  17.137  1.00  0.00     0.329 C 
HETATM    5  O1  UNL     1       4.325  14.412  17.945  1.00  0.00    -0.246 OA
HETATM    6  N3  UNL     1       6.045  13.777  16.683  1.00  0.00    -0.258 N 
ATOM      7  H3  UNL     1       5.826  12.849  17.044  1.00  0.00     0.175 HD
HETATM    8  C3  UNL     1       7.093  13.859  15.797  1.00  0.00     0.355 C 
HETATM    9  O2  UNL     1       7.413  12.781  15.307  1.00  0.00    -0.244 OA
HETATM   10  N4  UNL     1       7.792  14.970  15.435  1.00  0.00    -0.163 N 
HETATM   11  C4  UNL     1       7.553  16.216  15.780  1.00  0.00     0.179 C 
ENDROOT
BRANCH  11  12
HETATM   12  C5  UNL     1       8.665  17.199  15.629  1.00  0.00     0.287 C 
BRANCH  12  13
HETATM   13  O4  UNL     1       9.419  17.069  16.719  1.00  0.00    -0.331 OA
ATOM     14  H4  UNL     1      10.151  16.519  16.467  1.00  0.00     0.220 HD
ENDBRANCH  12  13
BRANCH  12  15
HETATM   15  N5  UNL     1       8.826  18.034  14.595  1.00  0.00    -0.217 NA
BRANCH  15  16
HETATM   16  N6  UNL     1       8.968  18.849  13.580  1.00  0.00    -0.205 NA
HETATM   17  C6  UNL     1       9.239  19.590  12.433  1.00  0.00     0.352 C 
HETATM   18  O5  UNL     1      10.048  19.409  11.520  1.00  0.00    -0.252 OA
BRANCH  17  19
HETATM   19  C7  UNL     1       8.267  20.817  12.422  1.00  0.00     0.351 C 
BRANCH  19  20
HETATM   20  N7  UNL     1       7.847  21.214  13.678  1.00  0.00    -0.070 N 
ATOM     21  H73 UNL     1       6.946  20.794  13.903  1.00  0.00     0.274 HD
ATOM     22  H72 UNL     1       8.424  20.785  14.400  1.00  0.00     0.274 HD
ATOM     23  H71 UNL     1       7.810  22.226  13.803  1.00  0.00     0.274 HD
ENDBRANCH  19  20
ENDBRANCH  17  19
ENDBRANCH  15  16
ENDBRANCH  12  15
ENDBRANCH  11  12
BRANCH   1  24
HETATM   24  N1  UNL     1       6.343  18.017  16.184  1.00  0.00    -0.383 N 
ATOM     25  H12 UNL     1       5.476  18.404  16.557  1.00  0.00     0.157 HD
ATOM     26  H11 UNL     1       7.123  18.513  15.753  1.00  0.00     0.157 HD
ENDBRANCH   1  24
BRANCH  10  27
HETATM   27  O3  UNL     1       8.851  14.651  14.644  1.00  0.00    -0.278 OA
ATOM     28  H3  UNL     1       8.952  15.275  13.934  1.00  0.00     0.245 HD
ENDBRANCH  10  27
TORSDOF 8
ENDMDL
MODEL 2
REMARK VINA RESULT: -5.935312843      3.427      6.684
REMARK  8 active torsions:
REMARK  status: ('A' for Active; 'I' for Inactive)
REMARK    1  A    between atoms: N1_1  and  C1_4 
REMARK    2  A    between atoms: N4_13  and  O3_14 
REMARK    3  A    between atoms: C4_16  and  C5_17 
REMARK    4  A    between atoms: C5_17  and  O4_18 
REMARK    5  A    between atoms: C5_17  and  N5_20 
REMARK    6  A    between atoms: N5_20  and  N6_21 
REMARK       I    between atoms: N6_21  and  C6_22 
REMARK    7  A    between atoms: C6_22  and  C7_24 
REMARK    8  A    between atoms: C7_24  and  N7_25 
ROOT
HETATM    1  C1  UNL     1       6.923  20.603  13.381  1.00  0.00     0.138 C 
HETATM    2  N2  UNL     1       7.129  21.857  13.005  1.00  0.00    -0.293 N 
ATOM      3  H2  UNL     1       7.530  21.981  12.075  1.00  0.00     0.172 HD
HETATM    4  C2  UNL     1       6.886  22.963  13.674  1.00  0.00     0.329 C 
HETATM    5  O1  UNL     1       7.409  24.081  13.270  1.00  0.00    -0.246 OA
HETATM    6  N3  UNL     1       6.130  23.125  14.822  1.00  0.00    -0.258 N 
ATOM      7  H3  UNL     1       6.095  24.066  15.215  1.00  0.00     0.175 HD
HETATM    8  C3  UNL     1       5.421  22.156  15.488  1.00  0.00     0.355 C 
HETATM    9  O2  UNL     1       4.584  22.601  16.267  1.00  0.00    -0.244 OA
HETATM   10  N4  UNL     1       5.558  20.804  15.384  1.00  0.00    -0.163 N 
HETATM   11  C4  UNL     1       6.330  20.138  14.556  1.00  0.00     0.179 C 
ENDROOT
BRANCH  11  12
HETATM   12  C5  UNL     1       6.645  18.720  14.894  1.00  0.00     0.287 C 
BRANCH  12  13
HETATM   13  O4  UNL     1       5.561  18.016  14.568  1.00  0.00    -0.331 OA
ATOM     14  H4  UNL     1       5.075  17.896  15.375  1.00  0.00     0.220 HD
ENDBRANCH  12  13
BRANCH  12  15
HETATM   15  N5  UNL     1       7.792  18.287  15.430  1.00  0.00    -0.217 NA
BRANCH  15  16
HETATM   16  N6  UNL     1       8.907  17.846  15.957  1.00  0.00    -0.205 NA
HETATM   17  C6  UNL     1      10.151  17.556  16.510  1.00  0.00     0.352 C 
HETATM   18  O5  UNL     1      11.142  18.266  16.703  1.00  0.00    -0.252 OA
BRANCH  17  19
HETATM   19  C7  UNL     1      10.141  16.049  16.931  1.00  0.00     0.351 C 
BRANCH  19  20
HETATM   20  N7  UNL     1       9.078  15.328  16.419  1.00  0.00    -0.070 N 
ATOM     21  H73 UNL     1       9.387  14.733  15.650  1.00  0.00     0.274 HD
ATOM     22  H72 UNL     1       8.779  14.613  17.082  1.00  0.00     0.274 HD
ATOM     23  H71 UNL     1       8.287  15.902  16.130  1.00  0.00     0.274 HD
ENDBRANCH  19  20
ENDBRANCH  17  19
ENDBRANCH  15  16
ENDBRANCH  12  15
ENDBRANCH  11  12
BRANCH   1  24
HETATM   24  N1  UNL     1       7.297  19.636  12.635  1.00  0.00    -0.383 N 
ATOM     25  H12 UNL     1       8.031  19.928  11.990  1.00  0.00     0.157 HD
ATOM     26  H11 UNL     1       6.862  18.718  12.725  1.00  0.00     0.157 HD
ENDBRANCH   1  24
BRANCH  10  27
HETATM   27  O3  UNL     1       4.785  20.158  16.298  1.00  0.00    -0.278 OA
ATOM     28  H3  UNL     1       3.862  20.337  16.156  1.00  0.00     0.245 HD
ENDBRANCH  10  27
TORSDOF 8
ENDMDL
MODEL 3
REMARK VINA RESULT: -5.901609858      3.818      6.733
REMARK  8 active torsions:
REMARK  status: ('A' for Active; 'I' for Inactive)
REMARK    1  A    between atoms: N1_1  and  C1_4 
REMARK    2  A    between atoms: N4_13  and  O3_14 
REMARK    3  A    between atoms: C4_16  and  C5_17 
REMARK    4  A    between atoms: C5_17  and  O4_18 
REMARK    5  A    between atoms: C5_17  and  N5_20 
REMARK    6  A    between atoms: N5_20  and  N6_21 
REMARK       I    between atoms: N6_21  and  C6_22 
REMARK    7  A    between atoms: C6_22  and  C7_24 
REMARK    8  A    between atoms: C7_24  and  N7_25 
ROOT
HETATM    1  C1  UNL     1       5.034  20.969  15.512  1.00  0.00     0.138 C 
HETATM    2  N2  UNL     1       4.289  22.038  15.757  1.00  0.00    -0.293 N 
ATOM      3  H2  UNL     1       3.582  21.929  16.484  1.00  0.00     0.172 HD
HETATM    4  C2  UNL     1       4.342  23.221  15.186  1.00  0.00     0.329 C 
HETATM    5  O1  UNL     1       3.358  24.054  15.350  1.00  0.00    -0.246 OA
HETATM    6  N3  UNL     1       5.333  23.740  14.372  1.00  0.00    -0.258 N 
ATOM      7  H3  UNL     1       5.168  24.671  13.990  1.00  0.00     0.175 HD
HETATM    8  C3  UNL     1       6.516  23.135  14.022  1.00  0.00     0.355 C 
HETATM    9  O2  UNL     1       7.356  23.909  13.574  1.00  0.00    -0.244 OA
HETATM   10  N4  UNL     1       6.833  21.813  14.109  1.00  0.00    -0.163 N 
HETATM   11  C4  UNL     1       6.110  20.848  14.633  1.00  0.00     0.179 C 
ENDROOT
BRANCH  11  12
HETATM   12  C5  UNL     1       6.445  19.447  14.244  1.00  0.00     0.287 C 
BRANCH  12  13
HETATM   13  O4  UNL     1       5.812  19.226  13.092  1.00  0.00    -0.331 OA
ATOM     14  H4  UNL     1       5.421  18.363  13.171  1.00  0.00     0.220 HD
ENDBRANCH  12  13
BRANCH  12  15
HETATM   15  N5  UNL     1       7.217  18.611  14.948  1.00  0.00    -0.217 NA
BRANCH  15  16
HETATM   16  N6  UNL     1       7.963  17.795  15.650  1.00  0.00    -0.205 NA
HETATM   17  C6  UNL     1       8.603  16.823  16.414  1.00  0.00     0.352 C 
HETATM   18  O5  UNL     1       8.168  15.818  16.981  1.00  0.00    -0.252 OA
BRANCH  17  19
HETATM   19  C7  UNL     1      10.125  17.184  16.459  1.00  0.00     0.351 C 
BRANCH  19  20
HETATM   20  N7  UNL     1      10.558  17.940  15.386  1.00  0.00    -0.070 N 
ATOM     21  H73 UNL     1      11.480  17.631  15.079  1.00  0.00     0.274 HD
ATOM     22  H72 UNL     1      10.015  17.718  14.552  1.00  0.00     0.274 HD
ATOM     23  H71 UNL     1      10.556  18.945  15.557  1.00  0.00     0.274 HD
ENDBRANCH  19  20
ENDBRANCH  17  19
ENDBRANCH  15  16
ENDBRANCH  12  15
ENDBRANCH  11  12
BRANCH   1  24
HETATM   24  N1  UNL     1       4.793  19.865  16.106  1.00  0.00    -0.383 N 
ATOM     25  H12 UNL     1       3.947  19.926  16.673  1.00  0.00     0.157 HD
ATOM     26  H11 UNL     1       5.419  19.069  15.988  1.00  0.00     0.157 HD
ENDBRANCH   1  24
BRANCH  10  27
HETATM   27  O3  UNL     1       8.042  21.557  13.542  1.00  0.00    -0.278 OA
ATOM     28  H3  UNL     1       8.632  22.295  13.640  1.00  0.00     0.245 HD
ENDBRANCH  10  27
TORSDOF 8
ENDMDL
MODEL 4
REMARK VINA RESULT: -5.888061564      2.037      3.154
REMARK  8 active torsions:
REMARK  status: ('A' for Active; 'I' for Inactive)
REMARK    1  A    between atoms: N1_1  and  C1_4 
REMARK    2  A    between atoms: N4_13  and  O3_14 
REMARK    3  A    between atoms: C4_16  and  C5_17 
REMARK    4  A    between atoms: C5_17  and  O4_18 
REMARK    5  A    between atoms: C5_17  and  N5_20 
REMARK    6  A    between atoms: N5_20  and  N6_21 
REMARK       I    between atoms: N6_21  and  C6_22 
REMARK    7  A    between atoms: C6_22  and  C7_24 
REMARK    8  A    between atoms: C7_24  and  N7_25 
ROOT
HETATM    1  C1  UNL     1       8.618  16.124  15.174  1.00  0.00     0.138 C 
HETATM    2  N2  UNL     1       7.609  15.305  15.440  1.00  0.00    -0.293 N 
ATOM      3  H2  UNL     1       7.851  14.318  15.529  1.00  0.00     0.172 HD
HETATM    4  C2  UNL     1       6.338  15.599  15.603  1.00  0.00     0.329 C 
HETATM    5  O1  UNL     1       5.454  14.647  15.575  1.00  0.00    -0.246 OA
HETATM    6  N3  UNL     1       5.759  16.842  15.790  1.00  0.00    -0.258 N 
ATOM      7  H3  UNL     1       4.741  16.865  15.856  1.00  0.00     0.175 HD
HETATM    8  C3  UNL     1       6.408  18.048  15.896  1.00  0.00     0.355 C 
HETATM    9  O2  UNL     1       5.719  18.940  16.380  1.00  0.00    -0.244 OA
HETATM   10  N4  UNL     1       7.684  18.343  15.522  1.00  0.00    -0.163 N 
HETATM   11  C4  UNL     1       8.598  17.515  15.067  1.00  0.00     0.179 C 
ENDROOT
BRANCH  11  12
HETATM   12  C5  UNL     1       9.753  18.101  14.329  1.00  0.00     0.287 C 
BRANCH  12  13
HETATM   13  O4  UNL     1      10.795  18.022  15.156  1.00  0.00    -0.331 OA
ATOM     14  H4  UNL     1      11.182  18.889  15.172  1.00  0.00     0.220 HD
ENDBRANCH  12  13
BRANCH  12  15
HETATM   15  N5  UNL     1       9.706  18.607  13.090  1.00  0.00    -0.217 NA
BRANCH  15  16
HETATM   16  N6  UNL     1       9.660  19.118  11.886  1.00  0.00    -0.205 NA
HETATM   17  C6  UNL     1       9.736  19.531  10.558  1.00  0.00     0.352 C 
HETATM   18  O5  UNL     1      10.459  19.159   9.631  1.00  0.00    -0.252 OA
BRANCH  17  19
HETATM   19  C7  UNL     1       8.653  20.641  10.346  1.00  0.00     0.351 C 
BRANCH  19  20
HETATM   20  N7  UNL     1       7.986  21.006  11.500  1.00  0.00    -0.070 N 
ATOM     21  H73 UNL     1       8.511  20.713  12.324  1.00  0.00     0.274 HD
ATOM     22  H72 UNL     1       8.016  22.017  11.626  1.00  0.00     0.274 HD
ATOM     23  H71 UNL     1       7.026  20.667  11.550  1.00  0.00     0.274 HD
ENDBRANCH  19  20
ENDBRANCH  17  19
ENDBRANCH  15  16
ENDBRANCH  12  15
ENDBRANCH  11  12
BRANCH   1  24
HETATM   24  N1  UNL     1       9.787  15.659  14.962  1.00  0.00    -0.383 N 
ATOM     25  H12 UNL     1       9.751  14.795  14.422  1.00  0.00     0.157 HD
ATOM     26  H11 UNL     1      10.608  16.141  15.329  1.00  0.00     0.157 HD
ENDBRANCH   1  24
BRANCH  10  27
HETATM   27  O3  UNL     1       7.940  19.672  15.647  1.00  0.00    -0.278 OA
ATOM     28  H3  UNL     1       8.850  19.868  15.457  1.00  0.00     0.245 HD
ENDBRANCH  10  27
TORSDOF 8
ENDMDL
MODEL 5
REMARK VINA RESULT: -5.804173268      3.230      6.897
REMARK  8 active torsions:
REMARK  status: ('A' for Active; 'I' for Inactive)
REMARK    1  A    between atoms: N1_1  and  C1_4 
REMARK    2  A    between atoms: N4_13  and  O3_14 
REMARK    3  A    between atoms: C4_16  and  C5_17 
REMARK    4  A    between atoms: C5_17  and  O4_18 
REMARK    5  A    between atoms: C5_17  and  N5_20 
REMARK    6  A    between atoms: N5_20  and  N6_21 
REMARK       I    between atoms: N6_21  and  C6_22 
REMARK    7  A    between atoms: C6_22  and  C7_24 
REMARK    8  A    between atoms: C7_24  and  N7_25 
ROOT
HETATM    1  C1  UNL     1       5.906  20.218  13.084  1.00  0.00     0.138 C 
HETATM    2  N2  UNL     1       6.142  20.805  11.919  1.00  0.00    -0.293 N 
ATOM      3  H2  UNL     1       5.798  20.311  11.096  1.00  0.00     0.172 HD
HETATM    4  C2  UNL     1       6.760  21.942  11.686  1.00  0.00     0.329 C 
HETATM    5  O1  UNL     1       7.147  22.221  10.477  1.00  0.00    -0.246 OA
HETATM    6  N3  UNL     1       7.102  22.936  12.585  1.00  0.00    -0.258 N 
ATOM      7  H3  UNL     1       7.621  23.731  12.211  1.00  0.00     0.175 HD
HETATM    8  C3  UNL     1       6.817  22.968  13.929  1.00  0.00     0.355 C 
HETATM    9  O2  UNL     1       6.930  24.081  14.433  1.00  0.00    -0.244 OA
HETATM   10  N4  UNL     1       6.449  21.928  14.727  1.00  0.00    -0.163 N 
HETATM   11  C4  UNL     1       6.195  20.690  14.365  1.00  0.00     0.179 C 
ENDROOT
BRANCH  11  12
HETATM   12  C5  UNL     1       6.232  19.640  15.424  1.00  0.00     0.287 C 
BRANCH  12  13
HETATM   13  O4  UNL     1       5.189  19.884  16.218  1.00  0.00    -0.331 OA
ATOM     14  H4  UNL     1       5.522  19.836  17.107  1.00  0.00     0.220 HD
ENDBRANCH  12  13
BRANCH  12  15
HETATM   15  N5  UNL     1       7.152  18.675  15.527  1.00  0.00    -0.217 NA
BRANCH  15  16
HETATM   16  N6  UNL     1       8.066  17.741  15.624  1.00  0.00    -0.205 NA
HETATM   17  C6  UNL     1       8.957  16.673  15.576  1.00  0.00     0.352 C 
HETATM   18  O5  UNL     1       8.992  15.674  14.854  1.00  0.00    -0.252 OA
BRANCH  17  19
HETATM   19  C7  UNL     1      10.057  16.926  16.662  1.00  0.00     0.351 C 
BRANCH  19  20
HETATM   20  N7  UNL     1      10.984  17.889  16.311  1.00  0.00    -0.070 N 
ATOM     21  H73 UNL     1      11.344  17.714  15.373  1.00  0.00     0.274 HD
ATOM     22  H72 UNL     1      10.527  18.787  16.156  1.00  0.00     0.274 HD
ATOM     23  H71 UNL     1      11.752  17.988  16.975  1.00  0.00     0.274 HD
ENDBRANCH  19  20
ENDBRANCH  17  19
ENDBRANCH  15  16
ENDBRANCH  12  15
ENDBRANCH  11  12
BRANCH   1  24
HETATM   24  N1  UNL     1       5.360  19.065  13.127  1.00  0.00    -0.383 N 
ATOM     25  H12 UNL     1       4.719  18.986  13.916  1.00  0.00     0.157 HD
ATOM     26  H11 UNL     1       5.594  18.358  12.430  1.00  0.00     0.157 HD
ENDBRANCH   1  24
BRANCH  10  27
HETATM   27  O3  UNL     1       6.385  22.305  16.032  1.00  0.00    -0.278 OA
ATOM     28  H3  UNL     1       5.680  22.926  16.177  1.00  0.00     0.245 HD
ENDBRANCH  10  27
TORSDOF 8
ENDMDL
