MODEL 1
REMARK VINA RESULT: -7.683665451      0.000      0.000
REMARK  4 active torsions:
REMARK  status: ('A' for Active; 'I' for Inactive)
REMARK       I    between atoms: C2_2  and  N1_4 
REMARK    1  A    between atoms: N1_4  and  N2_6 
REMARK    2  A    between atoms: N2_6  and  C3_8 
REMARK    3  A    between atoms: C5_15  and  N5_16 
REMARK    4  A    between atoms: N5_16  and  N6_18 
ROOT
HETATM    1  C3  UNL     1       7.695  17.013  16.272  1.00  0.00     0.194 C 
HETATM    2  N3  UNL     1       8.920  16.978  16.833  1.00  0.00    -0.288 N 
ATOM      3  H3  UNL     1       8.978  16.505  17.735  1.00  0.00     0.172 HD
HETATM    4  C4  UNL     1      10.083  17.485  16.364  1.00  0.00     0.340 C 
HETATM    5  O2  UNL     1      11.045  17.519  17.181  1.00  0.00    -0.246 OA
HETATM    6  N4  UNL     1      10.340  17.958  15.136  1.00  0.00    -0.140 N 
ATOM      7  H4  UNL     1      11.318  17.942  14.846  1.00  0.00     0.189 HD
HETATM    8  C5  UNL     1       9.468  18.450  14.244  1.00  0.00     0.704 C 
HETATM    9  N9  UNL     1       8.131  18.502  14.339  1.00  0.00    -0.151 N 
ATOM     10  H9  UNL     1       7.648  19.182  13.751  1.00  0.00     0.188 HD
HETATM   11  C7  UNL     1       7.373  17.735  15.143  1.00  0.00     0.305 C 
HETATM   12  O3  UNL     1       6.160  17.640  14.836  1.00  0.00    -0.263 OA
ENDROOT
BRANCH   1  13
HETATM   13  N2  UNL     1       6.745  16.335  16.807  1.00  0.00    -0.278 N 
ATOM     14  H2  UNL     1       6.307  16.704  17.651  1.00  0.00     0.189 HD
BRANCH  13  15
HETATM   15  N1  UNL     1       6.282  15.135  16.306  1.00  0.00    -0.269 N 
HETATM   16  C2  UNL     1       7.041  13.944  16.323  1.00  0.00     0.232 C 
HETATM   17  C1  UNL     1       6.500  12.683  15.773  1.00  0.00     0.119 C 
HETATM   18  O1  UNL     1       8.197  13.933  16.808  1.00  0.00    -0.272 OA
ATOM     19  H1  UNL     1       5.345  15.107  15.904  1.00  0.00     0.190 HD
ENDBRANCH  13  15
ENDBRANCH   1  13
BRANCH   8  20
HETATM   20  N5  UNL     1       9.926  18.949  13.133  1.00  0.00    -0.130 N 
ATOM     21  H5  UNL     1      10.834  18.674  12.758  1.00  0.00     0.205 HD
BRANCH  20  22
HETATM   22  N6  UNL     1       9.117  19.876  12.482  1.00  0.00    -0.262 N 
HETATM   23  C6  UNL     1       9.224  20.020  11.211  1.00  0.00     0.216 C 
HETATM   24  N7  UNL     1      10.164  19.227  10.513  1.00  0.00    -0.065 NA
HETATM   25  N8  UNL     1       8.392  20.974  10.542  1.00  0.00    -0.065 NA
ATOM     26  H6  UNL     1       8.447  20.435  13.009  1.00  0.00     0.190 HD
ENDBRANCH  20  22
ENDBRANCH   8  20
TORSDOF 4
ENDMDL
MODEL 2
REMARK VINA RESULT: -7.313890713      3.111      5.907
REMARK  4 active torsions:
REMARK  status: ('A' for Active; 'I' for Inactive)
REMARK       I    between atoms: C2_2  and  N1_4 
REMARK    1  A    between atoms: N1_4  and  N2_6 
REMARK    2  A    between atoms: N2_6  and  C3_8 
REMARK    3  A    between atoms: C5_15  and  N5_16 
REMARK    4  A    between atoms: N5_16  and  N6_18 
ROOT
HETATM    1  C3  UNL     1       7.485  20.664  13.889  1.00  0.00     0.194 C 
HETATM    2  N3  UNL     1       8.131  20.764  12.710  1.00  0.00    -0.288 N 
ATOM      3  H3  UNL     1       7.833  21.532  12.109  1.00  0.00     0.172 HD
HETATM    4  C4  UNL     1       9.121  19.986  12.216  1.00  0.00     0.340 C 
HETATM    5  O2  UNL     1       9.402  20.151  10.997  1.00  0.00    -0.246 OA
HETATM    6  N4  UNL     1       9.842  19.059  12.863  1.00  0.00    -0.140 N 
ATOM      7  H4  UNL     1      10.759  18.851  12.471  1.00  0.00     0.189 HD
HETATM    8  C5  UNL     1       9.502  18.373  13.964  1.00  0.00     0.704 C 
HETATM    9  N9  UNL     1       8.403  18.516  14.720  1.00  0.00    -0.151 N 
ATOM     10  H9  UNL     1       8.135  17.727  15.308  1.00  0.00     0.188 HD
HETATM   11  C7  UNL     1       7.625  19.613  14.770  1.00  0.00     0.305 C 
HETATM   12  O3  UNL     1       6.890  19.725  15.781  1.00  0.00    -0.263 OA
ENDROOT
BRANCH   1  13
HETATM   13  N2  UNL     1       6.678  21.599  14.239  1.00  0.00    -0.278 N 
ATOM     14  H2  UNL     1       7.075  22.485  14.553  1.00  0.00     0.189 HD
BRANCH  13  15
HETATM   15  N1  UNL     1       5.303  21.475  14.216  1.00  0.00    -0.269 N 
HETATM   16  C2  UNL     1       4.455  22.072  15.174  1.00  0.00     0.232 C 
HETATM   17  C1  UNL     1       2.987  21.909  15.105  1.00  0.00     0.119 C 
HETATM   18  O1  UNL     1       4.934  22.758  16.109  1.00  0.00    -0.272 OA
ATOM     19  H1  UNL     1       4.879  20.925  13.469  1.00  0.00     0.190 HD
ENDBRANCH  13  15
ENDBRANCH   1  13
BRANCH   8  20
HETATM   20  N5  UNL     1      10.304  17.443  14.392  1.00  0.00    -0.130 N 
ATOM     21  H5  UNL     1      11.213  17.280  13.959  1.00  0.00     0.205 HD
BRANCH  20  22
HETATM   22  N6  UNL     1       9.862  16.680  15.469  1.00  0.00    -0.262 N 
HETATM   23  C6  UNL     1      10.239  16.989  16.656  1.00  0.00     0.216 C 
HETATM   24  N7  UNL     1      11.096  18.102  16.830  1.00  0.00    -0.065 NA
HETATM   25  N8  UNL     1       9.784  16.203  17.763  1.00  0.00    -0.065 NA
ATOM     26  H6  UNL     1       9.244  15.883  15.316  1.00  0.00     0.190 HD
ENDBRANCH  20  22
ENDBRANCH   8  20
TORSDOF 4
ENDMDL
MODEL 3
REMARK VINA RESULT: -7.287815410      2.115      6.199
REMARK  4 active torsions:
REMARK  status: ('A' for Active; 'I' for Inactive)
REMARK       I    between atoms: C2_2  and  N1_4 
REMARK    1  A    between atoms: N1_4  and  N2_6 
REMARK    2  A    between atoms: N2_6  and  C3_8 
REMARK    3  A    between atoms: C5_15  and  N5_16 
REMARK    4  A    between atoms: N5_16  and  N6_18 
ROOT
HETATM    1  C3  UNL     1       9.141  18.286  13.969  1.00  0.00     0.194 C 
HETATM    2  N3  UNL     1       9.617  17.029  14.077  1.00  0.00    -0.288 N 
ATOM      3  H3  UNL     1      10.435  16.818  13.504  1.00  0.00     0.172 HD
HETATM    4  C4  UNL     1       9.159  16.011  14.839  1.00  0.00     0.340 C 
HETATM    5  O2  UNL     1       9.641  14.871  14.593  1.00  0.00    -0.246 OA
HETATM    6  N4  UNL     1       8.255  16.063  15.827  1.00  0.00    -0.140 N 
ATOM      7  H4  UNL     1       8.307  15.319  16.523  1.00  0.00     0.189 HD
HETATM    8  C5  UNL     1       7.290  16.976  16.012  1.00  0.00     0.704 C 
HETATM    9  N9  UNL     1       7.061  18.091  15.303  1.00  0.00    -0.151 N 
ATOM     10  H9  UNL     1       6.125  18.493  15.354  1.00  0.00     0.188 HD
HETATM   11  C7  UNL     1       7.961  18.726  14.530  1.00  0.00     0.305 C 
HETATM   12  O3  UNL     1       7.711  19.924  14.257  1.00  0.00    -0.263 OA
ENDROOT
BRANCH   1  13
HETATM   13  N2  UNL     1       9.815  19.153  13.302  1.00  0.00    -0.278 N 
ATOM     14  H2  UNL     1      10.038  20.040  13.754  1.00  0.00     0.189 HD
BRANCH  13  15
HETATM   15  N1  UNL     1      10.255  18.953  12.009  1.00  0.00    -0.269 N 
HETATM   16  C2  UNL     1       9.744  19.662  10.900  1.00  0.00     0.232 C 
HETATM   17  C1  UNL     1      10.249  19.411   9.533  1.00  0.00     0.119 C 
HETATM   18  O1  UNL     1       8.845  20.523  11.053  1.00  0.00    -0.272 OA
ATOM     19  H1  UNL     1      10.985  18.260  11.848  1.00  0.00     0.190 HD
ENDBRANCH  13  15
ENDBRANCH   1  13
BRANCH   8  20
HETATM   20  N5  UNL     1       6.445  16.803  16.987  1.00  0.00    -0.130 N 
ATOM     21  H5  UNL     1       6.705  16.983  17.957  1.00  0.00     0.205 HD
BRANCH  20  22
HETATM   22  N6  UNL     1       5.171  16.360  16.642  1.00  0.00    -0.262 N 
HETATM   23  C6  UNL     1       4.873  15.121  16.797  1.00  0.00     0.216 C 
HETATM   24  N7  UNL     1       5.854  14.244  17.316  1.00  0.00    -0.065 NA
HETATM   25  N8  UNL     1       3.562  14.667  16.442  1.00  0.00    -0.065 NA
ATOM     26  H6  UNL     1       4.482  17.013  16.271  1.00  0.00     0.190 HD
ENDBRANCH  20  22
ENDBRANCH   8  20
TORSDOF 4
ENDMDL
MODEL 4
REMARK VINA RESULT: -7.231577339      3.096      6.877
REMARK  4 active torsions:
REMARK  status: ('A' for Active; 'I' for Inactive)
REMARK       I    between atoms: C2_2  and  N1_4 
REMARK    1  A    between atoms: N1_4  and  N2_6 
REMARK    2  A    between atoms: N2_6  and  C3_8 
REMARK    3  A    between atoms: C5_15  and  N5_16 
REMARK    4  A    between atoms: N5_16  and  N6_18 
ROOT
HETATM    1  C3  UNL     1       7.790  20.093  11.969  1.00  0.00     0.194 C 
HETATM    2  N3  UNL     1       7.051  20.132  13.096  1.00  0.00    -0.288 N 
ATOM      3  H3  UNL     1       6.150  20.604  13.016  1.00  0.00     0.172 HD
HETATM    4  C4  UNL     1       7.340  19.630  14.318  1.00  0.00     0.340 C 
HETATM    5  O2  UNL     1       6.584  19.992  15.262  1.00  0.00    -0.246 OA
HETATM    6  N4  UNL     1       8.332  18.793  14.651  1.00  0.00    -0.140 N 
ATOM      7  H4  UNL     1       8.185  18.234  15.492  1.00  0.00     0.189 HD
HETATM    8  C5  UNL     1       9.496  18.601  14.014  1.00  0.00     0.704 C 
HETATM    9  N9  UNL     1       9.899  19.136  12.851  1.00  0.00    -0.151 N 
ATOM     10  H9  UNL     1      10.903  19.157  12.670  1.00  0.00     0.188 HD
HETATM   11  C7  UNL     1       9.092  19.647  11.904  1.00  0.00     0.305 C 
HETATM   12  O3  UNL     1       9.582  19.746  10.753  1.00  0.00    -0.263 OA
ENDROOT
BRANCH   1  13
HETATM   13  N2  UNL     1       7.268  20.495  10.867  1.00  0.00    -0.278 N 
ATOM     14  H2  UNL     1       6.685  19.841  10.344  1.00  0.00     0.189 HD
BRANCH  13  15
HETATM   15  N1  UNL     1       7.449  21.762  10.349  1.00  0.00    -0.269 N 
HETATM   16  C2  UNL     1       7.383  22.050   8.968  1.00  0.00     0.232 C 
HETATM   17  C1  UNL     1       7.585  23.425   8.463  1.00  0.00     0.119 C 
HETATM   18  O1  UNL     1       7.151  21.139   8.138  1.00  0.00    -0.272 OA
ATOM     19  H1  UNL     1       7.639  22.527  10.996  1.00  0.00     0.190 HD
ENDBRANCH  13  15
ENDBRANCH   1  13
BRANCH   8  20
HETATM   20  N5  UNL     1      10.377  17.806  14.548  1.00  0.00    -0.130 N 
ATOM     21  H5  UNL     1      11.358  17.833  14.270  1.00  0.00     0.205 HD
BRANCH  20  22
HETATM   22  N6  UNL     1       9.917  16.918  15.516  1.00  0.00    -0.262 N 
HETATM   23  C6  UNL     1      10.305  17.056  16.732  1.00  0.00     0.216 C 
HETATM   24  N7  UNL     1      11.193  18.111  17.047  1.00  0.00    -0.065 NA
HETATM   25  N8  UNL     1       9.831  16.142  17.726  1.00  0.00    -0.065 NA
ATOM     26  H6  UNL     1       9.277  16.166  15.262  1.00  0.00     0.190 HD
ENDBRANCH  20  22
ENDBRANCH   8  20
TORSDOF 4
ENDMDL
MODEL 5
REMARK VINA RESULT: -7.139419790      2.466      6.027
REMARK  4 active torsions:
REMARK  status: ('A' for Active; 'I' for Inactive)
REMARK       I    between atoms: C2_2  and  N1_4 
REMARK    1  A    between atoms: N1_4  and  N2_6 
REMARK    2  A    between atoms: N2_6  and  C3_8 
REMARK    3  A    between atoms: C5_15  and  N5_16 
REMARK    4  A    between atoms: N5_16  and  N6_18 
ROOT
HETATM    1  C3  UNL     1       9.141  18.275  13.971  1.00  0.00     0.194 C 
HETATM    2  N3  UNL     1       9.594  17.026  14.199  1.00  0.00    -0.288 N 
ATOM      3  H3  UNL     1      10.461  16.778  13.721  1.00  0.00     0.172 HD
HETATM    4  C4  UNL     1       9.056  16.057  14.973  1.00  0.00     0.340 C 
HETATM    5  O2  UNL     1       9.549  14.902  14.843  1.00  0.00    -0.246 OA
HETATM    6  N4  UNL     1       8.062  16.171  15.865  1.00  0.00    -0.140 N 
ATOM      7  H4  UNL     1       8.040  15.471  16.605  1.00  0.00     0.189 HD
HETATM    8  C5  UNL     1       7.091  17.096  15.901  1.00  0.00     0.704 C 
HETATM    9  N9  UNL     1       6.941  18.168  15.107  1.00  0.00    -0.151 N 
ATOM     10  H9  UNL     1       6.008  18.575  15.044  1.00  0.00     0.188 HD
HETATM   11  C7  UNL     1       7.917  18.751  14.388  1.00  0.00     0.305 C 
HETATM   12  O3  UNL     1       7.705  19.932  14.021  1.00  0.00    -0.263 OA
ENDROOT
BRANCH   1  13
HETATM   13  N2  UNL     1       9.883  19.098  13.321  1.00  0.00    -0.278 N 
ATOM     14  H2  UNL     1      10.187  19.949  13.796  1.00  0.00     0.189 HD
BRANCH  13  15
HETATM   15  N1  UNL     1      10.294  18.898  12.019  1.00  0.00    -0.269 N 
HETATM   16  C2  UNL     1       9.792  19.639  10.926  1.00  0.00     0.232 C 
HETATM   17  C1  UNL     1      10.264  19.386   9.548  1.00  0.00     0.119 C 
HETATM   18  O1  UNL     1       8.930  20.533  11.105  1.00  0.00    -0.272 OA
ATOM     19  H1  UNL     1      10.994  18.179  11.836  1.00  0.00     0.190 HD
ENDBRANCH  13  15
ENDBRANCH   1  13
BRANCH   8  20
HETATM   20  N5  UNL     1       6.156  16.985  16.798  1.00  0.00    -0.130 N 
ATOM     21  H5  UNL     1       6.040  16.133  17.346  1.00  0.00     0.205 HD
BRANCH  20  22
HETATM   22  N6  UNL     1       5.321  18.085  16.974  1.00  0.00    -0.262 N 
HETATM   23  C6  UNL     1       4.050  17.909  17.021  1.00  0.00     0.216 C 
HETATM   24  N7  UNL     1       3.540  16.596  16.892  1.00  0.00    -0.065 NA
HETATM   25  N8  UNL     1       3.193  19.042  17.202  1.00  0.00    -0.065 NA
ATOM     26  H6  UNL     1       5.715  19.021  17.065  1.00  0.00     0.190 HD
ENDBRANCH  20  22
ENDBRANCH   8  20
TORSDOF 4
ENDMDL
