MODEL 1
REMARK VINA RESULT: -5.777706252      0.000      0.000
REMARK  3 active torsions:
REMARK  status: ('A' for Active; 'I' for Inactive)
REMARK       I    between atoms: N1_2  and  C3_5 
REMARK    1  A    between atoms: C3_5  and  C4_7 
REMARK    2  A    between atoms: C5_8  and  C6_9 
REMARK       I    between atoms: C6_9  and  N3_11 
REMARK    3  A    between atoms: N3_11  and  N4_13 
ROOT
HETATM    1  C1  UNL     1       6.040  21.366  15.146  1.00  0.00     0.172 C 
HETATM    2  N1  UNL     1       5.326  20.836  14.000  1.00  0.00    -0.255 N 
HETATM    3  C2  UNL     1       4.296  21.627  13.480  1.00  0.00     0.186 C 
HETATM    4  N2  UNL     1       3.446  22.287  13.031  1.00  0.00    -0.172 NA
HETATM    5  C3  UNL     1       5.669  19.567  13.442  1.00  0.00     0.274 C 
HETATM    6  O1  UNL     1       4.998  19.176  12.452  1.00  0.00    -0.266 OA
ENDROOT
BRANCH   5   7
HETATM    7  C4  UNL     1       6.735  18.740  13.969  1.00  0.00     0.133 A 
HETATM    8  C5  UNL     1       6.529  17.788  14.945  1.00  0.00     0.127 A 
HETATM    9  N5  UNL     1       7.570  17.030  15.400  1.00  0.00    -0.303 N 
HETATM   10  C7  UNL     1       8.800  17.193  14.915  1.00  0.00     0.327 A 
ATOM     11  H5  UNL     1       7.403  16.330  16.122  1.00  0.00     0.171 HD
HETATM   12  O3  UNL     1       9.740  16.463  15.371  1.00  0.00    -0.247 OA
HETATM   13  N6  UNL     1       9.017  18.115  13.966  1.00  0.00    -0.275 N 
HETATM   14  C8  UNL     1       8.028  18.883  13.488  1.00  0.00     0.267 A 
ATOM     15  H6  UNL     1       9.961  18.235  13.598  1.00  0.00     0.173 HD
HETATM   16  O4  UNL     1       8.302  19.727  12.599  1.00  0.00    -0.267 OA
BRANCH   8  17
HETATM   17  C6  UNL     1       5.199  17.597  15.496  1.00  0.00     0.287 C 
HETATM   18  O2  UNL     1       4.386  16.804  14.954  1.00  0.00    -0.264 OA
HETATM   19  N3  UNL     1       4.740  18.276  16.654  1.00  0.00    -0.271 N 
ATOM     20  H3  UNL     1       5.359  18.931  17.133  1.00  0.00     0.189 HD
BRANCH  19  21
HETATM   21  N4  UNL     1       3.440  18.057  17.150  1.00  0.00    -0.342 N 
ATOM     22  H42 UNL     1       3.081  17.103  17.176  1.00  0.00     0.176 HD
ATOM     23  H41 UNL     1       2.868  18.836  17.476  1.00  0.00     0.176 HD
ENDBRANCH  19  21
ENDBRANCH   8  17
ENDBRANCH   5   7
TORSDOF 3
ENDMDL
MODEL 2
REMARK VINA RESULT: -5.731128919      2.379      2.963
REMARK  3 active torsions:
REMARK  status: ('A' for Active; 'I' for Inactive)
REMARK       I    between atoms: N1_2  and  C3_5 
REMARK    1  A    between atoms: C3_5  and  C4_7 
REMARK    2  A    between atoms: C5_8  and  C6_9 
REMARK       I    between atoms: C6_9  and  N3_11 
REMARK    3  A    between atoms: N3_11  and  N4_13 
ROOT
HETATM    1  C1  UNL     1       4.102  17.838  13.261  1.00  0.00     0.172 C 
HETATM    2  N1  UNL     1       4.001  18.243  14.651  1.00  0.00    -0.255 N 
HETATM    3  C2  UNL     1       2.887  19.013  15.002  1.00  0.00     0.186 C 
HETATM    4  N2  UNL     1       1.954  19.642  15.307  1.00  0.00    -0.172 NA
HETATM    5  C3  UNL     1       4.998  17.866  15.601  1.00  0.00     0.274 C 
HETATM    6  O1  UNL     1       4.841  18.262  16.785  1.00  0.00    -0.266 OA
ENDROOT
BRANCH   5   7
HETATM    7  C4  UNL     1       6.154  17.067  15.250  1.00  0.00     0.133 A 
HETATM    8  C5  UNL     1       6.163  15.691  15.334  1.00  0.00     0.127 A 
HETATM    9  N5  UNL     1       7.279  14.985  14.982  1.00  0.00    -0.303 N 
HETATM   10  C7  UNL     1       8.377  15.607  14.553  1.00  0.00     0.327 A 
ATOM     11  H5  UNL     1       7.272  13.968  15.049  1.00  0.00     0.171 HD
HETATM   12  O3  UNL     1       9.393  14.907  14.236  1.00  0.00    -0.247 OA
HETATM   13  N6  UNL     1       8.383  16.945  14.466  1.00  0.00    -0.275 N 
HETATM   14  C8  UNL     1       7.313  17.681  14.800  1.00  0.00     0.267 A 
ATOM     15  H6  UNL     1       9.226  17.416  14.137  1.00  0.00     0.173 HD
HETATM   16  O4  UNL     1       7.390  18.930  14.694  1.00  0.00    -0.267 OA
BRANCH   8  17
HETATM   17  C6  UNL     1       4.983  14.990  15.806  1.00  0.00     0.287 C 
HETATM   18  O2  UNL     1       3.995  14.810  15.048  1.00  0.00    -0.264 OA
HETATM   19  N3  UNL     1       4.868  14.474  17.123  1.00  0.00    -0.271 N 
ATOM     20  H3  UNL     1       5.640  14.592  17.779  1.00  0.00     0.189 HD
BRANCH  19  21
HETATM   21  N4  UNL     1       3.701  13.801  17.535  1.00  0.00    -0.342 N 
ATOM     22  H42 UNL     1       3.352  13.033  16.961  1.00  0.00     0.176 HD
ATOM     23  H41 UNL     1       3.214  14.075  18.388  1.00  0.00     0.176 HD
ENDBRANCH  19  21
ENDBRANCH   8  17
ENDBRANCH   5   7
TORSDOF 3
ENDMDL
MODEL 3
REMARK VINA RESULT: -5.658426929      2.478      5.518
REMARK  3 active torsions:
REMARK  status: ('A' for Active; 'I' for Inactive)
REMARK       I    between atoms: N1_2  and  C3_5 
REMARK    1  A    between atoms: C3_5  and  C4_7 
REMARK    2  A    between atoms: C5_8  and  C6_9 
REMARK       I    between atoms: C6_9  and  N3_11 
REMARK    3  A    between atoms: N3_11  and  N4_13 
ROOT
HETATM    1  C1  UNL     1       4.475  18.683  13.255  1.00  0.00     0.172 C 
HETATM    2  N1  UNL     1       5.636  18.430  14.088  1.00  0.00    -0.255 N 
HETATM    3  C2  UNL     1       5.723  17.165  14.678  1.00  0.00     0.186 C 
HETATM    4  N2  UNL     1       5.811  16.108  15.162  1.00  0.00    -0.172 NA
HETATM    5  C3  UNL     1       6.632  19.434  14.285  1.00  0.00     0.274 C 
HETATM    6  O1  UNL     1       7.606  19.137  15.025  1.00  0.00    -0.266 OA
ENDROOT
BRANCH   5   7
HETATM    7  C4  UNL     1       6.555  20.746  13.677  1.00  0.00     0.133 A 
HETATM    8  C5  UNL     1       7.213  21.067  12.509  1.00  0.00     0.127 A 
HETATM    9  N5  UNL     1       7.099  22.319  11.974  1.00  0.00    -0.303 N 
HETATM   10  C7  UNL     1       6.354  23.252  12.565  1.00  0.00     0.327 A 
ATOM     11  H5  UNL     1       7.591  22.543  11.110  1.00  0.00     0.171 HD
HETATM   12  O3  UNL     1       6.277  24.405  12.030  1.00  0.00    -0.247 OA
HETATM   13  N6  UNL     1       5.708  22.955  13.702  1.00  0.00    -0.275 N 
HETATM   14  C8  UNL     1       5.789  21.741  14.266  1.00  0.00     0.267 A 
ATOM     15  H6  UNL     1       5.138  23.673  14.151  1.00  0.00     0.173 HD
HETATM   16  O4  UNL     1       5.157  21.532  15.331  1.00  0.00    -0.267 OA
BRANCH   8  17
HETATM   17  C6  UNL     1       8.038  20.071  11.849  1.00  0.00     0.287 C 
HETATM   18  O2  UNL     1       7.683  19.566  10.752  1.00  0.00    -0.264 OA
HETATM   19  N3  UNL     1       9.269  19.612  12.385  1.00  0.00    -0.271 N 
ATOM     20  H3  UNL     1       9.604  19.988  13.272  1.00  0.00     0.189 HD
BRANCH  19  21
HETATM   21  N4  UNL     1      10.034  18.642  11.707  1.00  0.00    -0.342 N 
ATOM     22  H42 UNL     1       9.892  18.522  10.704  1.00  0.00     0.176 HD
ATOM     23  H41 UNL     1      10.715  18.072  12.207  1.00  0.00     0.176 HD
ENDBRANCH  19  21
ENDBRANCH   8  17
ENDBRANCH   5   7
TORSDOF 3
ENDMDL
MODEL 4
REMARK VINA RESULT: -5.590723575      2.495      4.417
REMARK  3 active torsions:
REMARK  status: ('A' for Active; 'I' for Inactive)
REMARK       I    between atoms: N1_2  and  C3_5 
REMARK    1  A    between atoms: C3_5  and  C4_7 
REMARK    2  A    between atoms: C5_8  and  C6_9 
REMARK       I    between atoms: C6_9  and  N3_11 
REMARK    3  A    between atoms: N3_11  and  N4_13 
ROOT
HETATM    1  C1  UNL     1       3.877  19.897  13.176  1.00  0.00     0.172 C 
HETATM    2  N1  UNL     1       4.258  20.694  14.326  1.00  0.00    -0.255 N 
HETATM    3  C2  UNL     1       3.220  21.163  15.138  1.00  0.00     0.186 C 
HETATM    4  N2  UNL     1       2.362  21.546  15.828  1.00  0.00    -0.172 NA
HETATM    5  C3  UNL     1       5.630  20.979  14.602  1.00  0.00     0.274 C 
HETATM    6  O1  UNL     1       5.877  21.682  15.616  1.00  0.00    -0.266 OA
ENDROOT
BRANCH   5   7
HETATM    7  C4  UNL     1       6.714  20.496  13.770  1.00  0.00     0.133 A 
HETATM    8  C5  UNL     1       7.212  21.213  12.703  1.00  0.00     0.127 A 
HETATM    9  N5  UNL     1       8.242  20.713  11.958  1.00  0.00    -0.303 N 
HETATM   10  C7  UNL     1       8.784  19.530  12.243  1.00  0.00     0.327 A 
ATOM     11  H5  UNL     1       8.601  21.253  11.171  1.00  0.00     0.171 HD
HETATM   12  O3  UNL     1       9.742  19.105  11.518  1.00  0.00    -0.247 OA
HETATM   13  N6  UNL     1       8.310  18.821  13.277  1.00  0.00    -0.275 N 
HETATM   14  C8  UNL     1       7.301  19.269  14.038  1.00  0.00     0.267 A 
ATOM     15  H6  UNL     1       8.728  17.915  13.491  1.00  0.00     0.173 HD
HETATM   16  O4  UNL     1       6.907  18.552  14.991  1.00  0.00    -0.267 OA
BRANCH   8  17
HETATM   17  C6  UNL     1       6.633  22.501  12.367  1.00  0.00     0.287 C 
HETATM   18  O2  UNL     1       7.060  23.557  12.902  1.00  0.00    -0.264 OA
HETATM   19  N3  UNL     1       5.574  22.650  11.436  1.00  0.00    -0.271 N 
ATOM     20  H3  UNL     1       5.190  21.827  10.973  1.00  0.00     0.189 HD
BRANCH  19  21
HETATM   21  N4  UNL     1       5.045  23.923  11.143  1.00  0.00    -0.342 N 
ATOM     22  H42 UNL     1       5.447  24.738  11.607  1.00  0.00     0.176 HD
ATOM     23  H41 UNL     1       4.276  24.029  10.482  1.00  0.00     0.176 HD
ENDBRANCH  19  21
ENDBRANCH   8  17
ENDBRANCH   5   7
TORSDOF 3
ENDMDL
MODEL 5
REMARK VINA RESULT: -5.528726594      2.366      2.789
REMARK  3 active torsions:
REMARK  status: ('A' for Active; 'I' for Inactive)
REMARK       I    between atoms: N1_2  and  C3_5 
REMARK    1  A    between atoms: C3_5  and  C4_7 
REMARK    2  A    between atoms: C5_8  and  C6_9 
REMARK       I    between atoms: C6_9  and  N3_11 
REMARK    3  A    between atoms: N3_11  and  N4_13 
ROOT
HETATM    1  C1  UNL     1       5.297  19.525  10.921  1.00  0.00     0.172 C 
HETATM    2  N1  UNL     1       5.722  20.889  11.177  1.00  0.00    -0.255 N 
HETATM    3  C2  UNL     1       4.978  21.904  10.568  1.00  0.00     0.186 C 
HETATM    4  N2  UNL     1       4.354  22.757  10.076  1.00  0.00    -0.172 NA
HETATM    5  C3  UNL     1       6.847  21.164  12.012  1.00  0.00     0.274 C 
HETATM    6  O1  UNL     1       7.155  22.373  12.180  1.00  0.00    -0.266 OA
ENDROOT
BRANCH   5   7
HETATM    7  C4  UNL     1       7.624  20.122  12.651  1.00  0.00     0.133 A 
HETATM    8  C5  UNL     1       7.312  19.614  13.894  1.00  0.00     0.127 A 
HETATM    9  N5  UNL     1       8.075  18.624  14.447  1.00  0.00    -0.303 N 
HETATM   10  C7  UNL     1       9.131  18.131  13.801  1.00  0.00     0.327 A 
ATOM     11  H5  UNL     1       7.832  18.258  15.367  1.00  0.00     0.171 HD
HETATM   12  O3  UNL     1       9.812  17.209  14.357  1.00  0.00    -0.247 OA
HETATM   13  N6  UNL     1       9.447  18.615  12.591  1.00  0.00    -0.275 N 
HETATM   14  C8  UNL     1       8.730  19.586  12.008  1.00  0.00     0.267 A 
ATOM     15  H6  UNL     1      10.257  18.234  12.101  1.00  0.00     0.173 HD
HETATM   16  O4  UNL     1       9.084  19.991  10.873  1.00  0.00    -0.267 OA
BRANCH   8  17
HETATM   17  C6  UNL     1       6.171  20.140  14.622  1.00  0.00     0.287 C 
HETATM   18  O2  UNL     1       6.266  21.206  15.284  1.00  0.00    -0.264 OA
HETATM   19  N3  UNL     1       4.904  19.503  14.633  1.00  0.00    -0.271 N 
ATOM     20  H3  UNL     1       4.771  18.636  14.112  1.00  0.00     0.189 HD
BRANCH  19  21
HETATM   21  N4  UNL     1       3.826  20.053  15.355  1.00  0.00    -0.342 N 
ATOM     22  H42 UNL     1       3.044  19.447  15.603  1.00  0.00     0.176 HD
ATOM     23  H41 UNL     1       3.827  21.036  15.626  1.00  0.00     0.176 HD
ENDBRANCH  19  21
ENDBRANCH   8  17
ENDBRANCH   5   7
TORSDOF 3
ENDMDL
