MODEL 1
REMARK VINA RESULT: -7.043451372      0.000      0.000
REMARK  4 active torsions:
REMARK  status: ('A' for Active; 'I' for Inactive)
REMARK    1  A    between atoms: N1_1  and  C1_5 
REMARK    2  A    between atoms: C1_5  and  C2_6 
REMARK    3  A    between atoms: C2_6  and  N2_7 
REMARK    4  A    between atoms: N2_7  and  C3_9 
ROOT
HETATM    1  C3  UNL     1       9.508  18.432  13.110  1.00  0.00     0.679 A 
HETATM    2  N3  UNL     1       8.513  19.258  13.464  1.00  0.00    -0.184 N 
ATOM      3  H3  UNL     1       8.138  19.353  14.407  1.00  0.00     0.184 HD
HETATM    4  C4  UNL     1       8.083  19.945  12.384  1.00  0.00     0.148 A 
HETATM    5  C5  UNL     1       7.063  20.843  12.558  1.00  0.00     0.279 C 
HETATM    6  O1  UNL     1       6.407  20.624  13.606  1.00  0.00    -0.265 OA
HETATM    7  N4  UNL     1       6.622  21.901  11.847  1.00  0.00    -0.273 N 
ATOM      8  H4  UNL     1       6.145  22.599  12.419  1.00  0.00     0.173 HD
HETATM    9  C6  UNL     1       6.677  22.232  10.548  1.00  0.00     0.330 C 
HETATM   10  O2  UNL     1       5.983  23.265  10.299  1.00  0.00    -0.246 OA
HETATM   11  N5  UNL     1       7.290  21.725   9.456  1.00  0.00    -0.272 N 
ATOM     12  H5  UNL     1       6.999  22.209   8.608  1.00  0.00     0.174 HD
HETATM   13  C7  UNL     1       8.182  20.754   9.187  1.00  0.00     0.302 C 
HETATM   14  O3  UNL     1       8.454  20.623   7.964  1.00  0.00    -0.264 OA
HETATM   15  C8  UNL     1       8.869  19.859   9.986  1.00  0.00     0.269 C 
HETATM   16  O4  UNL     1       9.723  19.177   9.370  1.00  0.00    -0.280 OA
HETATM   17  C9  UNL     1       8.852  19.518  11.318  1.00  0.00     0.137 A 
HETATM   18  N6  UNL     1       9.719  18.590  11.790  1.00  0.00    -0.185 N 
ATOM     19  H6  UNL     1      10.416  18.093  11.236  1.00  0.00     0.184 HD
ENDROOT
BRANCH   1  20
HETATM   20  N2  UNL     1      10.128  17.644  13.910  1.00  0.00    -0.224 N 
ATOM     21  H2  UNL     1      11.146  17.580  13.876  1.00  0.00     0.177 HD
BRANCH  20  22
HETATM   22  C2  UNL     1       9.386  16.848  14.861  1.00  0.00     0.165 C 
BRANCH  22  23
HETATM   23  C1  UNL     1      10.139  16.664  16.163  1.00  0.00     0.249 C 
BRANCH  23  24
HETATM   24  N1  UNL     1      11.249  17.599  16.154  1.00  0.00    -0.078 N 
ATOM     25  H13 UNL     1      11.948  17.383  15.442  1.00  0.00     0.274 HD
ATOM     26  H12 UNL     1      10.991  18.523  15.808  1.00  0.00     0.274 HD
ATOM     27  H11 UNL     1      11.634  17.620  17.098  1.00  0.00     0.274 HD
ENDBRANCH  23  24
ENDBRANCH  22  23
ENDBRANCH  20  22
ENDBRANCH   1  20
TORSDOF 4
ENDMDL
MODEL 2
REMARK VINA RESULT: -7.004832160      0.861      2.899
REMARK  4 active torsions:
REMARK  status: ('A' for Active; 'I' for Inactive)
REMARK    1  A    between atoms: N1_1  and  C1_5 
REMARK    2  A    between atoms: C1_5  and  C2_6 
REMARK    3  A    between atoms: C2_6  and  N2_7 
REMARK    4  A    between atoms: N2_7  and  C3_9 
ROOT
HETATM    1  C3  UNL     1       9.478  18.375  13.082  1.00  0.00     0.679 A 
HETATM    2  N3  UNL     1       9.720  18.509  11.771  1.00  0.00    -0.184 N 
ATOM      3  H3  UNL     1      10.370  17.937  11.233  1.00  0.00     0.184 HD
HETATM    4  C4  UNL     1       8.972  19.515  11.267  1.00  0.00     0.148 A 
HETATM    5  C5  UNL     1       9.089  19.797   9.932  1.00  0.00     0.279 C 
HETATM    6  O1  UNL     1      10.153  19.347   9.439  1.00  0.00    -0.265 OA
HETATM    7  N4  UNL     1       8.308  20.448   9.046  1.00  0.00    -0.273 N 
ATOM      8  H4  UNL     1       8.445  20.136   8.084  1.00  0.00     0.173 HD
HETATM    9  C6  UNL     1       7.389  21.419   9.160  1.00  0.00     0.330 C 
HETATM   10  O2  UNL     1       7.011  21.840   8.024  1.00  0.00    -0.246 OA
HETATM   11  N5  UNL     1       6.781  22.046  10.191  1.00  0.00    -0.272 N 
ATOM     12  H5  UNL     1       6.202  22.820   9.866  1.00  0.00     0.174 HD
HETATM   13  C7  UNL     1       6.735  21.925  11.530  1.00  0.00     0.302 C 
HETATM   14  O3  UNL     1       6.020  22.789  12.105  1.00  0.00    -0.264 OA
HETATM   15  C8  UNL     1       7.318  21.039  12.416  1.00  0.00     0.269 C 
HETATM   16  O4  UNL     1       6.930  21.173  13.601  1.00  0.00    -0.280 OA
HETATM   17  C9  UNL     1       8.238  20.021  12.324  1.00  0.00     0.137 A 
HETATM   18  N6  UNL     1       8.567  19.305  13.426  1.00  0.00    -0.185 N 
ATOM     19  H6  UNL     1       8.186  19.447  14.361  1.00  0.00     0.184 HD
ENDROOT
BRANCH   1  20
HETATM   20  N2  UNL     1      10.033  17.507  13.846  1.00  0.00    -0.224 N 
ATOM     21  H2  UNL     1      11.031  17.316  13.760  1.00  0.00     0.177 HD
BRANCH  20  22
HETATM   22  C2  UNL     1       9.244  16.799  14.829  1.00  0.00     0.165 C 
BRANCH  22  23
HETATM   23  C1  UNL     1       9.971  16.661  16.153  1.00  0.00     0.249 C 
BRANCH  23  24
HETATM   24  N1  UNL     1      11.127  17.538  16.102  1.00  0.00    -0.078 N 
ATOM     25  H13 UNL     1      11.486  17.672  15.156  1.00  0.00     0.274 HD
ATOM     26  H12 UNL     1      10.898  18.513  16.294  1.00  0.00     0.274 HD
ATOM     27  H11 UNL     1      11.822  17.158  16.742  1.00  0.00     0.274 HD
ENDBRANCH  23  24
ENDBRANCH  22  23
ENDBRANCH  20  22
ENDBRANCH   1  20
TORSDOF 4
ENDMDL
MODEL 3
REMARK VINA RESULT: -6.751480923      0.704      1.055
REMARK  4 active torsions:
REMARK  status: ('A' for Active; 'I' for Inactive)
REMARK    1  A    between atoms: N1_1  and  C1_5 
REMARK    2  A    between atoms: C1_5  and  C2_6 
REMARK    3  A    between atoms: C2_6  and  N2_7 
REMARK    4  A    between atoms: N2_7  and  C3_9 
ROOT
HETATM    1  C3  UNL     1       9.522  18.441  13.250  1.00  0.00     0.679 A 
HETATM    2  N3  UNL     1       8.533  19.264  13.628  1.00  0.00    -0.184 N 
ATOM      3  H3  UNL     1       8.178  19.355  14.579  1.00  0.00     0.184 HD
HETATM    4  C4  UNL     1       8.077  19.953  12.559  1.00  0.00     0.148 A 
HETATM    5  C5  UNL     1       7.059  20.847  12.758  1.00  0.00     0.279 C 
HETATM    6  O1  UNL     1       6.427  20.625  13.820  1.00  0.00    -0.265 OA
HETATM    7  N4  UNL     1       6.600  21.906  12.059  1.00  0.00    -0.273 N 
ATOM      8  H4  UNL     1       6.134  22.601  12.643  1.00  0.00     0.173 HD
HETATM    9  C6  UNL     1       6.626  22.239  10.760  1.00  0.00     0.330 C 
HETATM   10  O2  UNL     1       5.925  23.272  10.528  1.00  0.00    -0.246 OA
HETATM   11  N5  UNL     1       7.217  21.737   9.654  1.00  0.00    -0.272 N 
ATOM     12  H5  UNL     1       6.906  22.222   8.813  1.00  0.00     0.174 HD
HETATM   13  C7  UNL     1       8.105  20.768   9.363  1.00  0.00     0.302 C 
HETATM   14  O3  UNL     1       8.351  20.642   8.134  1.00  0.00    -0.264 OA
HETATM   15  C8  UNL     1       8.811  19.873  10.145  1.00  0.00     0.269 C 
HETATM   16  O4  UNL     1       9.654  19.196   9.509  1.00  0.00    -0.280 OA
HETATM   17  C9  UNL     1       8.824  19.529  11.476  1.00  0.00     0.137 A 
HETATM   18  N6  UNL     1       9.703  18.603  11.926  1.00  0.00    -0.185 N 
ATOM     19  H6  UNL     1      10.389  18.108  11.356  1.00  0.00     0.184 HD
ENDROOT
BRANCH   1  20
HETATM   20  N2  UNL     1      10.161  17.653  14.035  1.00  0.00    -0.224 N 
ATOM     21  H2  UNL     1      11.165  17.520  13.916  1.00  0.00     0.177 HD
BRANCH  20  22
HETATM   22  C2  UNL     1       9.459  16.955  15.088  1.00  0.00     0.165 C 
BRANCH  22  23
HETATM   23  C1  UNL     1       8.755  15.712  14.577  1.00  0.00     0.249 C 
BRANCH  23  24
HETATM   24  N1  UNL     1       9.670  15.042  13.670  1.00  0.00    -0.078 N 
ATOM     25  H13 UNL     1      10.362  14.469  14.153  1.00  0.00     0.274 HD
ATOM     26  H12 UNL     1       9.228  14.293  13.138  1.00  0.00     0.274 HD
ATOM     27  H11 UNL     1      10.088  15.760  13.079  1.00  0.00     0.274 HD
ENDBRANCH  23  24
ENDBRANCH  22  23
ENDBRANCH  20  22
ENDBRANCH   1  20
TORSDOF 4
ENDMDL
MODEL 4
REMARK VINA RESULT: -6.717840517      1.719      3.529
REMARK  4 active torsions:
REMARK  status: ('A' for Active; 'I' for Inactive)
REMARK    1  A    between atoms: N1_1  and  C1_5 
REMARK    2  A    between atoms: C1_5  and  C2_6 
REMARK    3  A    between atoms: C2_6  and  N2_7 
REMARK    4  A    between atoms: N2_7  and  C3_9 
ROOT
HETATM    1  C3  UNL     1       7.583  18.939  14.103  1.00  0.00     0.679 A 
HETATM    2  N3  UNL     1       7.872  19.170  12.815  1.00  0.00    -0.184 N 
ATOM      3  H3  UNL     1       8.358  18.520  12.198  1.00  0.00     0.184 HD
HETATM    4  C4  UNL     1       7.421  20.392  12.456  1.00  0.00     0.148 A 
HETATM    5  C5  UNL     1       7.629  20.800  11.165  1.00  0.00     0.279 C 
HETATM    6  O1  UNL     1       8.545  20.154  10.600  1.00  0.00    -0.265 OA
HETATM    7  N4  UNL     1       7.059  21.740  10.383  1.00  0.00    -0.273 N 
ATOM      8  H4  UNL     1       7.124  21.527   9.387  1.00  0.00     0.173 HD
HETATM    9  C6  UNL     1       6.425  22.894  10.635  1.00  0.00     0.330 C 
HETATM   10  O2  UNL     1       6.188  23.540   9.568  1.00  0.00    -0.246 OA
HETATM   11  N5  UNL     1       5.987  23.523  11.748  1.00  0.00    -0.272 N 
ATOM     12  H5  UNL     1       5.635  24.456  11.534  1.00  0.00     0.174 HD
HETATM   13  C7  UNL     1       5.890  23.250  13.062  1.00  0.00     0.302 C 
HETATM   14  O3  UNL     1       5.416  24.191  13.754  1.00  0.00    -0.264 OA
HETATM   15  C8  UNL     1       6.206  22.137  13.818  1.00  0.00     0.269 C 
HETATM   16  O4  UNL     1       5.849  22.217  15.017  1.00  0.00    -0.280 OA
HETATM   17  C9  UNL     1       6.830  20.934  13.582  1.00  0.00     0.137 A 
HETATM   18  N6  UNL     1       6.942  20.024  14.578  1.00  0.00    -0.185 N 
ATOM     19  H6  UNL     1       6.598  20.140  15.531  1.00  0.00     0.184 HD
ENDROOT
BRANCH   1  20
HETATM   20  N2  UNL     1       7.880  17.867  14.741  1.00  0.00    -0.224 N 
ATOM     21  H2  UNL     1       7.233  17.491  15.436  1.00  0.00     0.177 HD
BRANCH  20  22
HETATM   22  C2  UNL     1       9.129  17.190  14.477  1.00  0.00     0.165 C 
BRANCH  22  23
HETATM   23  C1  UNL     1       9.816  16.740  15.752  1.00  0.00     0.249 C 
BRANCH  23  24
HETATM   24  N1  UNL     1      11.006  17.556  15.910  1.00  0.00    -0.078 N 
ATOM     25  H13 UNL     1      11.835  17.139  15.485  1.00  0.00     0.274 HD
ATOM     26  H12 UNL     1      10.985  18.407  15.349  1.00  0.00     0.274 HD
ATOM     27  H11 UNL     1      11.117  17.737  16.907  1.00  0.00     0.274 HD
ENDBRANCH  23  24
ENDBRANCH  22  23
ENDBRANCH  20  22
ENDBRANCH   1  20
TORSDOF 4
ENDMDL
MODEL 5
REMARK VINA RESULT: -6.699197971      4.456      6.990
REMARK  4 active torsions:
REMARK  status: ('A' for Active; 'I' for Inactive)
REMARK    1  A    between atoms: N1_1  and  C1_5 
REMARK    2  A    between atoms: C1_5  and  C2_6 
REMARK    3  A    between atoms: C2_6  and  N2_7 
REMARK    4  A    between atoms: N2_7  and  C3_9 
ROOT
HETATM    1  C3  UNL     1       7.678  18.369  14.343  1.00  0.00     0.679 A 
HETATM    2  N3  UNL     1       6.504  18.395  14.992  1.00  0.00    -0.184 N 
ATOM      3  H3  UNL     1       5.925  19.224  15.121  1.00  0.00     0.184 HD
HETATM    4  C4  UNL     1       6.205  17.159  15.447  1.00  0.00     0.148 A 
HETATM    5  C5  UNL     1       5.034  16.995  16.138  1.00  0.00     0.279 C 
HETATM    6  O1  UNL     1       4.590  18.079  16.591  1.00  0.00    -0.265 OA
HETATM    7  N4  UNL     1       4.267  15.924  16.428  1.00  0.00    -0.273 N 
ATOM      8  H4  UNL     1       3.285  16.162  16.576  1.00  0.00     0.173 HD
HETATM    9  C6  UNL     1       4.519  14.614  16.565  1.00  0.00     0.330 C 
HETATM   10  O2  UNL     1       3.506  13.986  17.003  1.00  0.00    -0.246 OA
HETATM   11  N5  UNL     1       5.588  13.817  16.350  1.00  0.00    -0.272 N 
ATOM     12  H5  UNL     1       5.417  12.867  16.678  1.00  0.00     0.174 HD
HETATM   13  C7  UNL     1       6.819  13.940  15.818  1.00  0.00     0.302 C 
HETATM   14  O3  UNL     1       7.507  12.885  15.855  1.00  0.00    -0.264 OA
HETATM   15  C8  UNL     1       7.491  14.997  15.235  1.00  0.00     0.269 C 
HETATM   16  O4  UNL     1       8.599  14.684  14.737  1.00  0.00    -0.280 OA
HETATM   17  C9  UNL     1       7.247  16.339  15.058  1.00  0.00     0.137 A 
HETATM   18  N6  UNL     1       8.137  17.104  14.383  1.00  0.00    -0.185 N 
ATOM     19  H6  UNL     1       9.011  16.777  13.972  1.00  0.00     0.184 HD
ENDROOT
BRANCH   1  20
HETATM   20  N2  UNL     1       8.236  19.385  13.795  1.00  0.00    -0.224 N 
ATOM     21  H2  UNL     1       8.998  19.868  14.272  1.00  0.00     0.177 HD
BRANCH  20  22
HETATM   22  C2  UNL     1       7.786  19.847  12.501  1.00  0.00     0.165 C 
BRANCH  22  23
HETATM   23  C1  UNL     1       8.852  19.689  11.435  1.00  0.00     0.249 C 
BRANCH  23  24
HETATM   24  N1  UNL     1      10.007  19.080  12.070  1.00  0.00    -0.078 N 
ATOM     25  H13 UNL     1      10.270  19.537  12.944  1.00  0.00     0.274 HD
ATOM     26  H12 UNL     1       9.810  18.158  12.459  1.00  0.00     0.274 HD
ATOM     27  H11 UNL     1      10.760  19.071  11.383  1.00  0.00     0.274 HD
ENDBRANCH  23  24
ENDBRANCH  22  23
ENDBRANCH  20  22
ENDBRANCH   1  20
TORSDOF 4
ENDMDL
