MODEL 1
REMARK VINA RESULT: -6.459525792      0.000      0.000
REMARK  3 active torsions:
REMARK  status: ('A' for Active; 'I' for Inactive)
REMARK    1  A    between atoms: C2_2  and  N1_4 
REMARK    2  A    between atoms: C2_2  and  S1_8 
REMARK    3  A    between atoms: S1_8  and  N2_11 
ROOT
HETATM    1  N2  UNL     1       6.613  17.724  14.285  1.00  0.00    -0.264 N 
ATOM      2  H2  UNL     1       5.720  17.250  14.149  1.00  0.00     0.180 HD
HETATM    3  C4  UNL     1       7.608  17.121  14.864  1.00  0.00     0.186 A 
HETATM    4  N3  UNL     1       8.864  17.744  15.070  1.00  0.00    -0.172 N 
ATOM      5  H3  UNL     1       9.014  18.704  14.759  1.00  0.00     0.186 HD
HETATM    6  C5  UNL     1       9.912  17.034  15.708  1.00  0.00     0.680 A 
HETATM    7  N4  UNL     1      11.082  17.574  15.915  1.00  0.00    -0.234 N 
ATOM      8  H41 UNL     1      11.837  17.062  16.374  1.00  0.00     0.174 HD
ATOM      9  H42 UNL     1      11.260  18.532  15.616  1.00  0.00     0.174 HD
HETATM   10  N5  UNL     1       9.665  15.698  16.125  1.00  0.00    -0.153 N 
ATOM     11  H5  UNL     1      10.422  15.190  16.582  1.00  0.00     0.187 HD
HETATM   12  C6  UNL     1       8.421  15.026  15.941  1.00  0.00     0.313 A 
HETATM   13  O3  UNL     1       8.225  13.839  16.320  1.00  0.00    -0.263 OA
HETATM   14  C7  UNL     1       7.335  15.744  15.287  1.00  0.00     0.284 A 
HETATM   15  O4  UNL     1       6.216  15.211  15.094  1.00  0.00    -0.278 OA
ENDROOT
BRANCH   1  16
HETATM   16  S1  UNL     1       6.843  19.345  13.755  1.00  0.00     0.266 S 
HETATM   17  O1  UNL     1       8.132  19.487  12.996  1.00  0.00    -0.203 OA
HETATM   18  O2  UNL     1       6.733  20.305  14.898  1.00  0.00    -0.203 OA
BRANCH  16  19
HETATM   19  C2  UNL     1       5.539  19.752  12.612  1.00  0.00     0.236 C 
HETATM   20  C1  UNL     1       6.087  19.705  11.221  1.00  0.00     0.065 C 
HETATM   21  C3  UNL     1       4.431  18.724  12.835  1.00  0.00     0.065 C 
BRANCH  19  22
HETATM   22  N1  UNL     1       5.004  21.038  12.968  1.00  0.00    -0.055 N 
ATOM     23  H13 UNL     1       5.091  21.694  12.192  1.00  0.00     0.276 HD
ATOM     24  H12 UNL     1       3.988  21.001  13.043  1.00  0.00     0.276 HD
ATOM     25  H11 UNL     1       5.417  21.424  13.817  1.00  0.00     0.276 HD
ENDBRANCH  19  22
ENDBRANCH  16  19
ENDBRANCH   1  16
TORSDOF 3
ENDMDL
MODEL 2
REMARK VINA RESULT: -6.361342837      2.573      5.437
REMARK  3 active torsions:
REMARK  status: ('A' for Active; 'I' for Inactive)
REMARK    1  A    between atoms: C2_2  and  N1_4 
REMARK    2  A    between atoms: C2_2  and  S1_8 
REMARK    3  A    between atoms: S1_8  and  N2_11 
ROOT
HETATM    1  N2  UNL     1       6.682  16.136  15.590  1.00  0.00    -0.264 N 
ATOM      2  H2  UNL     1       5.781  16.166  16.066  1.00  0.00     0.180 HD
HETATM    3  C4  UNL     1       7.144  17.179  14.965  1.00  0.00     0.186 A 
HETATM    4  N3  UNL     1       8.391  17.177  14.294  1.00  0.00    -0.172 N 
ATOM      5  H3  UNL     1       8.966  16.335  14.287  1.00  0.00     0.186 HD
HETATM    6  C5  UNL     1       8.841  18.346  13.631  1.00  0.00     0.680 A 
HETATM    7  N4  UNL     1       9.984  18.385  13.001  1.00  0.00    -0.234 N 
ATOM      8  H41 UNL     1      10.308  19.227  12.524  1.00  0.00     0.174 HD
ATOM      9  H42 UNL     1      10.578  17.556  12.977  1.00  0.00     0.174 HD
HETATM   10  N5  UNL     1       8.013  19.501  13.664  1.00  0.00    -0.153 N 
ATOM     11  H5  UNL     1       8.341  20.341  13.186  1.00  0.00     0.187 HD
HETATM   12  C6  UNL     1       6.751  19.555  14.325  1.00  0.00     0.313 A 
HETATM   13  O3  UNL     1       6.033  20.591  14.341  1.00  0.00    -0.263 OA
HETATM   14  C7  UNL     1       6.277  18.360  15.010  1.00  0.00     0.284 A 
HETATM   15  O4  UNL     1       5.176  18.340  15.612  1.00  0.00    -0.278 OA
ENDROOT
BRANCH   1  16
HETATM   16  S1  UNL     1       7.634  14.703  15.589  1.00  0.00     0.266 S 
HETATM   17  O1  UNL     1       8.731  14.783  16.614  1.00  0.00    -0.203 OA
HETATM   18  O2  UNL     1       8.144  14.395  14.216  1.00  0.00    -0.203 OA
BRANCH  16  19
HETATM   19  C2  UNL     1       6.595  13.339  16.071  1.00  0.00     0.236 C 
HETATM   20  C1  UNL     1       5.273  13.877  16.520  1.00  0.00     0.065 C 
HETATM   21  C3  UNL     1       6.470  12.436  14.846  1.00  0.00     0.065 C 
BRANCH  19  22
HETATM   22  N1  UNL     1       7.274  12.584  17.089  1.00  0.00    -0.055 N 
ATOM     23  H13 UNL     1       6.758  12.613  17.968  1.00  0.00     0.276 HD
ATOM     24  H12 UNL     1       7.220  11.584  16.896  1.00  0.00     0.276 HD
ATOM     25  H11 UNL     1       8.242  12.875  17.227  1.00  0.00     0.276 HD
ENDBRANCH  19  22
ENDBRANCH  16  19
ENDBRANCH   1  16
TORSDOF 3
ENDMDL
MODEL 3
REMARK VINA RESULT: -6.319692182      1.768      1.874
REMARK  3 active torsions:
REMARK  status: ('A' for Active; 'I' for Inactive)
REMARK    1  A    between atoms: C2_2  and  N1_4 
REMARK    2  A    between atoms: C2_2  and  S1_8 
REMARK    3  A    between atoms: S1_8  and  N2_11 
ROOT
HETATM    1  N2  UNL     1       5.835  17.837  15.157  1.00  0.00    -0.264 N 
ATOM      2  H2  UNL     1       5.098  17.418  15.725  1.00  0.00     0.180 HD
HETATM    3  C4  UNL     1       6.991  17.256  15.027  1.00  0.00     0.186 A 
HETATM    4  N3  UNL     1       8.037  17.805  14.246  1.00  0.00    -0.172 N 
ATOM      5  H3  UNL     1       7.900  18.690  13.758  1.00  0.00     0.186 HD
HETATM    6  C5  UNL     1       9.277  17.125  14.142  1.00  0.00     0.680 A 
HETATM    7  N4  UNL     1      10.265  17.598  13.433  1.00  0.00    -0.234 N 
ATOM      8  H41 UNL     1      11.157  17.107  13.358  1.00  0.00     0.174 HD
ATOM      9  H42 UNL     1      10.155  18.481  12.936  1.00  0.00     0.174 HD
HETATM   10  N5  UNL     1       9.430  15.893  14.835  1.00  0.00    -0.153 N 
ATOM     11  H5  UNL     1      10.323  15.406  14.757  1.00  0.00     0.187 HD
HETATM   12  C6  UNL     1       8.408  15.299  15.633  1.00  0.00     0.313 A 
HETATM   13  O3  UNL     1       8.567  14.204  16.239  1.00  0.00    -0.263 OA
HETATM   14  C7  UNL     1       7.130  15.988  15.749  1.00  0.00     0.284 A 
HETATM   15  O4  UNL     1       6.190  15.519  16.434  1.00  0.00    -0.278 OA
ENDROOT
BRANCH   1  16
HETATM   16  S1  UNL     1       5.581  19.332  14.345  1.00  0.00     0.266 S 
HETATM   17  O1  UNL     1       5.757  19.177  12.860  1.00  0.00    -0.203 OA
HETATM   18  O2  UNL     1       6.443  20.411  14.922  1.00  0.00    -0.203 OA
BRANCH  16  19
HETATM   19  C2  UNL     1       3.890  19.830  14.601  1.00  0.00     0.236 C 
HETATM   20  C1  UNL     1       3.193  19.863  13.278  1.00  0.00     0.065 C 
HETATM   21  C3  UNL     1       3.278  18.808  15.556  1.00  0.00     0.065 C 
BRANCH  19  22
HETATM   22  N1  UNL     1       3.885  21.100  15.276  1.00  0.00    -0.055 N 
ATOM     23  H13 UNL     1       3.995  20.976  16.282  1.00  0.00     0.276 HD
ATOM     24  H12 UNL     1       4.739  21.620  15.076  1.00  0.00     0.276 HD
ATOM     25  H11 UNL     1       3.060  21.662  15.068  1.00  0.00     0.276 HD
ENDBRANCH  19  22
ENDBRANCH  16  19
ENDBRANCH   1  16
TORSDOF 3
ENDMDL
MODEL 4
REMARK VINA RESULT: -6.147886272      3.482      5.470
REMARK  3 active torsions:
REMARK  status: ('A' for Active; 'I' for Inactive)
REMARK    1  A    between atoms: C2_2  and  N1_4 
REMARK    2  A    between atoms: C2_2  and  S1_8 
REMARK    3  A    between atoms: S1_8  and  N2_11 
ROOT
HETATM    1  N2  UNL     1       6.607  15.840  15.717  1.00  0.00    -0.264 N 
ATOM      2  H2  UNL     1       6.355  16.828  15.770  1.00  0.00     0.180 HD
HETATM    3  C4  UNL     1       5.709  14.912  15.870  1.00  0.00     0.186 A 
HETATM    4  N3  UNL     1       6.018  13.532  15.801  1.00  0.00    -0.172 N 
ATOM      5  H3  UNL     1       6.976  13.232  15.625  1.00  0.00     0.186 HD
HETATM    6  C5  UNL     1       4.994  12.567  15.976  1.00  0.00     0.680 A 
HETATM    7  N4  UNL     1       5.239  11.286  15.920  1.00  0.00    -0.234 N 
ATOM      8  H41 UNL     1       4.502  10.591  16.045  1.00  0.00     0.174 HD
ATOM      9  H42 UNL     1       6.189  10.957  15.747  1.00  0.00     0.174 HD
HETATM   10  N5  UNL     1       3.670  13.024  16.217  1.00  0.00    -0.153 N 
ATOM     11  H5  UNL     1       2.936  12.326  16.341  1.00  0.00     0.187 HD
HETATM   12  C6  UNL     1       3.307  14.401  16.295  1.00  0.00     0.313 A 
HETATM   13  O3  UNL     1       2.125  14.783  16.510  1.00  0.00    -0.263 OA
HETATM   14  C7  UNL     1       4.349  15.403  16.117  1.00  0.00     0.284 A 
HETATM   15  O4  UNL     1       4.098  16.631  16.173  1.00  0.00    -0.278 OA
ENDROOT
BRANCH   1  16
HETATM   16  S1  UNL     1       8.231  15.357  15.422  1.00  0.00     0.266 S 
HETATM   17  O1  UNL     1       8.303  14.364  14.295  1.00  0.00    -0.203 OA
HETATM   18  O2  UNL     1       8.881  14.861  16.676  1.00  0.00    -0.203 OA
BRANCH  16  19
HETATM   19  C2  UNL     1       9.155  16.786  14.893  1.00  0.00     0.236 C 
HETATM   20  C1  UNL     1       8.201  17.913  14.655  1.00  0.00     0.065 C 
HETATM   21  C3  UNL     1      10.152  17.093  16.008  1.00  0.00     0.065 C 
BRANCH  19  22
HETATM   22  N1  UNL     1       9.916  16.431  13.726  1.00  0.00    -0.055 N 
ATOM     23  H13 UNL     1       9.629  16.989  12.922  1.00  0.00     0.276 HD
ATOM     24  H12 UNL     1      10.882  16.748  13.814  1.00  0.00     0.276 HD
ATOM     25  H11 UNL     1       9.879  15.435  13.509  1.00  0.00     0.276 HD
ENDBRANCH  19  22
ENDBRANCH  16  19
ENDBRANCH   1  16
TORSDOF 3
ENDMDL
MODEL 5
REMARK VINA RESULT: -6.137955562      2.317      2.893
REMARK  3 active torsions:
REMARK  status: ('A' for Active; 'I' for Inactive)
REMARK    1  A    between atoms: C2_2  and  N1_4 
REMARK    2  A    between atoms: C2_2  and  S1_8 
REMARK    3  A    between atoms: S1_8  and  N2_11 
ROOT
HETATM    1  N2  UNL     1       7.764  19.166  13.730  1.00  0.00    -0.264 N 
ATOM      2  H2  UNL     1       8.630  19.371  13.231  1.00  0.00     0.180 HD
HETATM    3  C4  UNL     1       7.613  18.048  14.376  1.00  0.00     0.186 A 
HETATM    4  N3  UNL     1       6.428  17.728  15.082  1.00  0.00    -0.172 N 
ATOM      5  H3  UNL     1       5.649  18.387  15.098  1.00  0.00     0.186 HD
HETATM    6  C5  UNL     1       6.323  16.492  15.768  1.00  0.00     0.680 A 
HETATM    7  N4  UNL     1       5.248  16.160  16.430  1.00  0.00    -0.234 N 
ATOM      8  H41 UNL     1       5.173  15.270  16.923  1.00  0.00     0.174 HD
ATOM      9  H42 UNL     1       4.454  16.799  16.461  1.00  0.00     0.174 HD
HETATM   10  N5  UNL     1       7.429  15.601  15.724  1.00  0.00    -0.153 N 
ATOM     11  H5  UNL     1       7.350  14.713  16.221  1.00  0.00     0.187 HD
HETATM   12  C6  UNL     1       8.644  15.875  15.029  1.00  0.00     0.313 A 
HETATM   13  O3  UNL     1       9.613  15.069  15.005  1.00  0.00    -0.263 OA
HETATM   14  C7  UNL     1       8.764  17.142  14.320  1.00  0.00     0.284 A 
HETATM   15  O4  UNL     1       9.805  17.446  13.689  1.00  0.00    -0.278 OA
ENDROOT
BRANCH   1  16
HETATM   16  S1  UNL     1       6.463  20.292  13.741  1.00  0.00     0.266 S 
HETATM   17  O1  UNL     1       6.388  21.018  15.054  1.00  0.00    -0.203 OA
HETATM   18  O2  UNL     1       5.174  19.627  13.370  1.00  0.00    -0.203 OA
BRANCH  16  19
HETATM   19  C2  UNL     1       6.781  21.529  12.499  1.00  0.00     0.236 C 
HETATM   20  C1  UNL     1       7.578  20.908  11.396  1.00  0.00     0.065 C 
HETATM   21  C3  UNL     1       5.417  22.024  12.022  1.00  0.00     0.065 C 
BRANCH  19  22
HETATM   22  N1  UNL     1       7.445  22.641  13.121  1.00  0.00    -0.055 N 
ATOM     23  H13 UNL     1       8.249  22.327  13.664  1.00  0.00     0.276 HD
ATOM     24  H12 UNL     1       7.925  23.213  12.426  1.00  0.00     0.276 HD
ATOM     25  H11 UNL     1       6.823  23.212  13.693  1.00  0.00     0.276 HD
ENDBRANCH  19  22
ENDBRANCH  16  19
ENDBRANCH   1  16
TORSDOF 3
ENDMDL
