MODEL 1
REMARK VINA RESULT: -7.553018557      0.000      0.000
REMARK  3 active torsions:
REMARK  status: ('A' for Active; 'I' for Inactive)
REMARK    1  A    between atoms: C2_5  and  C3_6 
REMARK    2  A    between atoms: C4_11  and  C5_12 
REMARK       I    between atoms: C5_12  and  N5_14 
REMARK    3  A    between atoms: N5_14  and  C6_16 
ROOT
HETATM    1  C1  UNL     1       3.883  17.596  15.666  1.00  0.00     0.181 C 
HETATM    2  N1  UNL     1       4.631  16.339  15.732  1.00  0.00    -0.261 N 
HETATM    3  N2  UNL     1       4.168  15.127  15.924  1.00  0.00    -0.292 N 
ATOM      4  H2  UNL     1       3.182  14.898  16.057  1.00  0.00     0.187 HD
HETATM    5  C2  UNL     1       5.185  14.206  15.921  1.00  0.00     0.110 A 
HETATM    6  C4  UNL     1       6.329  14.904  15.717  1.00  0.00     0.133 A 
HETATM    7  C7  UNL     1       5.952  16.270  15.598  1.00  0.00     0.279 A 
HETATM    8  O2  UNL     1       6.748  17.210  15.403  1.00  0.00    -0.265 OA
ENDROOT
BRANCH   6   9
HETATM    9  C5  UNL     1       7.679  14.423  15.628  1.00  0.00     0.278 C 
HETATM   10  O1  UNL     1       8.236  13.644  16.382  1.00  0.00    -0.266 OA
HETATM   11  N5  UNL     1       8.488  14.893  14.543  1.00  0.00    -0.152 N 
ATOM     12  H5  UNL     1       8.420  14.428  13.637  1.00  0.00     0.187 HD
BRANCH  11  13
HETATM   13  C6  UNL     1       9.297  15.885  14.676  1.00  0.00     0.716 A 
HETATM   14  N6  UNL     1       9.956  16.196  15.818  1.00  0.00    -0.115 N 
HETATM   15  N7  UNL     1      10.700  17.268  15.600  1.00  0.00    -0.213 N 
ATOM     16  H6  UNL     1       9.889  15.688  16.700  1.00  0.00     0.207 HD
HETATM   17  N8  UNL     1      10.511  17.622  14.347  1.00  0.00    -0.213 N 
ATOM     18  H7  UNL     1      11.306  17.733  16.275  1.00  0.00     0.210 HD
HETATM   19  N9  UNL     1       9.653  16.790  13.749  1.00  0.00    -0.115 N 
ATOM     20  H8  UNL     1      10.957  18.420  13.896  1.00  0.00     0.210 HD
ATOM     21  H9  UNL     1       9.333  16.833  12.782  1.00  0.00     0.207 HD
ENDBRANCH  11  13
ENDBRANCH   6   9
BRANCH   5  22
HETATM   22  C3  UNL     1       4.923  12.783  16.116  1.00  0.00     0.139 C 
HETATM   23  N3  UNL     1       5.729  11.925  15.514  1.00  0.00    -0.386 N 
ATOM     24  H32 UNL     1       6.467  12.364  14.964  1.00  0.00     0.157 HD
ATOM     25  H31 UNL     1       5.545  10.931  15.650  1.00  0.00     0.157 HD
HETATM   26  N4  UNL     1       3.919  12.187  16.864  1.00  0.00    -0.081 NA
ENDBRANCH   5  22
TORSDOF 3
ENDMDL
MODEL 2
REMARK VINA RESULT: -7.427557105      1.599      3.409
REMARK  3 active torsions:
REMARK  status: ('A' for Active; 'I' for Inactive)
REMARK    1  A    between atoms: C2_5  and  C3_6 
REMARK    2  A    between atoms: C4_11  and  C5_12 
REMARK       I    between atoms: C5_12  and  N5_14 
REMARK    3  A    between atoms: N5_14  and  C6_16 
ROOT
HETATM    1  C1  UNL     1       5.073  12.215  15.428  1.00  0.00     0.181 C 
HETATM    2  N1  UNL     1       5.661  13.554  15.484  1.00  0.00    -0.261 N 
HETATM    3  N2  UNL     1       5.058  14.713  15.355  1.00  0.00    -0.292 N 
ATOM      4  H2  UNL     1       4.058  14.829  15.191  1.00  0.00     0.187 HD
HETATM    5  C2  UNL     1       5.953  15.747  15.470  1.00  0.00     0.110 A 
HETATM    6  C4  UNL     1       7.165  15.179  15.680  1.00  0.00     0.133 A 
HETATM    7  C7  UNL     1       6.957  13.773  15.686  1.00  0.00     0.279 A 
HETATM    8  O2  UNL     1       7.855  12.923  15.854  1.00  0.00    -0.265 OA
ENDROOT
BRANCH   6   9
HETATM    9  C5  UNL     1       8.441  15.812  15.867  1.00  0.00     0.278 C 
HETATM   10  O1  UNL     1       8.930  16.191  16.917  1.00  0.00    -0.266 OA
HETATM   11  N5  UNL     1       9.254  16.037  14.709  1.00  0.00    -0.152 N 
ATOM     12  H5  UNL     1       9.846  15.280  14.365  1.00  0.00     0.187 HD
BRANCH  11  13
HETATM   13  C6  UNL     1       9.260  17.165  14.089  1.00  0.00     0.716 A 
HETATM   14  N6  UNL     1       8.392  18.178  14.322  1.00  0.00    -0.115 N 
HETATM   15  N7  UNL     1       8.685  19.182  13.512  1.00  0.00    -0.213 N 
ATOM     16  H6  UNL     1       7.638  18.169  15.009  1.00  0.00     0.207 HD
HETATM   17  N8  UNL     1       9.715  18.806  12.785  1.00  0.00    -0.213 N 
ATOM     18  H7  UNL     1       8.204  20.079  13.460  1.00  0.00     0.210 HD
HETATM   19  N9  UNL     1      10.094  17.567  13.116  1.00  0.00    -0.115 N 
ATOM     20  H8  UNL     1      10.161  19.378  12.069  1.00  0.00     0.210 HD
ATOM     21  H9  UNL     1      10.864  17.035  12.712  1.00  0.00     0.207 HD
ENDBRANCH  11  13
ENDBRANCH   6   9
BRANCH   5  22
HETATM   22  C3  UNL     1       5.524  17.138  15.362  1.00  0.00     0.139 C 
HETATM   23  N3  UNL     1       5.089  17.730  16.461  1.00  0.00    -0.386 N 
ATOM     24  H32 UNL     1       5.102  17.134  17.288  1.00  0.00     0.157 HD
ATOM     25  H31 UNL     1       4.789  18.702  16.385  1.00  0.00     0.157 HD
HETATM   26  N4  UNL     1       5.507  17.948  14.237  1.00  0.00    -0.081 NA
ENDBRANCH   5  22
TORSDOF 3
ENDMDL
MODEL 3
REMARK VINA RESULT: -7.324177917      1.543      3.036
REMARK  3 active torsions:
REMARK  status: ('A' for Active; 'I' for Inactive)
REMARK    1  A    between atoms: C2_5  and  C3_6 
REMARK    2  A    between atoms: C4_11  and  C5_12 
REMARK       I    between atoms: C5_12  and  N5_14 
REMARK    3  A    between atoms: N5_14  and  C6_16 
ROOT
HETATM    1  C1  UNL     1       2.988  13.352  14.558  1.00  0.00     0.181 C 
HETATM    2  N1  UNL     1       4.215  14.090  14.863  1.00  0.00    -0.261 N 
HETATM    3  N2  UNL     1       4.372  15.385  15.001  1.00  0.00    -0.292 N 
ATOM      4  H2  UNL     1       3.623  16.072  14.907  1.00  0.00     0.187 HD
HETATM    5  C2  UNL     1       5.678  15.694  15.287  1.00  0.00     0.110 A 
HETATM    6  C4  UNL     1       6.348  14.517  15.324  1.00  0.00     0.133 A 
HETATM    7  C7  UNL     1       5.392  13.500  15.050  1.00  0.00     0.279 A 
HETATM    8  O2  UNL     1       5.649  12.280  15.001  1.00  0.00    -0.265 OA
ENDROOT
BRANCH   6   9
HETATM    9  C5  UNL     1       7.740  14.275  15.582  1.00  0.00     0.278 C 
HETATM   10  O1  UNL     1       8.231  13.796  16.588  1.00  0.00    -0.266 OA
HETATM   11  N5  UNL     1       8.681  14.625  14.560  1.00  0.00    -0.152 N 
ATOM     12  H5  UNL     1       8.859  13.964  13.803  1.00  0.00     0.187 HD
BRANCH  11  13
HETATM   13  C6  UNL     1       9.310  15.748  14.568  1.00  0.00     0.716 A 
HETATM   14  N6  UNL     1       9.813  16.343  15.676  1.00  0.00    -0.115 N 
HETATM   15  N7  UNL     1      10.393  17.478  15.322  1.00  0.00    -0.213 N 
ATOM     16  H6  UNL     1       9.755  15.976  16.627  1.00  0.00     0.207 HD
HETATM   17  N8  UNL     1      10.256  17.593  14.019  1.00  0.00    -0.213 N 
ATOM     18  H7  UNL     1      10.859  18.140  15.942  1.00  0.00     0.210 HD
HETATM   19  N9  UNL     1       9.594  16.543  13.523  1.00  0.00    -0.115 N 
ATOM     20  H8  UNL     1      10.606  18.374  13.465  1.00  0.00     0.210 HD
ATOM     21  H9  UNL     1       9.353  16.377  12.546  1.00  0.00     0.207 HD
ENDBRANCH  11  13
ENDBRANCH   6   9
BRANCH   5  22
HETATM   22  C3  UNL     1       6.106  17.076  15.485  1.00  0.00     0.139 C 
HETATM   23  N3  UNL     1       5.436  17.803  16.361  1.00  0.00    -0.386 N 
ATOM     24  H32 UNL     1       4.670  17.306  16.816  1.00  0.00     0.157 HD
ATOM     25  H31 UNL     1       5.735  18.769  16.499  1.00  0.00     0.157 HD
HETATM   26  N4  UNL     1       7.147  17.751  14.865  1.00  0.00    -0.081 NA
ENDBRANCH   5  22
TORSDOF 3
ENDMDL
MODEL 4
REMARK VINA RESULT: -7.202855787      1.576      2.016
REMARK  3 active torsions:
REMARK  status: ('A' for Active; 'I' for Inactive)
REMARK    1  A    between atoms: C2_5  and  C3_6 
REMARK    2  A    between atoms: C4_11  and  C5_12 
REMARK       I    between atoms: C5_12  and  N5_14 
REMARK    3  A    between atoms: N5_14  and  C6_16 
ROOT
HETATM    1  C1  UNL     1       3.329  16.696  15.795  1.00  0.00     0.181 C 
HETATM    2  N1  UNL     1       4.629  16.025  15.794  1.00  0.00    -0.261 N 
HETATM    3  N2  UNL     1       4.879  14.737  15.791  1.00  0.00    -0.292 N 
ATOM      4  H2  UNL     1       4.165  14.009  15.790  1.00  0.00     0.187 HD
HETATM    5  C2  UNL     1       6.231  14.499  15.790  1.00  0.00     0.110 A 
HETATM    6  C4  UNL     1       6.831  15.714  15.793  1.00  0.00     0.133 A 
HETATM    7  C7  UNL     1       5.787  16.679  15.795  1.00  0.00     0.279 A 
HETATM    8  O2  UNL     1       5.963  17.914  15.799  1.00  0.00    -0.265 OA
ENDROOT
BRANCH   6   9
HETATM    9  C5  UNL     1       8.231  16.032  15.794  1.00  0.00     0.278 C 
HETATM   10  O1  UNL     1       8.937  16.255  16.762  1.00  0.00    -0.266 OA
HETATM   11  N5  UNL     1       8.903  16.103  14.530  1.00  0.00    -0.152 N 
ATOM     12  H5  UNL     1       9.250  15.243  14.105  1.00  0.00     0.187 HD
BRANCH  11  13
HETATM   13  C6  UNL     1       9.082  17.220  13.916  1.00  0.00     0.716 A 
HETATM   14  N6  UNL     1       8.180  18.230  13.872  1.00  0.00    -0.115 N 
HETATM   15  N7  UNL     1       8.689  19.221  13.159  1.00  0.00    -0.213 N 
ATOM     16  H6  UNL     1       7.262  18.227  14.316  1.00  0.00     0.207 HD
HETATM   17  N8  UNL     1       9.884  18.841  12.763  1.00  0.00    -0.213 N 
ATOM     18  H7  UNL     1       8.240  20.113  12.954  1.00  0.00     0.210 HD
HETATM   19  N9  UNL     1      10.158  17.612  13.214  1.00  0.00    -0.115 N 
ATOM     20  H8  UNL     1      10.514  19.404  12.193  1.00  0.00     0.210 HD
ATOM     21  H9  UNL     1      11.013  17.079  13.056  1.00  0.00     0.207 HD
ENDBRANCH  11  13
ENDBRANCH   6   9
BRANCH   5  22
HETATM   22  C3  UNL     1       6.763  13.139  15.787  1.00  0.00     0.139 C 
HETATM   23  N3  UNL     1       6.865  12.521  16.951  1.00  0.00    -0.386 N 
ATOM     24  H32 UNL     1       6.552  13.077  17.746  1.00  0.00     0.157 HD
ATOM     25  H31 UNL     1       7.237  11.571  16.949  1.00  0.00     0.157 HD
HETATM   26  N4  UNL     1       7.189  12.384  14.705  1.00  0.00    -0.081 NA
ENDBRANCH   5  22
TORSDOF 3
ENDMDL
MODEL 5
REMARK VINA RESULT: -7.083952598      1.997      4.905
REMARK  3 active torsions:
REMARK  status: ('A' for Active; 'I' for Inactive)
REMARK    1  A    between atoms: C2_5  and  C3_6 
REMARK    2  A    between atoms: C4_11  and  C5_12 
REMARK       I    between atoms: C5_12  and  N5_14 
REMARK    3  A    between atoms: N5_14  and  C6_16 
ROOT
HETATM    1  C1  UNL     1       8.494  19.758  12.504  1.00  0.00     0.181 C 
HETATM    2  N1  UNL     1       8.221  18.713  13.493  1.00  0.00    -0.261 N 
HETATM    3  N2  UNL     1       9.080  17.958  14.137  1.00  0.00    -0.292 N 
ATOM      4  H2  UNL     1      10.093  18.008  14.022  1.00  0.00     0.187 HD
HETATM    5  C2  UNL     1       8.435  17.093  14.984  1.00  0.00     0.110 A 
HETATM    6  C4  UNL     1       7.111  17.339  14.843  1.00  0.00     0.133 A 
HETATM    7  C7  UNL     1       6.994  18.382  13.883  1.00  0.00     0.279 A 
HETATM    8  O2  UNL     1       5.914  18.873  13.497  1.00  0.00    -0.265 OA
ENDROOT
BRANCH   6   9
HETATM    9  C5  UNL     1       5.998  16.712  15.499  1.00  0.00     0.278 C 
HETATM   10  O1  UNL     1       5.388  17.122  16.471  1.00  0.00    -0.266 OA
HETATM   11  N5  UNL     1       5.529  15.463  14.977  1.00  0.00    -0.152 N 
ATOM     12  H5  UNL     1       4.874  15.467  14.196  1.00  0.00     0.187 HD
BRANCH  11  13
HETATM   13  C6  UNL     1       5.910  14.334  15.466  1.00  0.00     0.716 A 
HETATM   14  N6  UNL     1       6.645  13.412  14.799  1.00  0.00    -0.115 N 
HETATM   15  N7  UNL     1       6.855  12.379  15.598  1.00  0.00    -0.213 N 
ATOM     16  H6  UNL     1       6.980  13.500  13.840  1.00  0.00     0.207 HD
HETATM   17  N8  UNL     1       6.264  12.647  16.742  1.00  0.00    -0.213 N 
ATOM     18  H7  UNL     1       7.377  11.534  15.370  1.00  0.00     0.210 HD
HETATM   19  N9  UNL     1       5.673  13.845  16.694  1.00  0.00    -0.115 N 
ATOM     20  H8  UNL     1       6.258  12.028  17.551  1.00  0.00     0.210 HD
ATOM     21  H9  UNL     1       5.147  14.298  17.442  1.00  0.00     0.207 HD
ENDBRANCH  11  13
ENDBRANCH   6   9
BRANCH   5  22
HETATM   22  C3  UNL     1       9.177  16.147  15.813  1.00  0.00     0.139 C 
HETATM   23  N3  UNL     1      10.443  16.424  16.073  1.00  0.00    -0.386 N 
ATOM     24  H32 UNL     1      10.773  17.294  15.654  1.00  0.00     0.157 HD
ATOM     25  H31 UNL     1      10.961  15.763  16.651  1.00  0.00     0.157 HD
HETATM   26  N4  UNL     1       8.727  14.965  16.381  1.00  0.00    -0.081 NA
ENDBRANCH   5  22
TORSDOF 3
ENDMDL
