MODEL 1
REMARK VINA RESULT: -6.379024388      0.000      0.000
REMARK  2 active torsions:
REMARK  status: ('A' for Active; 'I' for Inactive)
REMARK       I    between atoms: N1_2  and  C2_4 
REMARK    1  A    between atoms: C2_4  and  C3_6 
REMARK    2  A    between atoms: C4_7  and  C5_8 
REMARK       I    between atoms: N5_17  and  C8_18 
ROOT
HETATM    1  C3  UNL     1       6.605  16.677  15.089  1.00  0.00     0.134 A 
HETATM    2  C4  UNL     1       6.102  17.954  15.138  1.00  0.00     0.103 A 
HETATM    3  C6  UNL     1       6.870  19.031  14.664  1.00  0.00     0.138 A 
HETATM    4  N3  UNL     1       6.348  20.335  14.718  1.00  0.00    -0.081 NA
HETATM    5  N4  UNL     1       8.081  18.760  14.176  1.00  0.00    -0.295 N 
ATOM      6  H4  UNL     1       8.651  19.531  13.826  1.00  0.00     0.171 HD
HETATM    7  C7  UNL     1       8.578  17.520  14.124  1.00  0.00     0.336 A 
HETATM    8  O3  UNL     1       9.720  17.279  13.663  1.00  0.00    -0.246 OA
HETATM    9  N5  UNL     1       7.852  16.451  14.580  1.00  0.00    -0.211 N 
HETATM   10  C8  UNL     1       8.415  15.154  14.519  1.00  0.00     0.344 C 
HETATM   11  N6  UNL     1       9.745  14.981  13.959  1.00  0.00    -0.039 NA
HETATM   12  O4  UNL     1       7.811  14.156  14.928  1.00  0.00    -0.250 OA
ENDROOT
BRANCH   1  13
HETATM   13  C2  UNL     1       5.840  15.553  15.555  1.00  0.00     0.269 C 
HETATM   14  N1  UNL     1       4.970  14.822  14.709  1.00  0.00    -0.360 N 
HETATM   15  C1  UNL     1       4.203  13.690  15.184  1.00  0.00     0.149 C 
ATOM     16  H1  UNL     1       4.881  15.103  13.732  1.00  0.00     0.162 HD
HETATM   17  O1  UNL     1       5.938  15.197  16.749  1.00  0.00    -0.266 OA
ENDBRANCH   1  13
BRANCH   2  18
HETATM   18  C5  UNL     1       4.819  18.267  15.659  1.00  0.00     0.270 C 
HETATM   19  N2  UNL     1       3.633  18.329  14.929  1.00  0.00    -0.057 NA
HETATM   20  O2  UNL     1       4.691  18.525  16.915  1.00  0.00    -0.271 OA
ENDBRANCH   2  18
TORSDOF 2
ENDMDL
MODEL 2
REMARK VINA RESULT: -6.189246517      1.009      1.009
REMARK  2 active torsions:
REMARK  status: ('A' for Active; 'I' for Inactive)
REMARK       I    between atoms: N1_2  and  C2_4 
REMARK    1  A    between atoms: C2_4  and  C3_6 
REMARK    2  A    between atoms: C4_7  and  C5_8 
REMARK       I    between atoms: N5_17  and  C8_18 
ROOT
HETATM    1  C3  UNL     1       6.268  16.887  14.998  1.00  0.00     0.134 A 
HETATM    2  C4  UNL     1       5.875  18.202  14.963  1.00  0.00     0.103 A 
HETATM    3  C6  UNL     1       6.801  19.205  14.628  1.00  0.00     0.138 A 
HETATM    4  N3  UNL     1       6.390  20.549  14.595  1.00  0.00    -0.081 NA
HETATM    5  N4  UNL     1       8.049  18.826  14.352  1.00  0.00    -0.295 N 
ATOM      6  H4  UNL     1       8.733  19.542  14.106  1.00  0.00     0.171 HD
HETATM    7  C7  UNL     1       8.441  17.548  14.384  1.00  0.00     0.336 A 
HETATM    8  O3  UNL     1       9.619  17.206  14.123  1.00  0.00    -0.246 OA
HETATM    9  N5  UNL     1       7.559  16.550  14.707  1.00  0.00    -0.211 N 
HETATM   10  C8  UNL     1       8.011  15.209  14.741  1.00  0.00     0.344 C 
HETATM   11  N6  UNL     1       9.398  14.919  14.414  1.00  0.00    -0.039 NA
HETATM   12  O4  UNL     1       7.264  14.272  15.039  1.00  0.00    -0.250 OA
ENDROOT
BRANCH   1  13
HETATM   13  C2  UNL     1       5.342  15.837  15.325  1.00  0.00     0.269 C 
HETATM   14  N1  UNL     1       5.215  15.316  16.636  1.00  0.00    -0.360 N 
HETATM   15  C1  UNL     1       4.279  14.260  16.959  1.00  0.00     0.149 C 
ATOM     16  H1  UNL     1       5.803  15.699  17.377  1.00  0.00     0.162 HD
HETATM   17  O1  UNL     1       4.615  15.359  14.427  1.00  0.00    -0.266 OA
ENDBRANCH   1  13
BRANCH   2  18
HETATM   18  C5  UNL     1       4.553  18.629  15.259  1.00  0.00     0.270 C 
HETATM   19  N2  UNL     1       3.545  18.873  14.327  1.00  0.00    -0.057 NA
HETATM   20  O2  UNL     1       4.209  18.821  16.486  1.00  0.00    -0.271 OA
ENDBRANCH   2  18
TORSDOF 2
ENDMDL
MODEL 3
REMARK VINA RESULT: -6.178108027      1.965      2.664
REMARK  2 active torsions:
REMARK  status: ('A' for Active; 'I' for Inactive)
REMARK       I    between atoms: N1_2  and  C2_4 
REMARK    1  A    between atoms: C2_4  and  C3_6 
REMARK    2  A    between atoms: C4_7  and  C5_8 
REMARK       I    between atoms: N5_17  and  C8_18 
ROOT
HETATM    1  C3  UNL     1       6.437  17.891  14.695  1.00  0.00     0.134 A 
HETATM    2  C4  UNL     1       6.657  18.957  13.858  1.00  0.00     0.103 A 
HETATM    3  C6  UNL     1       7.952  19.218  13.377  1.00  0.00     0.138 A 
HETATM    4  N3  UNL     1       8.168  20.312  12.521  1.00  0.00    -0.081 NA
HETATM    5  N4  UNL     1       8.931  18.400  13.762  1.00  0.00    -0.295 N 
ATOM      6  H4  UNL     1       9.877  18.575  13.421  1.00  0.00     0.171 HD
HETATM    7  C7  UNL     1       8.726  17.359  14.577  1.00  0.00     0.336 A 
HETATM    8  O3  UNL     1       9.657  16.597  14.932  1.00  0.00    -0.246 OA
HETATM    9  N5  UNL     1       7.475  17.081  15.061  1.00  0.00    -0.211 N 
HETATM   10  C8  UNL     1       7.296  15.978  15.929  1.00  0.00     0.344 C 
HETATM   11  N6  UNL     1       8.442  15.152  16.274  1.00  0.00    -0.039 NA
HETATM   12  O4  UNL     1       6.194  15.689  16.407  1.00  0.00    -0.250 OA
ENDROOT
BRANCH   1  13
HETATM   13  C2  UNL     1       5.123  17.590  15.194  1.00  0.00     0.269 C 
HETATM   14  N1  UNL     1       4.651  18.079  16.437  1.00  0.00    -0.360 N 
HETATM   15  C1  UNL     1       3.327  17.775  16.934  1.00  0.00     0.149 C 
ATOM     16  H1  UNL     1       5.266  18.667  17.001  1.00  0.00     0.162 HD
HETATM   17  O1  UNL     1       4.358  16.872  14.515  1.00  0.00    -0.266 OA
ENDBRANCH   1  13
BRANCH   2  18
HETATM   18  C5  UNL     1       5.631  19.845  13.440  1.00  0.00     0.270 C 
HETATM   19  N2  UNL     1       5.234  21.006  14.102  1.00  0.00    -0.057 NA
HETATM   20  O2  UNL     1       4.979  19.594  12.357  1.00  0.00    -0.271 OA
ENDBRANCH   2  18
TORSDOF 2
ENDMDL
MODEL 4
REMARK VINA RESULT: -6.063566626      1.714      4.033
REMARK  2 active torsions:
REMARK  status: ('A' for Active; 'I' for Inactive)
REMARK       I    between atoms: N1_2  and  C2_4 
REMARK    1  A    between atoms: C2_4  and  C3_6 
REMARK    2  A    between atoms: C4_7  and  C5_8 
REMARK       I    between atoms: N5_17  and  C8_18 
ROOT
HETATM    1  C3  UNL     1       6.331  16.670  15.167  1.00  0.00     0.134 A 
HETATM    2  C4  UNL     1       7.663  16.389  14.985  1.00  0.00     0.103 A 
HETATM    3  C6  UNL     1       8.570  17.426  14.711  1.00  0.00     0.138 A 
HETATM    4  N3  UNL     1       9.932  17.129  14.525  1.00  0.00    -0.081 NA
HETATM    5  N4  UNL     1       8.087  18.667  14.639  1.00  0.00    -0.295 N 
ATOM      6  H4  UNL     1       8.733  19.432  14.442  1.00  0.00     0.171 HD
HETATM    7  C7  UNL     1       6.792  18.950  14.815  1.00  0.00     0.336 A 
HETATM    8  O3  UNL     1       6.351  20.122  14.744  1.00  0.00    -0.246 OA
HETATM    9  N5  UNL     1       5.886  17.959  15.083  1.00  0.00    -0.211 N 
HETATM   10  C8  UNL     1       4.521  18.294  15.254  1.00  0.00     0.344 C 
HETATM   11  N6  UNL     1       4.114  19.686  15.158  1.00  0.00    -0.039 NA
HETATM   12  O4  UNL     1       3.658  17.440  15.483  1.00  0.00    -0.250 OA
ENDROOT
BRANCH   1  13
HETATM   13  C2  UNL     1       5.380  15.632  15.461  1.00  0.00     0.269 C 
HETATM   14  N1  UNL     1       5.080  15.228  16.785  1.00  0.00    -0.360 N 
HETATM   15  C1  UNL     1       4.121  14.183  17.074  1.00  0.00     0.149 C 
ATOM     16  H1  UNL     1       5.557  15.688  17.561  1.00  0.00     0.162 HD
HETATM   17  O1  UNL     1       4.788  15.060  14.521  1.00  0.00    -0.266 OA
ENDBRANCH   1  13
BRANCH   2  18
HETATM   18  C5  UNL     1       8.198  15.075  15.051  1.00  0.00     0.270 C 
HETATM   19  N2  UNL     1       8.352  14.312  16.208  1.00  0.00    -0.057 NA
HETATM   20  O2  UNL     1       8.590  14.495  13.968  1.00  0.00    -0.271 OA
ENDBRANCH   2  18
TORSDOF 2
ENDMDL
MODEL 5
REMARK VINA RESULT: -6.041030250      1.951      2.773
REMARK  2 active torsions:
REMARK  status: ('A' for Active; 'I' for Inactive)
REMARK       I    between atoms: N1_2  and  C2_4 
REMARK    1  A    between atoms: C2_4  and  C3_6 
REMARK    2  A    between atoms: C4_7  and  C5_8 
REMARK       I    between atoms: N5_17  and  C8_18 
ROOT
HETATM    1  C3  UNL     1       6.903  17.161  14.704  1.00  0.00     0.134 A 
HETATM    2  C4  UNL     1       7.455  18.167  13.949  1.00  0.00     0.103 A 
HETATM    3  C6  UNL     1       8.798  18.088  13.546  1.00  0.00     0.138 A 
HETATM    4  N3  UNL     1       9.356  19.123  12.774  1.00  0.00    -0.081 NA
HETATM    5  N4  UNL     1       9.495  17.015  13.921  1.00  0.00    -0.295 N 
ATOM      6  H4  UNL     1      10.471  16.941  13.636  1.00  0.00     0.171 HD
HETATM    7  C7  UNL     1       8.965  16.031  14.656  1.00  0.00     0.336 A 
HETATM    8  O3  UNL     1       9.632  15.026  15.003  1.00  0.00    -0.246 OA
HETATM    9  N5  UNL     1       7.658  16.082  15.064  1.00  0.00    -0.211 N 
HETATM   10  C8  UNL     1       7.135  15.027  15.849  1.00  0.00     0.344 C 
HETATM   11  N6  UNL     1       7.991  13.903  16.191  1.00  0.00    -0.039 NA
HETATM   12  O4  UNL     1       5.968  15.027  16.256  1.00  0.00    -0.250 OA
ENDROOT
BRANCH   1  13
HETATM   13  C2  UNL     1       5.528  17.207  15.122  1.00  0.00     0.269 C 
HETATM   14  N1  UNL     1       5.130  17.748  16.369  1.00  0.00    -0.360 N 
HETATM   15  C1  UNL     1       3.745  17.793  16.784  1.00  0.00     0.149 C 
ATOM     16  H1  UNL     1       5.845  18.119  16.996  1.00  0.00     0.162 HD
HETATM   17  O1  UNL     1       4.642  16.757  14.365  1.00  0.00    -0.266 OA
ENDBRANCH   1  13
BRANCH   2  18
HETATM   18  C5  UNL     1       6.734  19.322  13.544  1.00  0.00     0.270 C 
HETATM   19  N2  UNL     1       6.025  19.466  12.352  1.00  0.00    -0.057 NA
HETATM   20  O2  UNL     1       6.707  20.355  14.314  1.00  0.00    -0.271 OA
ENDBRANCH   2  18
TORSDOF 2
ENDMDL
