MODEL 1
REMARK VINA RESULT: -6.551704159      0.000      0.000
REMARK  5 active torsions:
REMARK  status: ('A' for Active; 'I' for Inactive)
REMARK    1  A    between atoms: C2_2  and  C4_4 
REMARK    2  A    between atoms: C4_4  and  O1_5 
REMARK    3  A    between atoms: C4_4  and  C5_7 
REMARK    4  A    between atoms: C8_11  and  O3_12 
REMARK    5  A    between atoms: C17_22  and  O4_23 
ROOT
HETATM    1  C5  UNL     1      23.675   3.450  36.930  1.00  0.00     0.183 C 
HETATM    2  O2  UNL     1      23.550   3.850  35.596  1.00  0.00    -0.344 OA
HETATM    3  C6  UNL     1      22.480   4.697  35.509  1.00  0.00     0.169 C 
HETATM    4  C7  UNL     1      21.525   4.336  36.617  1.00  0.00     0.102 C 
HETATM    5  C8  UNL     1      22.286   3.278  37.387  1.00  0.00     0.154 C 
HETATM    6  C9  UNL     1      22.971   6.106  35.656  1.00  0.00     0.078 C 
HETATM    7  C10 UNL     1      23.149   6.855  34.382  1.00  0.00    -0.033 C 
HETATM    8  C11 UNL     1      24.565   6.573  33.863  1.00  0.00     0.016 C 
HETATM    9  C12 UNL     1      23.158   8.346  34.749  1.00  0.00     0.016 C 
HETATM   10  C13 UNL     1      22.146   6.552  33.328  1.00  0.00    -0.003 C 
HETATM   11  C14 UNL     1      21.426   7.819  32.924  1.00  0.00     0.019 C 
HETATM   12  C15 UNL     1      22.785   5.992  32.061  1.00  0.00     0.016 C 
HETATM   13  C16 UNL     1      21.728   5.168  31.382  1.00  0.00     0.036 C 
HETATM   14  C17 UNL     1      20.657   4.908  32.385  1.00  0.00     0.153 C 
HETATM   15  C18 UNL     1      21.187   5.461  33.721  1.00  0.00     0.094 C 
HETATM   16  C19 UNL     1      19.979   5.986  34.440  1.00  0.00     0.050 C 
HETATM   17  O5  UNL     1      21.836   4.439  34.319  1.00  0.00    -0.341 OA
ENDROOT
BRANCH   1  18
HETATM   18  C4  UNL     1      24.532   2.195  36.891  1.00  0.00     0.153 C 
BRANCH  18  19
HETATM   19  C2  UNL     1      25.870   2.298  37.519  1.00  0.00     0.009 C 
HETATM   20  C1  UNL     1      25.985   3.015  38.809  1.00  0.00     0.012 C 
HETATM   21  C3  UNL     1      26.866   2.956  36.556  1.00  0.00     0.012 C 
ENDBRANCH  18  19
BRANCH  18  22
HETATM   22  O1  UNL     1      24.819   1.981  35.491  1.00  0.00    -0.393 OA
ATOM     23  H1  UNL     1      23.962   1.879  35.094  1.00  0.00     0.210 HD
ENDBRANCH  18  22
ENDBRANCH   1  18
BRANCH   5  24
HETATM   24  O3  UNL     1      22.111   3.558  38.767  1.00  0.00    -0.393 OA
ATOM     25  H3  UNL     1      21.209   3.481  39.055  1.00  0.00     0.210 HD
ENDBRANCH   5  24
BRANCH  14  26
HETATM   26  O4  UNL     1      19.436   5.468  32.056  1.00  0.00    -0.393 OA
ATOM     27  H4  UNL     1      18.987   5.867  32.792  1.00  0.00     0.210 HD
ENDBRANCH  14  26
TORSDOF 5
ENDMDL
MODEL 2
REMARK VINA RESULT: -6.511555696      2.136      4.203
REMARK  5 active torsions:
REMARK  status: ('A' for Active; 'I' for Inactive)
REMARK    1  A    between atoms: C2_2  and  C4_4 
REMARK    2  A    between atoms: C4_4  and  O1_5 
REMARK    3  A    between atoms: C4_4  and  C5_7 
REMARK    4  A    between atoms: C8_11  and  O3_12 
REMARK    5  A    between atoms: C17_22  and  O4_23 
ROOT
HETATM    1  C5  UNL     1      23.571   4.654  35.524  1.00  0.00     0.183 C 
HETATM    2  O2  UNL     1      22.334   5.179  35.911  1.00  0.00    -0.344 OA
HETATM    3  C6  UNL     1      21.413   4.829  34.963  1.00  0.00     0.169 C 
HETATM    4  C7  UNL     1      22.147   4.657  33.659  1.00  0.00     0.102 C 
HETATM    5  C8  UNL     1      23.596   4.828  34.062  1.00  0.00     0.154 C 
HETATM    6  C9  UNL     1      20.753   3.550  35.386  1.00  0.00     0.078 C 
HETATM    7  C10 UNL     1      19.423   3.703  36.037  1.00  0.00    -0.033 C 
HETATM    8  C11 UNL     1      19.655   3.908  37.539  1.00  0.00     0.016 C 
HETATM    9  C12 UNL     1      18.725   2.340  35.931  1.00  0.00     0.016 C 
HETATM   10  C13 UNL     1      18.579   4.799  35.493  1.00  0.00    -0.003 C 
HETATM   11  C14 UNL     1      17.266   4.239  34.996  1.00  0.00     0.019 C 
HETATM   12  C15 UNL     1      18.232   5.844  36.550  1.00  0.00     0.016 C 
HETATM   13  C16 UNL     1      17.973   7.126  35.810  1.00  0.00     0.036 C 
HETATM   14  C17 UNL     1      18.534   6.965  34.439  1.00  0.00     0.153 C 
HETATM   15  C18 UNL     1      19.277   5.617  34.441  1.00  0.00     0.094 C 
HETATM   16  C19 UNL     1      19.093   5.059  33.061  1.00  0.00     0.050 C 
HETATM   17  O5  UNL     1      20.549   5.890  34.805  1.00  0.00    -0.341 OA
ENDROOT
BRANCH   1  18
HETATM   18  C4  UNL     1      24.603   5.441  36.314  1.00  0.00     0.153 C 
BRANCH  18  19
HETATM   19  C2  UNL     1      25.588   4.642  37.081  1.00  0.00     0.009 C 
HETATM   20  C1  UNL     1      26.760   4.097  36.359  1.00  0.00     0.012 C 
HETATM   21  C3  UNL     1      24.899   3.454  37.767  1.00  0.00     0.012 C 
ENDBRANCH  18  19
BRANCH  18  22
HETATM   22  O1  UNL     1      23.846   6.132  37.334  1.00  0.00    -0.393 OA
ATOM     23  H1  UNL     1      24.505   6.408  37.960  1.00  0.00     0.210 HD
ENDBRANCH  18  22
ENDBRANCH   1  18
BRANCH   5  24
HETATM   24  O3  UNL     1      24.339   3.823  33.390  1.00  0.00    -0.393 OA
ATOM     25  H3  UNL     1      23.797   3.132  33.030  1.00  0.00     0.210 HD
ENDBRANCH   5  24
BRANCH  14  26
HETATM   26  O4  UNL     1      17.582   7.015  33.437  1.00  0.00    -0.393 OA
ATOM     27  H4  UNL     1      17.916   7.333  32.606  1.00  0.00     0.210 HD
ENDBRANCH  14  26
TORSDOF 5
ENDMDL
MODEL 3
REMARK VINA RESULT: -6.454628021      1.952      3.792
REMARK  5 active torsions:
REMARK  status: ('A' for Active; 'I' for Inactive)
REMARK    1  A    between atoms: C2_2  and  C4_4 
REMARK    2  A    between atoms: C4_4  and  O1_5 
REMARK    3  A    between atoms: C4_4  and  C5_7 
REMARK    4  A    between atoms: C8_11  and  O3_12 
REMARK    5  A    between atoms: C17_22  and  O4_23 
ROOT
HETATM    1  C5  UNL     1      23.676   4.556  35.552  1.00  0.00     0.183 C 
HETATM    2  O2  UNL     1      22.527   5.348  35.632  1.00  0.00    -0.344 OA
HETATM    3  C6  UNL     1      21.762   5.094  34.527  1.00  0.00     0.169 C 
HETATM    4  C7  UNL     1      22.691   4.657  33.424  1.00  0.00     0.102 C 
HETATM    5  C8  UNL     1      24.031   4.580  34.123  1.00  0.00     0.154 C 
HETATM    6  C9  UNL     1      20.776   4.016  34.863  1.00  0.00     0.078 C 
HETATM    7  C10 UNL     1      19.405   4.487  35.201  1.00  0.00    -0.033 C 
HETATM    8  C11 UNL     1      19.367   4.787  36.706  1.00  0.00     0.016 C 
HETATM    9  C12 UNL     1      18.471   3.283  35.019  1.00  0.00     0.016 C 
HETATM   10  C13 UNL     1      18.939   5.670  34.431  1.00  0.00    -0.003 C 
HETATM   11  C14 UNL     1      17.665   5.331  33.690  1.00  0.00     0.019 C 
HETATM   12  C15 UNL     1      18.615   6.859  35.330  1.00  0.00     0.016 C 
HETATM   13  C16 UNL     1      18.787   8.089  34.485  1.00  0.00     0.036 C 
HETATM   14  C17 UNL     1      19.566   7.691  33.278  1.00  0.00     0.153 C 
HETATM   15  C18 UNL     1      19.991   6.230  33.513  1.00  0.00     0.094 C 
HETATM   16  C19 UNL     1      19.975   5.588  32.157  1.00  0.00     0.050 C 
HETATM   17  O5  UNL     1      21.192   6.283  34.129  1.00  0.00    -0.341 OA
ENDROOT
BRANCH   1  18
HETATM   18  C4  UNL     1      24.670   5.199  36.504  1.00  0.00     0.153 C 
BRANCH  18  19
HETATM   19  C2  UNL     1      25.378   4.281  37.427  1.00  0.00     0.009 C 
HETATM   20  C1  UNL     1      26.670   3.705  36.987  1.00  0.00     0.012 C 
HETATM   21  C3  UNL     1      24.474   3.102  37.810  1.00  0.00     0.012 C 
ENDBRANCH  18  19
BRANCH  18  22
HETATM   22  O1  UNL     1      23.870   6.024  37.380  1.00  0.00    -0.393 OA
ATOM     23  H1  UNL     1      24.430   6.168  38.134  1.00  0.00     0.210 HD
ENDBRANCH  18  22
ENDBRANCH   1  18
BRANCH   5  24
HETATM   24  O3  UNL     1      24.665   3.390  33.682  1.00  0.00    -0.393 OA
ATOM     25  H3  UNL     1      25.202   2.981  34.350  1.00  0.00     0.210 HD
ENDBRANCH   5  24
BRANCH  14  26
HETATM   26  O4  UNL     1      18.867   7.829  32.092  1.00  0.00    -0.393 OA
ATOM     27  H4  UNL     1      18.786   7.020  31.599  1.00  0.00     0.210 HD
ENDBRANCH  14  26
TORSDOF 5
ENDMDL
MODEL 4
REMARK VINA RESULT: -6.273809496      1.810      4.076
REMARK  5 active torsions:
REMARK  status: ('A' for Active; 'I' for Inactive)
REMARK    1  A    between atoms: C2_2  and  C4_4 
REMARK    2  A    between atoms: C4_4  and  O1_5 
REMARK    3  A    between atoms: C4_4  and  C5_7 
REMARK    4  A    between atoms: C8_11  and  O3_12 
REMARK    5  A    between atoms: C17_22  and  O4_23 
ROOT
HETATM    1  C5  UNL     1      22.195   3.270  36.518  1.00  0.00     0.183 C 
HETATM    2  O2  UNL     1      22.012   4.524  35.928  1.00  0.00    -0.344 OA
HETATM    3  C6  UNL     1      22.947   4.666  34.940  1.00  0.00     0.169 C 
HETATM    4  C7  UNL     1      24.134   3.818  35.315  1.00  0.00     0.102 C 
HETATM    5  C8  UNL     1      23.657   3.101  36.560  1.00  0.00     0.154 C 
HETATM    6  C9  UNL     1      22.346   4.213  33.643  1.00  0.00     0.078 C 
HETATM    7  C10 UNL     1      21.841   5.299  32.760  1.00  0.00    -0.033 C 
HETATM    8  C11 UNL     1      20.390   5.596  33.159  1.00  0.00     0.016 C 
HETATM    9  C12 UNL     1      21.745   4.706  31.347  1.00  0.00     0.016 C 
HETATM   10  C13 UNL     1      22.644   6.550  32.779  1.00  0.00    -0.003 C 
HETATM   11  C14 UNL     1      23.130   6.871  31.384  1.00  0.00     0.019 C 
HETATM   12  C15 UNL     1      21.831   7.755  33.244  1.00  0.00     0.016 C 
HETATM   13  C16 UNL     1      22.816   8.734  33.819  1.00  0.00     0.036 C 
HETATM   14  C17 UNL     1      24.085   7.992  34.064  1.00  0.00     0.153 C 
HETATM   15  C18 UNL     1      23.773   6.513  33.773  1.00  0.00     0.094 C 
HETATM   16  C19 UNL     1      25.035   5.947  33.192  1.00  0.00     0.050 C 
HETATM   17  O5  UNL     1      23.368   5.978  34.946  1.00  0.00    -0.341 OA
ENDROOT
BRANCH   1  18
HETATM   18  C4  UNL     1      21.488   3.353  37.860  1.00  0.00     0.153 C 
BRANCH  18  19
HETATM   19  C2  UNL     1      20.219   2.597  37.978  1.00  0.00     0.009 C 
HETATM   20  C1  UNL     1      20.240   1.145  37.687  1.00  0.00     0.012 C 
HETATM   21  C3  UNL     1      19.140   3.214  37.079  1.00  0.00     0.012 C 
ENDBRANCH  18  19
BRANCH  18  22
HETATM   22  O1  UNL     1      21.082   4.735  37.984  1.00  0.00    -0.393 OA
ATOM     23  H1  UNL     1      21.741   5.117  38.552  1.00  0.00     0.210 HD
ENDBRANCH  18  22
ENDBRANCH   1  18
BRANCH   5  24
HETATM   24  O3  UNL     1      24.070   1.748  36.449  1.00  0.00    -0.393 OA
ATOM     25  H3  UNL     1      24.672   1.597  35.731  1.00  0.00     0.210 HD
ENDBRANCH   5  24
BRANCH  14  26
HETATM   26  O4  UNL     1      25.151   8.441  33.305  1.00  0.00    -0.393 OA
ATOM     27  H4  UNL     1      25.605   7.751  32.836  1.00  0.00     0.210 HD
ENDBRANCH  14  26
TORSDOF 5
ENDMDL
MODEL 5
REMARK VINA RESULT: -6.222414571      1.741      5.956
REMARK  5 active torsions:
REMARK  status: ('A' for Active; 'I' for Inactive)
REMARK    1  A    between atoms: C2_2  and  C4_4 
REMARK    2  A    between atoms: C4_4  and  O1_5 
REMARK    3  A    between atoms: C4_4  and  C5_7 
REMARK    4  A    between atoms: C8_11  and  O3_12 
REMARK    5  A    between atoms: C17_22  and  O4_23 
ROOT
HETATM    1  C5  UNL     1      20.585   6.359  33.093  1.00  0.00     0.183 C 
HETATM    2  O2  UNL     1      21.256   6.041  34.277  1.00  0.00    -0.344 OA
HETATM    3  C6  UNL     1      22.331   5.259  33.956  1.00  0.00     0.169 C 
HETATM    4  C7  UNL     1      21.995   4.528  32.682  1.00  0.00     0.102 C 
HETATM    5  C8  UNL     1      20.658   5.124  32.294  1.00  0.00     0.154 C 
HETATM    6  C9  UNL     1      23.529   6.141  33.773  1.00  0.00     0.078 C 
HETATM    7  C10 UNL     1      24.450   6.217  34.940  1.00  0.00    -0.033 C 
HETATM    8  C11 UNL     1      23.950   7.336  35.863  1.00  0.00     0.016 C 
HETATM    9  C12 UNL     1      25.796   6.725  34.403  1.00  0.00     0.016 C 
HETATM   10  C13 UNL     1      24.602   4.952  35.704  1.00  0.00    -0.003 C 
HETATM   11  C14 UNL     1      26.056   4.538  35.729  1.00  0.00     0.019 C 
HETATM   12  C15 UNL     1      24.167   5.096  37.160  1.00  0.00     0.016 C 
HETATM   13  C16 UNL     1      23.762   3.723  37.619  1.00  0.00     0.036 C 
HETATM   14  C17 UNL     1      23.570   2.888  36.399  1.00  0.00     0.153 C 
HETATM   15  C18 UNL     1      23.712   3.848  35.204  1.00  0.00     0.094 C 
HETATM   16  C19 UNL     1      24.353   3.036  34.117  1.00  0.00     0.050 C 
HETATM   17  O5  UNL     1      22.469   4.309  34.944  1.00  0.00    -0.341 OA
ENDROOT
BRANCH   1  18
HETATM   18  C4  UNL     1      19.198   6.800  33.526  1.00  0.00     0.153 C 
BRANCH  18  19
HETATM   19  C2  UNL     1      18.413   5.815  34.308  1.00  0.00     0.009 C 
HETATM   20  C1  UNL     1      17.203   5.232  33.685  1.00  0.00     0.012 C 
HETATM   21  C3  UNL     1      17.974   6.421  35.648  1.00  0.00     0.012 C 
ENDBRANCH  18  19
BRANCH  18  22
HETATM   22  O1  UNL     1      18.450   6.945  32.298  1.00  0.00    -0.393 OA
ATOM     23  H1  UNL     1      17.942   6.144  32.243  1.00  0.00     0.210 HD
ENDBRANCH  18  22
ENDBRANCH   1  18
BRANCH   5  24
HETATM   24  O3  UNL     1      20.696   5.361  30.896  1.00  0.00    -0.393 OA
ATOM     25  H3  UNL     1      20.066   6.011  30.608  1.00  0.00     0.210 HD
ENDBRANCH   5  24
BRANCH  14  26
HETATM   26  O4  UNL     1      24.454   1.829  36.304  1.00  0.00    -0.393 OA
ATOM     27  H4  UNL     1      24.983   1.841  35.515  1.00  0.00     0.210 HD
ENDBRANCH  14  26
TORSDOF 5
ENDMDL
