MODEL 1
REMARK VINA RESULT: -8.579985023      0.000      0.000
REMARK  4 active torsions:
REMARK  status: ('A' for Active; 'I' for Inactive)
REMARK    1  A    between atoms: C5_6  and  O2_7 
REMARK    2  A    between atoms: C5_6  and  C6_9 
REMARK    3  A    between atoms: C6_9  and  O3_10 
REMARK    4  A    between atoms: C18_24  and  O5_25 
ROOT
HETATM    1  C1  UNL     1      18.634   2.909  35.244  1.00  0.00     0.018 C 
HETATM    2  C2  UNL     1      19.371   4.256  35.325  1.00  0.00    -0.015 C 
HETATM    3  C3  UNL     1      18.798   4.969  36.517  1.00  0.00     0.177 C 
HETATM    4  O1  UNL     1      18.587   6.307  36.385  1.00  0.00    -0.387 OA
HETATM    5  C4  UNL     1      17.859   6.685  35.293  1.00  0.00     0.208 C 
HETATM    6  C5  UNL     1      17.756   5.649  34.229  1.00  0.00     0.104 C 
HETATM    7  C7  UNL     1      19.097   4.967  34.041  1.00  0.00     0.034 C 
HETATM    8  C8  UNL     1      20.065   5.921  33.507  1.00  0.00     0.009 C 
HETATM    9  C9  UNL     1      21.472   5.455  33.259  1.00  0.00     0.012 C 
HETATM   10  C10 UNL     1      22.388   5.354  34.384  1.00  0.00    -0.010 C 
HETATM   11  C11 UNL     1      23.127   6.567  34.841  1.00  0.00     0.178 C 
HETATM   12  O4  UNL     1      23.346   6.435  36.217  1.00  0.00    -0.384 OA
HETATM   13  C12 UNL     1      22.712   5.243  36.638  1.00  0.00     0.136 C 
HETATM   14  C13 UNL     1      21.607   5.114  35.678  1.00  0.00     0.027 C 
HETATM   15  C14 UNL     1      20.831   3.894  35.558  1.00  0.00     0.020 C 
HETATM   16  C15 UNL     1      23.749   4.168  36.595  1.00  0.00     0.005 C 
HETATM   17  C16 UNL     1      25.056   4.806  37.095  1.00  0.00     0.020 C 
HETATM   18  C17 UNL     1      23.453   3.053  37.586  1.00  0.00     0.020 C 
HETATM   19  C18 UNL     1      23.950   3.553  35.258  1.00  0.00     0.129 C 
HETATM   20  C19 UNL     1      23.400   4.281  34.104  1.00  0.00     0.044 C 
ENDROOT
BRANCH   6  21
HETATM   21  O2  UNL     1      16.828   4.670  34.696  1.00  0.00    -0.385 OA
ATOM     22  H2  UNL     1      17.335   3.900  34.927  1.00  0.00     0.210 HD
ENDBRANCH   6  21
BRANCH   6  23
HETATM   23  C6  UNL     1      17.126   6.196  32.991  1.00  0.00     0.204 C 
BRANCH  23  24
HETATM   24  O3  UNL     1      16.167   5.410  32.385  1.00  0.00    -0.398 OA
ATOM     25  H3  UNL     1      15.906   4.624  32.848  1.00  0.00     0.209 HD
ENDBRANCH  23  24
ENDBRANCH   6  23
BRANCH  19  26
HETATM   26  O5  UNL     1      25.344   3.369  35.086  1.00  0.00    -0.395 OA
ATOM     27  H5  UNL     1      25.460   2.620  34.513  1.00  0.00     0.210 HD
ENDBRANCH  19  26
TORSDOF 4
ENDMDL
MODEL 2
REMARK VINA RESULT: -8.219593899      1.194      6.105
REMARK  4 active torsions:
REMARK  status: ('A' for Active; 'I' for Inactive)
REMARK    1  A    between atoms: C5_6  and  O2_7 
REMARK    2  A    between atoms: C5_6  and  C6_9 
REMARK    3  A    between atoms: C6_9  and  O3_10 
REMARK    4  A    between atoms: C18_24  and  O5_25 
ROOT
HETATM    1  C1  UNL     1      23.361   3.905  33.709  1.00  0.00     0.018 C 
HETATM    2  C2  UNL     1      22.584   4.570  34.858  1.00  0.00    -0.015 C 
HETATM    3  C3  UNL     1      23.169   5.946  35.008  1.00  0.00     0.177 C 
HETATM    4  O1  UNL     1      23.333   6.405  36.278  1.00  0.00    -0.387 OA
HETATM    5  C4  UNL     1      24.017   5.575  37.122  1.00  0.00     0.208 C 
HETATM    6  C5  UNL     1      24.123   4.167  36.652  1.00  0.00     0.104 C 
HETATM    7  C7  UNL     1      22.799   3.718  36.065  1.00  0.00     0.034 C 
HETATM    8  C8  UNL     1      21.787   3.661  37.115  1.00  0.00     0.009 C 
HETATM    9  C9  UNL     1      20.388   3.253  36.746  1.00  0.00     0.012 C 
HETATM   10  C10 UNL     1      19.509   4.234  36.131  1.00  0.00    -0.010 C 
HETATM   11  C11 UNL     1      18.745   5.180  36.995  1.00  0.00     0.178 C 
HETATM   12  O4  UNL     1      18.569   6.366  36.273  1.00  0.00    -0.384 OA
HETATM   13  C12 UNL     1      19.252   6.221  35.043  1.00  0.00     0.136 C 
HETATM   14  C13 UNL     1      20.333   5.287  35.387  1.00  0.00     0.027 C 
HETATM   15  C14 UNL     1      21.143   4.641  34.371  1.00  0.00     0.020 C 
HETATM   16  C15 UNL     1      18.249   5.729  34.051  1.00  0.00     0.005 C 
HETATM   17  C16 UNL     1      16.938   6.471  34.356  1.00  0.00     0.020 C 
HETATM   18  C17 UNL     1      18.609   6.135  32.630  1.00  0.00     0.020 C 
HETATM   19  C18 UNL     1      18.030   4.260  34.067  1.00  0.00     0.129 C 
HETATM   20  C19 UNL     1      18.523   3.528  35.244  1.00  0.00     0.044 C 
ENDROOT
BRANCH   6  21
HETATM   21  O2  UNL     1      25.094   4.152  35.606  1.00  0.00    -0.385 OA
ATOM     22  H2  UNL     1      25.402   3.256  35.529  1.00  0.00     0.210 HD
ENDBRANCH   6  21
BRANCH   6  23
HETATM   23  C6  UNL     1      24.700   3.280  37.706  1.00  0.00     0.204 C 
BRANCH  23  24
HETATM   24  O3  UNL     1      24.867   1.951  37.374  1.00  0.00    -0.398 OA
ATOM     25  H3  UNL     1      24.905   1.334  38.094  1.00  0.00     0.209 HD
ENDBRANCH  23  24
ENDBRANCH   6  23
BRANCH  19  26
HETATM   26  O5  UNL     1      16.638   4.042  33.919  1.00  0.00    -0.395 OA
ATOM     27  H5  UNL     1      16.454   3.169  34.246  1.00  0.00     0.210 HD
ENDBRANCH  19  26
TORSDOF 4
ENDMDL
MODEL 3
REMARK VINA RESULT: -8.028098325      2.954      4.261
REMARK  4 active torsions:
REMARK  status: ('A' for Active; 'I' for Inactive)
REMARK    1  A    between atoms: C5_6  and  O2_7 
REMARK    2  A    between atoms: C5_6  and  C6_9 
REMARK    3  A    between atoms: C6_9  and  O3_10 
REMARK    4  A    between atoms: C18_24  and  O5_25 
ROOT
HETATM    1  C1  UNL     1      21.290   5.259  31.863  1.00  0.00     0.018 C 
HETATM    2  C2  UNL     1      22.139   5.926  32.959  1.00  0.00    -0.015 C 
HETATM    3  C3  UNL     1      21.291   7.031  33.523  1.00  0.00     0.177 C 
HETATM    4  O1  UNL     1      21.924   8.199  33.814  1.00  0.00    -0.387 OA
HETATM    5  C4  UNL     1      22.673   8.733  32.804  1.00  0.00     0.208 C 
HETATM    6  C5  UNL     1      22.999   7.782  31.706  1.00  0.00     0.104 C 
HETATM    7  C7  UNL     1      23.374   6.432  32.288  1.00  0.00     0.034 C 
HETATM    8  C8  UNL     1      24.622   6.546  33.036  1.00  0.00     0.009 C 
HETATM    9  C9  UNL     1      25.170   5.322  33.714  1.00  0.00     0.012 C 
HETATM   10  C10 UNL     1      24.598   4.907  34.985  1.00  0.00    -0.010 C 
HETATM   11  C11 UNL     1      25.088   5.529  36.249  1.00  0.00     0.178 C 
HETATM   12  O4  UNL     1      24.024   5.534  37.158  1.00  0.00    -0.384 OA
HETATM   13  C12 UNL     1      22.890   5.018  36.490  1.00  0.00     0.136 C 
HETATM   14  C13 UNL     1      23.149   5.386  35.091  1.00  0.00     0.027 C 
HETATM   15  C14 UNL     1      22.373   4.836  33.995  1.00  0.00     0.020 C 
HETATM   16  C15 UNL     1      22.846   3.554  36.788  1.00  0.00     0.005 C 
HETATM   17  C16 UNL     1      23.266   3.398  38.259  1.00  0.00     0.020 C 
HETATM   18  C17 UNL     1      21.430   3.003  36.723  1.00  0.00     0.020 C 
HETATM   19  C18 UNL     1      23.705   2.718  35.911  1.00  0.00     0.129 C 
HETATM   20  C19 UNL     1      24.734   3.418  35.127  1.00  0.00     0.044 C 
ENDROOT
BRANCH   6  21
HETATM   21  O2  UNL     1      21.808   7.612  30.938  1.00  0.00    -0.385 OA
ATOM     22  H2  UNL     1      21.420   6.789  31.211  1.00  0.00     0.210 HD
ENDBRANCH   6  21
BRANCH   6  23
HETATM   23  C6  UNL     1      23.980   8.369  30.746  1.00  0.00     0.204 C 
BRANCH  23  24
HETATM   24  O3  UNL     1      23.576   8.464  29.430  1.00  0.00    -0.398 OA
ATOM     25  H3  UNL     1      24.161   8.098  28.777  1.00  0.00     0.209 HD
ENDBRANCH  23  24
ENDBRANCH   6  23
BRANCH  19  26
HETATM   26  O5  UNL     1      24.316   1.739  36.732  1.00  0.00    -0.395 OA
ATOM     27  H5  UNL     1      23.674   1.475  37.380  1.00  0.00     0.210 HD
ENDBRANCH  19  26
TORSDOF 4
ENDMDL
MODEL 4
REMARK VINA RESULT: -7.845084013      2.128      3.985
REMARK  4 active torsions:
REMARK  status: ('A' for Active; 'I' for Inactive)
REMARK    1  A    between atoms: C5_6  and  O2_7 
REMARK    2  A    between atoms: C5_6  and  C6_9 
REMARK    3  A    between atoms: C6_9  and  O3_10 
REMARK    4  A    between atoms: C18_24  and  O5_25 
ROOT
HETATM    1  C1  UNL     1      23.216   8.232  33.659  1.00  0.00     0.018 C 
HETATM    2  C2  UNL     1      22.967   6.715  33.702  1.00  0.00    -0.015 C 
HETATM    3  C3  UNL     1      23.259   6.210  32.318  1.00  0.00     0.177 C 
HETATM    4  O1  UNL     1      22.424   5.254  31.827  1.00  0.00    -0.387 OA
HETATM    5  C4  UNL     1      21.091   5.550  31.882  1.00  0.00     0.208 C 
HETATM    6  C5  UNL     1      20.742   6.662  32.808  1.00  0.00     0.104 C 
HETATM    7  C7  UNL     1      21.537   6.531  34.093  1.00  0.00     0.034 C 
HETATM    8  C8  UNL     1      21.120   5.332  34.812  1.00  0.00     0.009 C 
HETATM    9  C9  UNL     1      21.796   5.000  36.113  1.00  0.00     0.012 C 
HETATM   10  C10 UNL     1      23.106   4.369  36.083  1.00  0.00    -0.010 C 
HETATM   11  C11 UNL     1      23.204   2.888  35.933  1.00  0.00     0.178 C 
HETATM   12  O4  UNL     1      24.400   2.609  35.261  1.00  0.00    -0.384 OA
HETATM   13  C12 UNL     1      24.999   3.845  34.925  1.00  0.00     0.136 C 
HETATM   14  C13 UNL     1      23.837   4.735  34.790  1.00  0.00     0.027 C 
HETATM   15  C14 UNL     1      23.979   6.177  34.703  1.00  0.00     0.020 C 
HETATM   16  C15 UNL     1      25.953   4.173  36.028  1.00  0.00     0.005 C 
HETATM   17  C16 UNL     1      26.617   2.848  36.435  1.00  0.00     0.020 C 
HETATM   18  C17 UNL     1      27.097   5.053  35.546  1.00  0.00     0.020 C 
HETATM   19  C18 UNL     1      25.335   4.828  37.208  1.00  0.00     0.129 C 
HETATM   20  C19 UNL     1      23.870   4.755  37.317  1.00  0.00     0.044 C 
ENDROOT
BRANCH   6  21
HETATM   21  O2  UNL     1      21.140   7.874  32.168  1.00  0.00    -0.385 OA
ATOM     22  H2  UNL     1      20.364   8.233  31.753  1.00  0.00     0.210 HD
ENDBRANCH   6  21
BRANCH   6  23
HETATM   23  C6  UNL     1      19.264   6.795  32.970  1.00  0.00     0.204 C 
BRANCH  23  24
HETATM   24  O3  UNL     1      18.501   5.700  32.617  1.00  0.00    -0.398 OA
ATOM     25  H3  UNL     1      18.111   5.714  31.751  1.00  0.00     0.209 HD
ENDBRANCH  23  24
ENDBRANCH   6  23
BRANCH  19  26
HETATM   26  O5  UNL     1      25.927   4.259  38.362  1.00  0.00    -0.395 OA
ATOM     27  H5  UNL     1      25.796   4.871  39.077  1.00  0.00     0.210 HD
ENDBRANCH  19  26
TORSDOF 4
ENDMDL
MODEL 5
REMARK VINA RESULT: -7.649844109      2.518      5.507
REMARK  4 active torsions:
REMARK  status: ('A' for Active; 'I' for Inactive)
REMARK    1  A    between atoms: C5_6  and  O2_7 
REMARK    2  A    between atoms: C5_6  and  C6_9 
REMARK    3  A    between atoms: C6_9  and  O3_10 
REMARK    4  A    between atoms: C18_24  and  O5_25 
ROOT
HETATM    1  C1  UNL     1      23.550   7.025  34.786  1.00  0.00     0.018 C 
HETATM    2  C2  UNL     1      22.395   6.468  33.938  1.00  0.00    -0.015 C 
HETATM    3  C3  UNL     1      22.974   5.329  33.148  1.00  0.00     0.177 C 
HETATM    4  O1  UNL     1      22.564   5.210  31.856  1.00  0.00    -0.387 OA
HETATM    5  C4  UNL     1      22.680   6.338  31.094  1.00  0.00     0.208 C 
HETATM    6  C5  UNL     1      22.852   7.596  31.871  1.00  0.00     0.104 C 
HETATM    7  C7  UNL     1      21.926   7.591  33.072  1.00  0.00     0.034 C 
HETATM    8  C8  UNL     1      20.538   7.644  32.624  1.00  0.00     0.009 C 
HETATM    9  C9  UNL     1      19.447   7.632  33.658  1.00  0.00     0.012 C 
HETATM   10  C10 UNL     1      19.067   6.365  34.264  1.00  0.00    -0.010 C 
HETATM   11  C11 UNL     1      18.085   5.484  33.568  1.00  0.00     0.178 C 
HETATM   12  O4  UNL     1      18.393   4.160  33.904  1.00  0.00    -0.384 OA
HETATM   13  C12 UNL     1      19.557   4.183  34.705  1.00  0.00     0.136 C 
HETATM   14  C13 UNL     1      20.246   5.392  34.231  1.00  0.00     0.027 C 
HETATM   15  C14 UNL     1      21.371   5.966  34.947  1.00  0.00     0.020 C 
HETATM   16  C15 UNL     1      19.099   4.204  36.128  1.00  0.00     0.005 C 
HETATM   17  C16 UNL     1      17.881   3.267  36.204  1.00  0.00     0.020 C 
HETATM   18  C17 UNL     1      20.126   3.588  37.065  1.00  0.00     0.020 C 
HETATM   19  C18 UNL     1      18.751   5.550  36.648  1.00  0.00     0.129 C 
HETATM   20  C19 UNL     1      18.552   6.615  35.653  1.00  0.00     0.044 C 
ENDROOT
BRANCH   6  21
HETATM   21  O2  UNL     1      24.195   7.601  32.354  1.00  0.00    -0.385 OA
ATOM     22  H2  UNL     1      24.566   6.751  32.147  1.00  0.00     0.210 HD
ENDBRANCH   6  21
BRANCH   6  23
HETATM   23  C6  UNL     1      22.769   8.799  30.992  1.00  0.00     0.204 C 
BRANCH  23  24
HETATM   24  O3  UNL     1      23.159   8.634  29.678  1.00  0.00    -0.398 OA
ATOM     25  H3  UNL     1      22.915   9.323  29.071  1.00  0.00     0.209 HD
ENDBRANCH  23  24
ENDBRANCH   6  23
BRANCH  19  26
HETATM   26  O5  UNL     1      17.581   5.408  37.433  1.00  0.00    -0.395 OA
ATOM     27  H5  UNL     1      16.865   5.793  36.943  1.00  0.00     0.210 HD
ENDBRANCH  19  26
TORSDOF 4
ENDMDL
