MODEL 1
REMARK VINA RESULT: -7.326149524      0.000      0.000
REMARK  4 active torsions:
REMARK  status: ('A' for Active; 'I' for Inactive)
REMARK    1  A    between atoms: C10_12  and  O3_13 
REMARK    2  A    between atoms: C14_18  and  O4_19 
REMARK    3  A    between atoms: C15_21  and  C16_22 
REMARK    4  A    between atoms: C16_22  and  O5_23 
ROOT
HETATM    1  C1  UNL     1      20.575  10.014  32.462  1.00  0.00     0.010 C 
HETATM    2  C2  UNL     1      20.623   8.550  32.846  1.00  0.00    -0.012 C 
HETATM    3  C3  UNL     1      19.783   8.208  34.052  1.00  0.00     0.005 C 
HETATM    4  C4  UNL     1      18.777   7.087  33.887  1.00  0.00     0.003 C 
HETATM    5  C5  UNL     1      18.725   6.017  34.901  1.00  0.00     0.038 C 
HETATM    6  C6  UNL     1      19.297   4.679  34.751  1.00  0.00     0.066 C 
HETATM    7  C7  UNL     1      18.514   3.914  33.696  1.00  0.00     0.046 C 
HETATM    8  O1  UNL     1      19.014   4.022  35.979  1.00  0.00    -0.356 OA
HETATM    9  C8  UNL     1      19.802   4.403  37.017  1.00  0.00     0.339 C 
HETATM   10  O2  UNL     1      21.180   4.343  36.820  1.00  0.00    -0.359 OA
HETATM   11  C9  UNL     1      21.470   5.138  35.660  1.00  0.00     0.159 C 
HETATM   12  C10 UNL     1      22.888   5.519  35.587  1.00  0.00     0.148 C 
HETATM   13  C11 UNL     1      23.139   6.972  35.097  1.00  0.00     0.040 C 
HETATM   14  C12 UNL     1      22.434   7.096  33.861  1.00  0.00     0.008 C 
HETATM   15  C13 UNL     1      22.135   8.254  33.031  1.00  0.00     0.024 C 
HETATM   16  C14 UNL     1      22.569   7.342  31.857  1.00  0.00     0.134 C 
HETATM   17  C15 UNL     1      23.096   6.291  32.784  1.00  0.00     0.011 C 
HETATM   18  C17 UNL     1      22.503   4.928  32.677  1.00  0.00     0.015 C 
HETATM   19  C18 UNL     1      21.157   4.657  33.171  1.00  0.00     0.011 C 
HETATM   20  C19 UNL     1      20.778   4.421  34.566  1.00  0.00     0.051 C 
ENDROOT
BRANCH  17  21
HETATM   21  C16 UNL     1      24.600   6.296  32.762  1.00  0.00     0.176 C 
BRANCH  21  22
HETATM   22  O5  UNL     1      25.104   5.051  33.134  1.00  0.00    -0.400 OA
ATOM     23  H5  UNL     1      25.353   4.546  32.370  1.00  0.00     0.209 HD
ENDBRANCH  21  22
ENDBRANCH  17  21
BRANCH  16  24
HETATM   24  O4  UNL     1      21.590   6.973  30.983  1.00  0.00    -0.394 OA
ATOM     25  H4  UNL     1      21.600   6.067  30.697  1.00  0.00     0.210 HD
ENDBRANCH  16  24
BRANCH  12  26
HETATM   26  O3  UNL     1      23.329   5.597  36.943  1.00  0.00    -0.393 OA
ATOM     27  H3  UNL     1      24.222   5.919  36.899  1.00  0.00     0.210 HD
ENDBRANCH  12  26
TORSDOF 4
ENDMDL
MODEL 2
REMARK VINA RESULT: -5.970763815      1.381      4.774
REMARK  4 active torsions:
REMARK  status: ('A' for Active; 'I' for Inactive)
REMARK    1  A    between atoms: C10_12  and  O3_13 
REMARK    2  A    between atoms: C14_18  and  O4_19 
REMARK    3  A    between atoms: C15_21  and  C16_22 
REMARK    4  A    between atoms: C16_22  and  O5_23 
ROOT
HETATM    1  C1  UNL     1      18.574   4.064  34.581  1.00  0.00     0.010 C 
HETATM    2  C2  UNL     1      19.616   5.146  34.387  1.00  0.00    -0.012 C 
HETATM    3  C3  UNL     1      19.314   6.086  33.246  1.00  0.00     0.005 C 
HETATM    4  C4  UNL     1      19.305   7.567  33.566  1.00  0.00     0.003 C 
HETATM    5  C5  UNL     1      20.058   8.492  32.699  1.00  0.00     0.038 C 
HETATM    6  C6  UNL     1      21.362   9.074  33.012  1.00  0.00     0.066 C 
HETATM    7  C7  UNL     1      21.212  10.051  34.166  1.00  0.00     0.046 C 
HETATM    8  O1  UNL     1      21.685   9.873  31.882  1.00  0.00    -0.356 OA
HETATM    9  C8  UNL     1      22.095   9.172  30.794  1.00  0.00     0.339 C 
HETATM   10  O2  UNL     1      23.141   8.270  30.979  1.00  0.00    -0.359 OA
HETATM   11  C9  UNL     1      22.736   7.372  32.023  1.00  0.00     0.159 C 
HETATM   12  C10 UNL     1      23.527   6.133  32.028  1.00  0.00     0.148 C 
HETATM   13  C11 UNL     1      22.706   4.847  32.325  1.00  0.00     0.040 C 
HETATM   14  C12 UNL     1      22.006   5.101  33.544  1.00  0.00     0.008 C 
HETATM   15  C13 UNL     1      20.948   4.367  34.223  1.00  0.00     0.024 C 
HETATM   16  C14 UNL     1      21.788   4.623  35.497  1.00  0.00     0.134 C 
HETATM   17  C15 UNL     1      22.950   5.136  34.707  1.00  0.00     0.011 C 
HETATM   18  C17 UNL     1      23.413   6.524  34.995  1.00  0.00     0.015 C 
HETATM   19  C18 UNL     1      22.634   7.677  34.558  1.00  0.00     0.011 C 
HETATM   20  C19 UNL     1      22.618   8.249  33.210  1.00  0.00     0.051 C 
ENDROOT
BRANCH  17  21
HETATM   21  C16 UNL     1      24.060   4.120  34.708  1.00  0.00     0.176 C 
BRANCH  21  22
HETATM   22  O5  UNL     1      25.305   4.747  34.734  1.00  0.00    -0.400 OA
ATOM     23  H5  UNL     1      25.878   4.386  34.068  1.00  0.00     0.209 HD
ENDBRANCH  21  22
ENDBRANCH  17  21
BRANCH  16  24
HETATM   24  O4  UNL     1      21.242   5.461  36.425  1.00  0.00    -0.394 OA
ATOM     25  H4  UNL     1      21.484   5.303  37.330  1.00  0.00     0.210 HD
ENDBRANCH  16  24
BRANCH  12  26
HETATM   26  O3  UNL     1      23.906   5.920  30.669  1.00  0.00    -0.393 OA
ATOM     27  H3  UNL     1      23.808   6.764  30.245  1.00  0.00     0.210 HD
ENDBRANCH  12  26
TORSDOF 4
ENDMDL
MODEL 3
REMARK VINA RESULT: -5.542656606      1.828      4.237
REMARK  4 active torsions:
REMARK  status: ('A' for Active; 'I' for Inactive)
REMARK    1  A    between atoms: C10_12  and  O3_13 
REMARK    2  A    between atoms: C14_18  and  O4_19 
REMARK    3  A    between atoms: C15_21  and  C16_22 
REMARK    4  A    between atoms: C16_22  and  O5_23 
ROOT
HETATM    1  C1  UNL     1      23.416   2.793  37.003  1.00  0.00     0.010 C 
HETATM    2  C2  UNL     1      22.580   3.870  36.343  1.00  0.00    -0.012 C 
HETATM    3  C3  UNL     1      21.167   3.439  36.030  1.00  0.00     0.005 C 
HETATM    4  C4  UNL     1      20.053   4.320  36.558  1.00  0.00     0.003 C 
HETATM    5  C5  UNL     1      18.973   4.734  35.644  1.00  0.00     0.038 C 
HETATM    6  C6  UNL     1      18.857   6.047  35.010  1.00  0.00     0.066 C 
HETATM    7  C7  UNL     1      18.554   7.092  36.072  1.00  0.00     0.046 C 
HETATM    8  O1  UNL     1      17.681   5.966  34.216  1.00  0.00    -0.356 OA
HETATM    9  C8  UNL     1      17.826   5.261  33.065  1.00  0.00     0.339 C 
HETATM   10  O2  UNL     1      18.873   5.630  32.223  1.00  0.00    -0.359 OA
HETATM   11  C9  UNL     1      20.077   5.561  33.002  1.00  0.00     0.159 C 
HETATM   12  C10 UNL     1      21.281   5.498  32.160  1.00  0.00     0.148 C 
HETATM   13  C11 UNL     1      22.381   4.531  32.681  1.00  0.00     0.040 C 
HETATM   14  C12 UNL     1      22.631   4.914  34.033  1.00  0.00     0.008 C 
HETATM   15  C13 UNL     1      23.402   4.278  35.092  1.00  0.00     0.024 C 
HETATM   16  C14 UNL     1      23.950   5.702  35.349  1.00  0.00     0.134 C 
HETATM   17  C15 UNL     1      23.333   6.237  34.095  1.00  0.00     0.011 C 
HETATM   18  C17 UNL     1      22.366   7.363  34.237  1.00  0.00     0.015 C 
HETATM   19  C18 UNL     1      21.028   7.137  34.773  1.00  0.00     0.011 C 
HETATM   20  C19 UNL     1      19.881   6.598  34.039  1.00  0.00     0.051 C 
ENDROOT
BRANCH  17  21
HETATM   21  C16 UNL     1      24.399   6.486  33.064  1.00  0.00     0.176 C 
BRANCH  21  22
HETATM   22  O5  UNL     1      24.454   7.837  32.725  1.00  0.00    -0.400 OA
ATOM     23  H5  UNL     1      23.686   8.090  32.227  1.00  0.00     0.209 HD
ENDBRANCH  21  22
ENDBRANCH  17  21
BRANCH  16  24
HETATM   24  O4  UNL     1      23.586   6.288  36.526  1.00  0.00    -0.394 OA
ATOM     25  H4  UNL     1      22.683   6.574  36.593  1.00  0.00     0.210 HD
ENDBRANCH  16  24
BRANCH  12  26
HETATM   26  O3  UNL     1      20.871   4.841  30.961  1.00  0.00    -0.393 OA
ATOM     27  H3  UNL     1      20.122   5.334  30.647  1.00  0.00     0.210 HD
ENDBRANCH  12  26
TORSDOF 4
ENDMDL
MODEL 4
REMARK VINA RESULT: -5.445859550      1.984      4.448
REMARK  4 active torsions:
REMARK  status: ('A' for Active; 'I' for Inactive)
REMARK    1  A    between atoms: C10_12  and  O3_13 
REMARK    2  A    between atoms: C14_18  and  O4_19 
REMARK    3  A    between atoms: C15_21  and  C16_22 
REMARK    4  A    between atoms: C16_22  and  O5_23 
ROOT
HETATM    1  C1  UNL     1      18.928   5.200  36.619  1.00  0.00     0.010 C 
HETATM    2  C2  UNL     1      20.229   4.947  35.887  1.00  0.00    -0.012 C 
HETATM    3  C3  UNL     1      21.447   4.986  36.777  1.00  0.00     0.005 C 
HETATM    4  C4  UNL     1      22.364   3.781  36.733  1.00  0.00     0.003 C 
HETATM    5  C5  UNL     1      23.814   3.989  36.571  1.00  0.00     0.038 C 
HETATM    6  C6  UNL     1      24.562   3.816  35.327  1.00  0.00     0.066 C 
HETATM    7  C7  UNL     1      24.589   2.341  34.959  1.00  0.00     0.046 C 
HETATM    8  O1  UNL     1      25.904   4.145  35.659  1.00  0.00    -0.356 OA
HETATM    9  C8  UNL     1      26.143   5.474  35.788  1.00  0.00     0.339 C 
HETATM   10  O2  UNL     1      25.764   6.293  34.726  1.00  0.00    -0.359 OA
HETATM   11  C9  UNL     1      24.366   6.060  34.500  1.00  0.00     0.159 C 
HETATM   12  C10 UNL     1      23.741   7.141  33.722  1.00  0.00     0.148 C 
HETATM   13  C11 UNL     1      22.314   7.533  34.198  1.00  0.00     0.040 C 
HETATM   14  C12 UNL     1      21.562   6.319  34.224  1.00  0.00     0.008 C 
HETATM   15  C13 UNL     1      20.243   6.010  34.757  1.00  0.00     0.024 C 
HETATM   16  C14 UNL     1      20.039   5.258  33.419  1.00  0.00     0.134 C 
HETATM   17  C15 UNL     1      21.296   5.823  32.835  1.00  0.00     0.011 C 
HETATM   18  C17 UNL     1      22.338   4.854  32.391  1.00  0.00     0.015 C 
HETATM   19  C18 UNL     1      23.144   4.125  33.364  1.00  0.00     0.011 C 
HETATM   20  C19 UNL     1      24.312   4.641  34.081  1.00  0.00     0.051 C 
ENDROOT
BRANCH  17  21
HETATM   21  C16 UNL     1      20.959   6.861  31.800  1.00  0.00     0.176 C 
BRANCH  21  22
HETATM   22  O5  UNL     1      22.030   7.057  30.929  1.00  0.00    -0.400 OA
ATOM     23  H5  UNL     1      21.955   7.894  30.486  1.00  0.00     0.209 HD
ENDBRANCH  21  22
ENDBRANCH  17  21
BRANCH  16  24
HETATM   24  O4  UNL     1      19.940   3.900  33.497  1.00  0.00    -0.394 OA
ATOM     25  H4  UNL     1      20.706   3.439  33.818  1.00  0.00     0.210 HD
ENDBRANCH  16  24
BRANCH  12  26
HETATM   26  O3  UNL     1      24.481   8.317  34.047  1.00  0.00    -0.393 OA
ATOM     27  H3  UNL     1      23.843   8.927  34.398  1.00  0.00     0.210 HD
ENDBRANCH  12  26
TORSDOF 4
ENDMDL
MODEL 5
REMARK VINA RESULT: -5.183486665      1.755      4.995
REMARK  4 active torsions:
REMARK  status: ('A' for Active; 'I' for Inactive)
REMARK    1  A    between atoms: C10_12  and  O3_13 
REMARK    2  A    between atoms: C14_18  and  O4_19 
REMARK    3  A    between atoms: C15_21  and  C16_22 
REMARK    4  A    between atoms: C16_22  and  O5_23 
ROOT
HETATM    1  C1  UNL     1      20.220   3.825  33.998  1.00  0.00     0.010 C 
HETATM    2  C2  UNL     1      20.768   5.232  33.873  1.00  0.00    -0.012 C 
HETATM    3  C3  UNL     1      20.020   6.092  32.883  1.00  0.00     0.005 C 
HETATM    4  C4  UNL     1      19.507   7.425  33.388  1.00  0.00     0.003 C 
HETATM    5  C5  UNL     1      19.771   8.640  32.597  1.00  0.00     0.038 C 
HETATM    6  C6  UNL     1      20.800   9.637  32.891  1.00  0.00     0.066 C 
HETATM    7  C7  UNL     1      20.433  10.375  34.168  1.00  0.00     0.046 C 
HETATM    8  O1  UNL     1      20.683  10.600  31.853  1.00  0.00    -0.356 OA
HETATM    9  C8  UNL     1      21.197  10.208  30.659  1.00  0.00     0.339 C 
HETATM   10  O2  UNL     1      22.513   9.750  30.656  1.00  0.00    -0.359 OA
HETATM   11  C9  UNL     1      22.581   8.673  31.604  1.00  0.00     0.159 C 
HETATM   12  C10 UNL     1      23.765   7.825  31.398  1.00  0.00     0.148 C 
HETATM   13  C11 UNL     1      23.506   6.304  31.584  1.00  0.00     0.040 C 
HETATM   14  C12 UNL     1      22.901   6.163  32.870  1.00  0.00     0.008 C 
HETATM   15  C13 UNL     1      22.265   5.027  33.520  1.00  0.00     0.024 C 
HETATM   16  C14 UNL     1      23.089   5.459  34.757  1.00  0.00     0.134 C 
HETATM   17  C15 UNL     1      23.890   6.441  33.960  1.00  0.00     0.011 C 
HETATM   18  C17 UNL     1      23.844   7.868  34.391  1.00  0.00     0.015 C 
HETATM   19  C18 UNL     1      22.655   8.681  34.157  1.00  0.00     0.011 C 
HETATM   20  C19 UNL     1      22.283   9.328  32.897  1.00  0.00     0.051 C 
ENDROOT
BRANCH  17  21
HETATM   21  C16 UNL     1      25.286   5.920  33.758  1.00  0.00     0.176 C 
BRANCH  21  22
HETATM   22  O5  UNL     1      26.216   6.955  33.828  1.00  0.00    -0.400 OA
ATOM     23  H5  UNL     1      27.013   6.664  34.256  1.00  0.00     0.209 HD
ENDBRANCH  21  22
ENDBRANCH  17  21
BRANCH  16  24
HETATM   24  O4  UNL     1      22.381   5.942  35.818  1.00  0.00    -0.394 OA
ATOM     25  H4  UNL     1      22.249   6.882  35.844  1.00  0.00     0.210 HD
ENDBRANCH  16  24
BRANCH  12  26
HETATM   26  O3  UNL     1      24.043   7.896  29.999  1.00  0.00    -0.393 OA
ATOM     27  H3  UNL     1      24.357   7.032  29.761  1.00  0.00     0.210 HD
ENDBRANCH  12  26
TORSDOF 4
ENDMDL
