MODEL 1
REMARK VINA RESULT: -8.950207255      0.000      0.000
REMARK  3 active torsions:
REMARK  status: ('A' for Active; 'I' for Inactive)
REMARK    1  A    between atoms: C12_13  and  O2_14 
REMARK    2  A    between atoms: C16_19  and  O3_20 
REMARK    3  A    between atoms: C19_25  and  O5_26 
ROOT
HETATM    1  C1  UNL     1      18.103   6.687  35.595  1.00  0.00     0.018 C 
HETATM    2  C2  UNL     1      18.831   5.946  34.460  1.00  0.00    -0.012 C 
HETATM    3  C3  UNL     1      18.888   6.885  33.310  1.00  0.00     0.012 C 
HETATM    4  C4  UNL     1      20.238   7.597  33.503  1.00  0.00     0.009 C 
HETATM    5  C5  UNL     1      21.263   6.603  32.905  1.00  0.00     0.033 C 
HETATM    6  C6  UNL     1      22.442   7.391  32.573  1.00  0.00     0.012 C 
HETATM    7  C7  UNL     1      22.126   8.198  31.286  1.00  0.00     0.020 C 
HETATM    8  C8  UNL     1      22.787   8.496  33.573  1.00  0.00     0.181 C 
HETATM    9  O1  UNL     1      23.514   8.090  34.634  1.00  0.00    -0.374 OA
HETATM   10  C9  UNL     1      24.002   6.846  34.662  1.00  0.00     0.111 C 
HETATM   11  C10 UNL     1      23.189   5.811  35.331  1.00  0.00     0.046 C 
HETATM   12  C11 UNL     1      22.448   4.912  34.411  1.00  0.00     0.042 C 
HETATM   13  C12 UNL     1      21.225   5.448  33.767  1.00  0.00     0.067 C 
HETATM   14  C13 UNL     1      20.170   5.498  34.892  1.00  0.00     0.031 C 
HETATM   15  C14 UNL     1      19.917   4.102  35.422  1.00  0.00     0.011 C 
HETATM   16  C15 UNL     1      18.391   3.937  35.489  1.00  0.00     0.033 C 
HETATM   17  C16 UNL     1      18.019   4.697  34.204  1.00  0.00     0.126 C 
HETATM   18  C17 UNL     1      25.492   6.835  35.001  1.00  0.00     0.209 C 
HETATM   19  O4  UNL     1      25.708   7.121  33.641  1.00  0.00    -0.377 OA
HETATM   20  C18 UNL     1      24.572   6.312  33.386  1.00  0.00     0.187 C 
HETATM   21  C19 UNL     1      23.725   6.722  32.220  1.00  0.00     0.161 C 
ENDROOT
BRANCH  13  22
HETATM   22  O2  UNL     1      20.748   4.315  33.031  1.00  0.00    -0.389 OA
ATOM     23  H2  UNL     1      20.824   3.533  33.565  1.00  0.00     0.210 HD
ENDBRANCH  13  22
BRANCH  21  24
HETATM   24  O5  UNL     1      23.580   5.730  31.244  1.00  0.00    -0.392 OA
ATOM     25  H5  UNL     1      24.398   5.299  31.023  1.00  0.00     0.210 HD
ENDBRANCH  21  24
BRANCH  17  26
HETATM   26  O3  UNL     1      16.667   4.965  34.153  1.00  0.00    -0.395 OA
ATOM     27  H3  UNL     1      16.175   4.238  33.790  1.00  0.00     0.210 HD
ENDBRANCH  17  26
TORSDOF 3
ENDMDL
MODEL 2
REMARK VINA RESULT: -8.382381235      1.445      1.778
REMARK  3 active torsions:
REMARK  status: ('A' for Active; 'I' for Inactive)
REMARK    1  A    between atoms: C12_13  and  O2_14 
REMARK    2  A    between atoms: C16_19  and  O3_20 
REMARK    3  A    between atoms: C19_25  and  O5_26 
ROOT
HETATM    1  C1  UNL     1      17.954   6.887  35.218  1.00  0.00     0.018 C 
HETATM    2  C2  UNL     1      18.747   5.849  34.406  1.00  0.00    -0.012 C 
HETATM    3  C3  UNL     1      19.437   6.596  33.323  1.00  0.00     0.012 C 
HETATM    4  C4  UNL     1      20.805   6.930  33.942  1.00  0.00     0.009 C 
HETATM    5  C5  UNL     1      21.623   5.632  33.740  1.00  0.00     0.033 C 
HETATM    6  C6  UNL     1      23.025   6.025  33.805  1.00  0.00     0.012 C 
HETATM    7  C7  UNL     1      23.381   6.732  32.471  1.00  0.00     0.020 C 
HETATM    8  C8  UNL     1      23.349   7.102  34.840  1.00  0.00     0.181 C 
HETATM    9  O1  UNL     1      23.553   6.640  36.092  1.00  0.00    -0.374 OA
HETATM   10  C9  UNL     1      23.616   5.322  36.306  1.00  0.00     0.111 C 
HETATM   11  C10 UNL     1      22.366   4.633  36.685  1.00  0.00     0.046 C 
HETATM   12  C11 UNL     1      21.720   3.869  35.588  1.00  0.00     0.042 C 
HETATM   13  C12 UNL     1      20.977   4.640  34.562  1.00  0.00     0.067 C 
HETATM   14  C13 UNL     1      19.687   5.106  35.270  1.00  0.00     0.031 C 
HETATM   15  C14 UNL     1      18.879   3.904  35.711  1.00  0.00     0.011 C 
HETATM   16  C15 UNL     1      17.433   4.171  35.269  1.00  0.00     0.033 C 
HETATM   17  C16 UNL     1      17.725   4.848  33.918  1.00  0.00     0.126 C 
HETATM   18  C17 UNL     1      24.850   4.944  37.123  1.00  0.00     0.209 C 
HETATM   19  O4  UNL     1      25.556   5.001  35.907  1.00  0.00    -0.377 OA
HETATM   20  C18 UNL     1      24.372   4.508  35.303  1.00  0.00     0.187 C 
HETATM   21  C19 UNL     1      24.094   4.994  33.914  1.00  0.00     0.161 C 
ENDROOT
BRANCH  13  22
HETATM   22  O2  UNL     1      20.442   3.602  33.731  1.00  0.00    -0.389 OA
ATOM     23  H2  UNL     1      21.091   3.343  33.087  1.00  0.00     0.210 HD
ENDBRANCH  13  22
BRANCH  21  24
HETATM   24  O5  UNL     1      23.976   3.973  32.965  1.00  0.00    -0.392 OA
ATOM     25  H5  UNL     1      23.082   3.678  32.841  1.00  0.00     0.210 HD
ENDBRANCH  21  24
BRANCH  17  26
HETATM   26  O3  UNL     1      16.600   5.467  33.414  1.00  0.00    -0.395 OA
ATOM     27  H3  UNL     1      16.160   4.929  32.766  1.00  0.00     0.210 HD
ENDBRANCH  17  26
TORSDOF 3
ENDMDL
MODEL 3
REMARK VINA RESULT: -8.335541274      2.291      4.157
REMARK  3 active torsions:
REMARK  status: ('A' for Active; 'I' for Inactive)
REMARK    1  A    between atoms: C12_13  and  O2_14 
REMARK    2  A    between atoms: C16_19  and  O3_20 
REMARK    3  A    between atoms: C19_25  and  O5_26 
ROOT
HETATM    1  C1  UNL     1      21.231   9.651  33.778  1.00  0.00     0.018 C 
HETATM    2  C2  UNL     1      21.776   8.401  33.067  1.00  0.00    -0.012 C 
HETATM    3  C3  UNL     1      23.257   8.492  33.125  1.00  0.00     0.012 C 
HETATM    4  C4  UNL     1      23.608   7.725  34.411  1.00  0.00     0.009 C 
HETATM    5  C5  UNL     1      23.591   6.243  33.967  1.00  0.00     0.033 C 
HETATM    6  C6  UNL     1      24.400   5.521  34.939  1.00  0.00     0.012 C 
HETATM    7  C7  UNL     1      25.890   5.834  34.642  1.00  0.00     0.020 C 
HETATM    8  C8  UNL     1      24.252   5.994  36.386  1.00  0.00     0.181 C 
HETATM    9  O1  UNL     1      23.206   5.460  37.050  1.00  0.00    -0.374 OA
HETATM   10  C9  UNL     1      22.497   4.478  36.484  1.00  0.00     0.111 C 
HETATM   11  C10 UNL     1      21.298   4.861  35.714  1.00  0.00     0.046 C 
HETATM   12  C11 UNL     1      21.472   4.840  34.240  1.00  0.00     0.042 C 
HETATM   13  C12 UNL     1      22.219   5.961  33.623  1.00  0.00     0.067 C 
HETATM   14  C13 UNL     1      21.260   7.167  33.694  1.00  0.00     0.031 C 
HETATM   15  C14 UNL     1      20.004   6.872  32.900  1.00  0.00     0.011 C 
HETATM   16  C15 UNL     1      19.746   8.109  32.026  1.00  0.00     0.033 C 
HETATM   17  C16 UNL     1      21.203   8.448  31.668  1.00  0.00     0.126 C 
HETATM   18  C17 UNL     1      22.320   3.295  37.435  1.00  0.00     0.209 C 
HETATM   19  O4  UNL     1      23.607   2.896  37.027  1.00  0.00    -0.377 OA
HETATM   20  C18 UNL     1      23.265   3.422  35.755  1.00  0.00     0.187 C 
HETATM   21  C19 UNL     1      24.390   4.032  34.976  1.00  0.00     0.161 C 
ENDROOT
BRANCH  13  22
HETATM   22  O2  UNL     1      22.128   5.654  32.225  1.00  0.00    -0.389 OA
ATOM     23  H2  UNL     1      21.270   5.294  32.034  1.00  0.00     0.210 HD
ENDBRANCH  13  22
BRANCH  21  24
HETATM   24  O5  UNL     1      24.599   3.447  33.723  1.00  0.00    -0.392 OA
ATOM     25  H5  UNL     1      24.272   3.974  33.003  1.00  0.00     0.210 HD
ENDBRANCH  21  24
BRANCH  17  26
HETATM   26  O3  UNL     1      21.305   9.707  31.114  1.00  0.00    -0.395 OA
ATOM     27  H3  UNL     1      22.074  10.169  31.425  1.00  0.00     0.210 HD
ENDBRANCH  17  26
TORSDOF 3
ENDMDL
MODEL 4
REMARK VINA RESULT: -7.774316423      2.474      4.906
REMARK  3 active torsions:
REMARK  status: ('A' for Active; 'I' for Inactive)
REMARK    1  A    between atoms: C12_13  and  O2_14 
REMARK    2  A    between atoms: C16_19  and  O3_20 
REMARK    3  A    between atoms: C19_25  and  O5_26 
ROOT
HETATM    1  C1  UNL     1      24.500   1.993  35.701  1.00  0.00     0.018 C 
HETATM    2  C2  UNL     1      24.288   3.433  36.198  1.00  0.00    -0.012 C 
HETATM    3  C3  UNL     1      25.425   4.234  35.674  1.00  0.00     0.012 C 
HETATM    4  C4  UNL     1      24.887   4.778  34.340  1.00  0.00     0.009 C 
HETATM    5  C5  UNL     1      24.050   6.010  34.760  1.00  0.00     0.033 C 
HETATM    6  C6  UNL     1      23.956   6.856  33.577  1.00  0.00     0.012 C 
HETATM    7  C7  UNL     1      25.325   7.561  33.390  1.00  0.00     0.020 C 
HETATM    8  C8  UNL     1      23.792   6.106  32.255  1.00  0.00     0.181 C 
HETATM    9  O1  UNL     1      22.523   5.763  31.953  1.00  0.00    -0.374 OA
HETATM   10  C9  UNL     1      21.519   6.219  32.710  1.00  0.00     0.111 C 
HETATM   11  C10 UNL     1      21.062   5.363  33.822  1.00  0.00     0.046 C 
HETATM   12  C11 UNL     1      21.536   5.782  35.165  1.00  0.00     0.042 C 
HETATM   13  C12 UNL     1      22.944   5.481  35.519  1.00  0.00     0.067 C 
HETATM   14  C13 UNL     1      22.978   3.958  35.761  1.00  0.00     0.031 C 
HETATM   15  C14 UNL     1      22.059   3.599  36.910  1.00  0.00     0.011 C 
HETATM   16  C15 UNL     1      22.859   2.662  37.826  1.00  0.00     0.033 C 
HETATM   17  C16 UNL     1      24.235   3.339  37.706  1.00  0.00     0.126 C 
HETATM   18  C17 UNL     1      20.413   6.840  31.859  1.00  0.00     0.209 C 
HETATM   19  O4  UNL     1      21.210   7.999  31.836  1.00  0.00    -0.377 OA
HETATM   20  C18 UNL     1      21.598   7.645  33.154  1.00  0.00     0.187 C 
HETATM   21  C19 UNL     1      23.002   7.999  33.539  1.00  0.00     0.161 C 
ENDROOT
BRANCH  13  22
HETATM   22  O2  UNL     1      23.024   5.948  36.872  1.00  0.00    -0.389 OA
ATOM     23  H2  UNL     1      22.459   6.705  36.981  1.00  0.00     0.210 HD
ENDBRANCH  13  22
BRANCH  21  24
HETATM   24  O5  UNL     1      23.093   8.832  34.659  1.00  0.00    -0.392 OA
ATOM     25  H5  UNL     1      22.825   9.727  34.484  1.00  0.00     0.210 HD
ENDBRANCH  21  24
BRANCH  17  26
HETATM   26  O3  UNL     1      25.237   2.534  38.205  1.00  0.00    -0.395 OA
ATOM     27  H3  UNL     1      25.185   2.448  39.150  1.00  0.00     0.210 HD
ENDBRANCH  17  26
TORSDOF 3
ENDMDL
MODEL 5
REMARK VINA RESULT: -7.653309156      2.545      4.934
REMARK  3 active torsions:
REMARK  status: ('A' for Active; 'I' for Inactive)
REMARK    1  A    between atoms: C12_13  and  O2_14 
REMARK    2  A    between atoms: C16_19  and  O3_20 
REMARK    3  A    between atoms: C19_25  and  O5_26 
ROOT
HETATM    1  C1  UNL     1      24.497   4.187  38.042  1.00  0.00     0.018 C 
HETATM    2  C2  UNL     1      24.406   3.675  36.594  1.00  0.00    -0.012 C 
HETATM    3  C3  UNL     1      22.998   3.250  36.384  1.00  0.00     0.012 C 
HETATM    4  C4  UNL     1      22.328   4.514  35.817  1.00  0.00     0.009 C 
HETATM    5  C5  UNL     1      22.696   4.478  34.314  1.00  0.00     0.033 C 
HETATM    6  C6  UNL     1      21.704   5.301  33.637  1.00  0.00     0.012 C 
HETATM    7  C7  UNL     1      20.382   4.492  33.570  1.00  0.00     0.020 C 
HETATM    8  C8  UNL     1      21.277   6.559  34.395  1.00  0.00     0.181 C 
HETATM    9  O1  UNL     1      22.089   7.623  34.226  1.00  0.00    -0.374 OA
HETATM   10  C9  UNL     1      23.074   7.565  33.325  1.00  0.00     0.111 C 
HETATM   11  C10 UNL     1      24.403   7.131  33.797  1.00  0.00     0.046 C 
HETATM   12  C11 UNL     1      24.756   5.729  33.462  1.00  0.00     0.042 C 
HETATM   13  C12 UNL     1      24.127   4.654  34.265  1.00  0.00     0.067 C 
HETATM   14  C13 UNL     1      24.832   4.715  35.636  1.00  0.00     0.031 C 
HETATM   15  C14 UNL     1      26.312   4.446  35.466  1.00  0.00     0.011 C 
HETATM   16  C15 UNL     1      26.690   3.417  36.541  1.00  0.00     0.033 C 
HETATM   17  C16 UNL     1      25.416   2.555  36.494  1.00  0.00     0.126 C 
HETATM   18  C17 UNL     1      23.066   8.785  32.406  1.00  0.00     0.209 C 
HETATM   19  O4  UNL     1      22.067   8.114  31.678  1.00  0.00    -0.377 OA
HETATM   20  C18 UNL     1      22.755   6.920  32.013  1.00  0.00     0.187 C 
HETATM   21  C19 UNL     1      21.900   5.707  32.217  1.00  0.00     0.161 C 
ENDROOT
BRANCH  13  22
HETATM   22  O2  UNL     1      24.737   3.474  33.726  1.00  0.00    -0.389 OA
ATOM     23  H2  UNL     1      25.615   3.679  33.427  1.00  0.00     0.210 HD
ENDBRANCH  13  22
BRANCH  21  24
HETATM   24  O5  UNL     1      22.219   4.636  31.375  1.00  0.00    -0.392 OA
ATOM     25  H5  UNL     1      23.149   4.568  31.192  1.00  0.00     0.210 HD
ENDBRANCH  21  24
BRANCH  17  26
HETATM   26  O3  UNL     1      25.346   1.703  37.577  1.00  0.00    -0.395 OA
ATOM     27  H3  UNL     1      25.526   0.803  37.331  1.00  0.00     0.210 HD
ENDBRANCH  17  26
TORSDOF 3
ENDMDL
