MODEL 1
REMARK VINA RESULT: -9.592607537      0.000      0.000
REMARK  4 active torsions:
REMARK  status: ('A' for Active; 'I' for Inactive)
REMARK    1  A    between atoms: O1_2  and  C2_3 
REMARK    2  A    between atoms: C4_5  and  O2_6 
REMARK    3  A    between atoms: C18_22  and  O4_23 
REMARK    4  A    between atoms: C19_25  and  O5_26 
ROOT
HETATM    1  C2  UNL     1      23.175   7.558  31.968  1.00  0.00     0.155 C 
HETATM    2  C3  UNL     1      21.763   7.062  31.971  1.00  0.00     0.079 C 
HETATM    3  C4  UNL     1      20.779   8.137  32.453  1.00  0.00     0.199 C 
HETATM    4  C5  UNL     1      19.737   7.659  33.244  1.00  0.00    -0.075 C 
HETATM    5  C6  UNL     1      18.900   7.291  33.894  1.00  0.00    -0.104 C 
HETATM    6  C7  UNL     1      17.843   6.844  34.733  1.00  0.00     0.094 C 
HETATM    7  C8  UNL     1      16.717   6.155  34.018  1.00  0.00     0.012 C 
HETATM    8  C9  UNL     1      16.990   4.744  33.652  1.00  0.00     0.001 C 
HETATM    9  C10 UNL     1      18.085   4.086  34.413  1.00  0.00     0.000 C 
HETATM   10  C11 UNL     1      17.614   3.497  35.742  1.00  0.00     0.000 C 
HETATM   11  C12 UNL     1      18.795   2.771  36.348  1.00  0.00     0.002 C 
HETATM   12  C13 UNL     1      19.583   3.677  37.245  1.00  0.00     0.026 C 
HETATM   13  C14 UNL     1      21.060   3.302  37.214  1.00  0.00     0.167 C 
HETATM   14  O3  UNL     1      21.654   4.092  36.220  1.00  0.00    -0.391 OA
HETATM   15  C15 UNL     1      23.028   4.189  36.459  1.00  0.00     0.167 C 
HETATM   16  C16 UNL     1      23.777   4.561  35.213  1.00  0.00     0.029 C 
HETATM   17  C17 UNL     1      24.303   5.986  35.251  1.00  0.00     0.036 C 
HETATM   18  C18 UNL     1      23.512   6.885  34.345  1.00  0.00     0.149 C 
HETATM   19  C19 UNL     1      24.075   6.831  32.926  1.00  0.00     0.175 C 
ENDROOT
BRANCH   1  20
HETATM   20  O1  UNL     1      23.764   7.565  30.728  1.00  0.00    -0.388 OA
HETATM   21  C1  UNL     1      24.020   8.824  30.225  1.00  0.00     0.202 C 
ENDBRANCH   1  20
BRANCH  19  22
HETATM   22  O5  UNL     1      24.386   5.554  32.536  1.00  0.00    -0.390 OA
ATOM     23  H5  UNL     1      25.018   5.510  31.828  1.00  0.00     0.210 HD
ENDBRANCH  19  22
BRANCH   3  24
HETATM   24  O2  UNL     1      20.280   8.857  31.358  1.00  0.00    -0.383 OA
ATOM     25  H2  UNL     1      20.113   9.758  31.610  1.00  0.00     0.211 HD
ENDBRANCH   3  24
BRANCH  18  26
HETATM   26  O4  UNL     1      23.695   8.196  34.798  1.00  0.00    -0.393 OA
ATOM     27  H4  UNL     1      22.847   8.518  35.082  1.00  0.00     0.210 HD
ENDBRANCH  18  26
TORSDOF 4
ENDMDL
MODEL 2
REMARK VINA RESULT: -8.454718623      1.982      5.484
REMARK  4 active torsions:
REMARK  status: ('A' for Active; 'I' for Inactive)
REMARK    1  A    between atoms: O1_2  and  C2_3 
REMARK    2  A    between atoms: C4_5  and  O2_6 
REMARK    3  A    between atoms: C18_22  and  O4_23 
REMARK    4  A    between atoms: C19_25  and  O5_26 
ROOT
HETATM    1  C2  UNL     1      24.856   4.097  36.883  1.00  0.00     0.155 C 
HETATM    2  C3  UNL     1      23.421   4.328  37.241  1.00  0.00     0.079 C 
HETATM    3  C4  UNL     1      22.577   3.056  37.078  1.00  0.00     0.199 C 
HETATM    4  C5  UNL     1      21.296   3.269  36.578  1.00  0.00    -0.075 C 
HETATM    5  C6  UNL     1      20.265   3.423  36.163  1.00  0.00    -0.104 C 
HETATM    6  C7  UNL     1      18.961   3.597  35.622  1.00  0.00     0.094 C 
HETATM    7  C8  UNL     1      17.943   4.131  36.587  1.00  0.00     0.012 C 
HETATM    8  C9  UNL     1      18.018   5.594  36.817  1.00  0.00     0.001 C 
HETATM    9  C10 UNL     1      18.730   6.372  35.768  1.00  0.00     0.000 C 
HETATM   10  C11 UNL     1      17.828   6.749  34.594  1.00  0.00     0.000 C 
HETATM   11  C12 UNL     1      18.649   7.622  33.669  1.00  0.00     0.002 C 
HETATM   12  C13 UNL     1      19.344   6.799  32.626  1.00  0.00     0.026 C 
HETATM   13  C14 UNL     1      20.676   7.436  32.248  1.00  0.00     0.167 C 
HETATM   14  O3  UNL     1      21.647   6.854  33.074  1.00  0.00    -0.391 OA
HETATM   15  C15 UNL     1      22.906   6.986  32.480  1.00  0.00     0.167 C 
HETATM   16  C16 UNL     1      24.007   6.864  33.492  1.00  0.00     0.029 C 
HETATM   17  C17 UNL     1      24.775   5.560  33.366  1.00  0.00     0.036 C 
HETATM   18  C18 UNL     1      24.435   4.613  34.481  1.00  0.00     0.149 C 
HETATM   19  C19 UNL     1      25.320   4.890  35.695  1.00  0.00     0.175 C 
ENDROOT
BRANCH   1  20
HETATM   20  O1  UNL     1      25.732   4.303  37.920  1.00  0.00    -0.388 OA
HETATM   21  C1  UNL     1      26.017   3.173  38.660  1.00  0.00     0.202 C 
ENDBRANCH   1  20
BRANCH  19  22
HETATM   22  O5  UNL     1      25.463   6.231  35.942  1.00  0.00    -0.390 OA
ATOM     23  H5  UNL     1      25.679   6.744  35.173  1.00  0.00     0.210 HD
ENDBRANCH  19  22
BRANCH   3  24
HETATM   24  O2  UNL     1      22.527   2.355  38.291  1.00  0.00    -0.383 OA
ATOM     25  H2  UNL     1      23.088   2.775  38.933  1.00  0.00     0.211 HD
ENDBRANCH   3  24
BRANCH  18  26
HETATM   26  O4  UNL     1      24.751   3.323  34.042  1.00  0.00    -0.393 OA
ATOM     27  H4  UNL     1      24.704   3.328  33.093  1.00  0.00     0.210 HD
ENDBRANCH  18  26
TORSDOF 4
ENDMDL
MODEL 3
REMARK VINA RESULT: -8.014705287      2.169      6.759
REMARK  4 active torsions:
REMARK  status: ('A' for Active; 'I' for Inactive)
REMARK    1  A    between atoms: O1_2  and  C2_3 
REMARK    2  A    between atoms: C4_5  and  O2_6 
REMARK    3  A    between atoms: C18_22  and  O4_23 
REMARK    4  A    between atoms: C19_25  and  O5_26 
ROOT
HETATM    1  C2  UNL     1      17.554   4.339  34.780  1.00  0.00     0.155 C 
HETATM    2  C3  UNL     1      18.860   3.658  35.046  1.00  0.00     0.079 C 
HETATM    3  C4  UNL     1      19.223   3.676  36.537  1.00  0.00     0.199 C 
HETATM    4  C5  UNL     1      20.576   3.866  36.803  1.00  0.00    -0.075 C 
HETATM    5  C6  UNL     1      21.662   4.032  37.035  1.00  0.00    -0.104 C 
HETATM    6  C7  UNL     1      23.031   4.259  37.346  1.00  0.00     0.094 C 
HETATM    7  C8  UNL     1      23.926   3.069  37.157  1.00  0.00     0.012 C 
HETATM    8  C9  UNL     1      24.315   2.805  35.750  1.00  0.00     0.001 C 
HETATM    9  C10 UNL     1      24.171   3.957  34.820  1.00  0.00     0.000 C 
HETATM   10  C11 UNL     1      25.387   4.883  34.830  1.00  0.00     0.000 C 
HETATM   11  C12 UNL     1      25.150   5.935  33.767  1.00  0.00     0.002 C 
HETATM   12  C13 UNL     1      24.466   7.138  34.343  1.00  0.00     0.026 C 
HETATM   13  C14 UNL     1      23.559   7.782  33.301  1.00  0.00     0.167 C 
HETATM   14  O3  UNL     1      22.287   7.218  33.473  1.00  0.00    -0.391 OA
HETATM   15  C15 UNL     1      21.320   8.076  32.939  1.00  0.00     0.167 C 
HETATM   16  C16 UNL     1      20.048   7.343  32.628  1.00  0.00     0.029 C 
HETATM   17  C17 UNL     1      18.924   7.689  33.590  1.00  0.00     0.036 C 
HETATM   18  C18 UNL     1      18.654   6.563  34.546  1.00  0.00     0.149 C 
HETATM   19  C19 UNL     1      17.673   5.570  33.928  1.00  0.00     0.175 C 
ENDROOT
BRANCH   1  20
HETATM   20  O1  UNL     1      16.595   3.519  34.239  1.00  0.00    -0.388 OA
HETATM   21  C1  UNL     1      16.045   3.985  33.061  1.00  0.00     0.202 C 
ENDBRANCH   1  20
BRANCH  19  22
HETATM   22  O5  UNL     1      17.953   5.309  32.612  1.00  0.00    -0.390 OA
ATOM     23  H5  UNL     1      18.632   5.864  32.245  1.00  0.00     0.210 HD
ENDBRANCH  19  22
BRANCH   3  24
HETATM   24  O2  UNL     1      18.753   2.511  37.159  1.00  0.00    -0.383 OA
ATOM     25  H2  UNL     1      19.376   2.219  37.815  1.00  0.00     0.211 HD
ENDBRANCH   3  24
BRANCH  18  26
HETATM   26  O4  UNL     1      18.018   7.111  35.665  1.00  0.00    -0.393 OA
ATOM     27  H4  UNL     1      17.335   7.689  35.347  1.00  0.00     0.210 HD
ENDBRANCH  18  26
TORSDOF 4
ENDMDL
MODEL 4
REMARK VINA RESULT: -7.431472924      1.706      4.803
REMARK  4 active torsions:
REMARK  status: ('A' for Active; 'I' for Inactive)
REMARK    1  A    between atoms: O1_2  and  C2_3 
REMARK    2  A    between atoms: C4_5  and  O2_6 
REMARK    3  A    between atoms: C18_22  and  O4_23 
REMARK    4  A    between atoms: C19_25  and  O5_26 
ROOT
HETATM    1  C2  UNL     1      25.278   7.134  33.631  1.00  0.00     0.155 C 
HETATM    2  C3  UNL     1      24.683   6.460  34.828  1.00  0.00     0.079 C 
HETATM    3  C4  UNL     1      24.876   4.939  34.785  1.00  0.00     0.199 C 
HETATM    4  C5  UNL     1      23.796   4.201  35.261  1.00  0.00    -0.075 C 
HETATM    5  C6  UNL     1      22.927   3.593  35.628  1.00  0.00    -0.104 C 
HETATM    6  C7  UNL     1      21.830   2.807  36.075  1.00  0.00     0.094 C 
HETATM    7  C8  UNL     1      21.673   2.730  37.566  1.00  0.00     0.012 C 
HETATM    8  C9  UNL     1      21.040   3.921  38.183  1.00  0.00     0.001 C 
HETATM    9  C10 UNL     1      20.253   4.779  37.257  1.00  0.00     0.000 C 
HETATM   10  C11 UNL     1      18.817   4.291  37.071  1.00  0.00     0.000 C 
HETATM   11  C12 UNL     1      18.113   5.311  36.203  1.00  0.00     0.002 C 
HETATM   12  C13 UNL     1      18.222   4.952  34.752  1.00  0.00     0.026 C 
HETATM   13  C14 UNL     1      18.265   6.212  33.894  1.00  0.00     0.167 C 
HETATM   14  O3  UNL     1      19.618   6.530  33.717  1.00  0.00    -0.391 OA
HETATM   15  C15 UNL     1      19.766   7.325  32.576  1.00  0.00     0.167 C 
HETATM   16  C16 UNL     1      21.048   8.103  32.611  1.00  0.00     0.029 C 
HETATM   17  C17 UNL     1      22.074   7.584  31.619  1.00  0.00     0.036 C 
HETATM   18  C18 UNL     1      23.183   6.846  32.313  1.00  0.00     0.149 C 
HETATM   19  C19 UNL     1      24.269   7.822  32.758  1.00  0.00     0.175 C 
ENDROOT
BRANCH   1  20
HETATM   20  O1  UNL     1      26.282   8.022  33.929  1.00  0.00    -0.388 OA
HETATM   21  C1  UNL     1      27.463   7.433  34.335  1.00  0.00     0.202 C 
ENDBRANCH   1  20
BRANCH  19  22
HETATM   22  O5  UNL     1      23.749   8.967  33.305  1.00  0.00    -0.390 OA
ATOM     23  H5  UNL     1      24.363   9.449  33.847  1.00  0.00     0.210 HD
ENDBRANCH  19  22
BRANCH   3  24
HETATM   24  O2  UNL     1      26.054   4.585  35.459  1.00  0.00    -0.383 OA
ATOM     25  H2  UNL     1      26.164   5.131  36.230  1.00  0.00     0.211 HD
ENDBRANCH   3  24
BRANCH  18  26
HETATM   26  O4  UNL     1      23.771   5.996  31.369  1.00  0.00    -0.393 OA
ATOM     27  H4  UNL     1      23.185   5.955  30.622  1.00  0.00     0.210 HD
ENDBRANCH  18  26
TORSDOF 4
ENDMDL
MODEL 5
REMARK VINA RESULT: -7.353296914      1.599      5.060
REMARK  4 active torsions:
REMARK  status: ('A' for Active; 'I' for Inactive)
REMARK    1  A    between atoms: O1_2  and  C2_3 
REMARK    2  A    between atoms: C4_5  and  O2_6 
REMARK    3  A    between atoms: C18_22  and  O4_23 
REMARK    4  A    between atoms: C19_25  and  O5_26 
ROOT
HETATM    1  C2  UNL     1      21.330   8.347  32.508  1.00  0.00     0.155 C 
HETATM    2  C3  UNL     1      22.373   7.792  33.426  1.00  0.00     0.079 C 
HETATM    3  C4  UNL     1      23.312   6.816  32.704  1.00  0.00     0.199 C 
HETATM    4  C5  UNL     1      23.697   5.712  33.460  1.00  0.00    -0.075 C 
HETATM    5  C6  UNL     1      24.006   4.811  34.052  1.00  0.00    -0.104 C 
HETATM    6  C7  UNL     1      24.393   3.653  34.782  1.00  0.00     0.094 C 
HETATM    7  C8  UNL     1      25.455   3.885  35.817  1.00  0.00     0.012 C 
HETATM    8  C9  UNL     1      24.966   4.489  37.080  1.00  0.00     0.001 C 
HETATM    9  C10 UNL     1      23.507   4.353  37.330  1.00  0.00     0.000 C 
HETATM   10  C11 UNL     1      23.138   3.026  37.993  1.00  0.00     0.000 C 
HETATM   11  C12 UNL     1      21.655   3.074  38.285  1.00  0.00     0.002 C 
HETATM   12  C13 UNL     1      20.861   2.509  37.146  1.00  0.00     0.026 C 
HETATM   13  C14 UNL     1      19.516   3.216  37.034  1.00  0.00     0.167 C 
HETATM   14  O3  UNL     1      19.691   4.273  36.131  1.00  0.00    -0.391 OA
HETATM   15  C15 UNL     1      18.453   4.640  35.594  1.00  0.00     0.167 C 
HETATM   16  C16 UNL     1      18.485   6.037  35.047  1.00  0.00     0.029 C 
HETATM   17  C17 UNL     1      18.450   6.070  33.529  1.00  0.00     0.036 C 
HETATM   18  C18 UNL     1      19.789   6.441  32.958  1.00  0.00     0.149 C 
HETATM   19  C19 UNL     1      19.927   7.959  32.879  1.00  0.00     0.175 C 
ENDROOT
BRANCH   1  20
HETATM   20  O1  UNL     1      21.385   9.711  32.358  1.00  0.00    -0.388 OA
HETATM   21  C1  UNL     1      20.406  10.234  31.537  1.00  0.00     0.202 C 
ENDBRANCH   1  20
BRANCH  19  22
HETATM   22  O5  UNL     1      19.456   8.585  34.004  1.00  0.00    -0.390 OA
ATOM     23  H5  UNL     1      18.689   8.172  34.383  1.00  0.00     0.210 HD
ENDBRANCH  19  22
BRANCH   3  24
HETATM   24  O2  UNL     1      24.434   7.501  32.217  1.00  0.00    -0.383 OA
ATOM     25  H2  UNL     1      25.228   7.037  32.458  1.00  0.00     0.211 HD
ENDBRANCH   3  24
BRANCH  18  26
HETATM   26  O4  UNL     1      19.825   5.967  31.642  1.00  0.00    -0.393 OA
ATOM     27  H4  UNL     1      18.978   5.577  31.459  1.00  0.00     0.210 HD
ENDBRANCH  18  26
TORSDOF 4
ENDMDL
