MODEL 1
REMARK VINA RESULT: -6.066082344      0.000      0.000
REMARK  5 active torsions:
REMARK  status: ('A' for Active; 'I' for Inactive)
REMARK    1  A    between atoms: C2_3  and  N2_4 
REMARK    2  A    between atoms: C4_11  and  C5_12 
REMARK    3  A    between atoms: C5_12  and  N4_13 
REMARK    4  A    between atoms: N5_15  and  N6_17 
REMARK    5  A    between atoms: C6_20  and  N7_21 
ROOT
HETATM    1  C1  UNL     1      28.197  51.136  57.653  1.00  0.00     0.177 C 
HETATM    2  N1  UNL     1      28.181  51.408  59.096  1.00  0.00    -0.173 N 
HETATM    3  C2  UNL     1      28.326  52.625  59.600  1.00  0.00     0.680 A 
HETATM    4  N3  UNL     1      28.308  52.847  60.942  1.00  0.00    -0.180 N 
ATOM      5  H3  UNL     1      28.421  53.790  61.315  1.00  0.00     0.185 HD
HETATM    6  C3  UNL     1      28.137  51.797  61.767  1.00  0.00     0.131 A 
HETATM    7 CL1  UNL     1      28.104  52.013  63.510  1.00  0.00    -0.063 Cl
HETATM    8  C4  UNL     1      27.982  50.512  61.288  1.00  0.00     0.044 A 
HETATM    9  C6  UNL     1      28.009  50.345  59.921  1.00  0.00     0.128 A 
ENDROOT
BRANCH   8  10
HETATM   10  C5  UNL     1      27.795  49.354  62.187  1.00  0.00     0.186 C 
BRANCH  10  11
HETATM   11  N4  UNL     1      29.032  48.772  62.597  1.00  0.00    -0.318 N 
HETATM   12  N5  UNL     1      29.364  48.627  63.826  1.00  0.00    -0.254 N 
ATOM     13  H5  UNL     1      28.752  48.925  64.585  1.00  0.00     0.207 HD
ATOM     14  H4  UNL     1      29.682  48.457  61.877  1.00  0.00     0.182 HD
BRANCH  12  15
HETATM   15  N6  UNL     1      30.608  48.040  64.073  1.00  0.00    -0.331 N 
ATOM     16  H62 UNL     1      31.442  48.354  63.576  1.00  0.00     0.178 HD
ATOM     17  H61 UNL     1      30.632  47.293  64.768  1.00  0.00     0.178 HD
ENDBRANCH  12  15
ENDBRANCH  10  11
ENDBRANCH   8  10
BRANCH   9  18
HETATM   18  N7  UNL     1      27.865  49.145  59.465  1.00  0.00    -0.384 N 
ATOM     19  H72 UNL     1      26.984  48.671  59.662  1.00  0.00     0.157 HD
ATOM     20  H71 UNL     1      28.597  48.682  58.927  1.00  0.00     0.157 HD
ENDBRANCH   9  18
BRANCH   3  21
HETATM   21  N2  UNL     1      28.489  53.616  58.767  1.00  0.00    -0.234 N 
ATOM     22  H22 UNL     1      28.263  53.504  57.778  1.00  0.00     0.174 HD
ATOM     23  H21 UNL     1      28.846  54.498  59.137  1.00  0.00     0.174 HD
ENDBRANCH   3  21
TORSDOF 5
ENDMDL
MODEL 2
REMARK VINA RESULT: -5.844200108      1.523      1.807
REMARK  5 active torsions:
REMARK  status: ('A' for Active; 'I' for Inactive)
REMARK    1  A    between atoms: C2_3  and  N2_4 
REMARK    2  A    between atoms: C4_11  and  C5_12 
REMARK    3  A    between atoms: C5_12  and  N4_13 
REMARK    4  A    between atoms: N5_15  and  N6_17 
REMARK    5  A    between atoms: C6_20  and  N7_21 
ROOT
HETATM    1  C1  UNL     1      29.524  49.976  57.276  1.00  0.00     0.177 C 
HETATM    2  N1  UNL     1      29.252  50.993  58.301  1.00  0.00    -0.173 N 
HETATM    3  C2  UNL     1      29.651  52.251  58.189  1.00  0.00     0.680 A 
HETATM    4  N3  UNL     1      29.385  53.171  59.155  1.00  0.00    -0.180 N 
ATOM      5  H3  UNL     1      29.699  54.137  59.055  1.00  0.00     0.185 HD
HETATM    6  C3  UNL     1      28.698  52.780  60.245  1.00  0.00     0.131 A 
HETATM    7 CL1  UNL     1      28.320  53.917  61.530  1.00  0.00    -0.063 Cl
HETATM    8  C4  UNL     1      28.262  51.481  60.405  1.00  0.00     0.044 A 
HETATM    9  C6  UNL     1      28.560  50.591  59.396  1.00  0.00     0.128 A 
ENDROOT
BRANCH   8  10
HETATM   10  C5  UNL     1      27.508  51.045  61.598  1.00  0.00     0.186 C 
BRANCH  10  11
HETATM   11  N4  UNL     1      28.355  50.528  62.624  1.00  0.00    -0.318 N 
HETATM   12  N5  UNL     1      28.513  49.275  62.838  1.00  0.00    -0.254 N 
ATOM     13  H5  UNL     1      28.034  48.572  62.275  1.00  0.00     0.207 HD
ATOM     14  H4  UNL     1      28.859  51.189  63.216  1.00  0.00     0.182 HD
BRANCH  12  15
HETATM   15  N6  UNL     1      29.375  48.920  63.879  1.00  0.00    -0.331 N 
ATOM     16  H62 UNL     1      29.643  47.946  64.025  1.00  0.00     0.178 HD
ATOM     17  H61 UNL     1      29.713  49.678  64.472  1.00  0.00     0.178 HD
ENDBRANCH  12  15
ENDBRANCH  10  11
ENDBRANCH   8  10
BRANCH   9  18
HETATM   18  N7  UNL     1      28.155  49.374  59.538  1.00  0.00    -0.384 N 
ATOM     19  H72 UNL     1      28.519  48.678  58.887  1.00  0.00     0.157 HD
ATOM     20  H71 UNL     1      27.497  49.107  60.271  1.00  0.00     0.157 HD
ENDBRANCH   9  18
BRANCH   3  21
HETATM   21  N2  UNL     1      30.314  52.590  57.117  1.00  0.00    -0.234 N 
ATOM     22  H22 UNL     1      30.678  51.875  56.487  1.00  0.00     0.174 HD
ATOM     23  H21 UNL     1      30.452  53.584  56.934  1.00  0.00     0.174 HD
ENDBRANCH   3  21
TORSDOF 5
ENDMDL
MODEL 3
REMARK VINA RESULT: -5.690503070      2.087      2.943
REMARK  5 active torsions:
REMARK  status: ('A' for Active; 'I' for Inactive)
REMARK    1  A    between atoms: C2_3  and  N2_4 
REMARK    2  A    between atoms: C4_11  and  C5_12 
REMARK    3  A    between atoms: C5_12  and  N4_13 
REMARK    4  A    between atoms: N5_15  and  N6_17 
REMARK    5  A    between atoms: C6_20  and  N7_21 
ROOT
HETATM    1  C1  UNL     1      29.561  54.305  59.681  1.00  0.00     0.177 C 
HETATM    2  N1  UNL     1      29.217  52.926  59.310  1.00  0.00    -0.173 N 
HETATM    3  C2  UNL     1      29.552  52.390  58.146  1.00  0.00     0.680 A 
HETATM    4  N3  UNL     1      29.219  51.110  57.829  1.00  0.00    -0.180 N 
ATOM      5  H3  UNL     1      29.484  50.711  56.928  1.00  0.00     0.185 HD
HETATM    6  C3  UNL     1      28.532  50.381  58.729  1.00  0.00     0.131 A 
HETATM    7 CL1  UNL     1      28.070  48.721  58.385  1.00  0.00    -0.063 Cl
HETATM    8  C4  UNL     1      28.162  50.896  59.954  1.00  0.00     0.044 A 
HETATM    9  C6  UNL     1      28.525  52.199  60.222  1.00  0.00     0.128 A 
ENDROOT
BRANCH   8  10
HETATM   10  C5  UNL     1      27.408  50.104  60.947  1.00  0.00     0.186 C 
BRANCH  10  11
HETATM   11  N4  UNL     1      28.261  49.362  61.818  1.00  0.00    -0.318 N 
HETATM   12  N5  UNL     1      28.464  49.683  63.042  1.00  0.00    -0.254 N 
ATOM     13  H5  UNL     1      28.020  50.500  63.462  1.00  0.00     0.207 HD
ATOM     14  H4  UNL     1      28.731  48.535  61.449  1.00  0.00     0.182 HD
BRANCH  12  15
HETATM   15  N6  UNL     1      29.326  48.860  63.772  1.00  0.00    -0.331 N 
ATOM     16  H62 UNL     1      29.100  47.877  63.929  1.00  0.00     0.178 HD
ATOM     17  H61 UNL     1      30.177  49.293  64.132  1.00  0.00     0.178 HD
ENDBRANCH  12  15
ENDBRANCH  10  11
ENDBRANCH   8  10
BRANCH   9  18
HETATM   18  N7  UNL     1      28.182  52.688  61.366  1.00  0.00    -0.384 N 
ATOM     19  H72 UNL     1      28.724  53.476  61.722  1.00  0.00     0.157 HD
ATOM     20  H71 UNL     1      27.400  52.310  61.901  1.00  0.00     0.157 HD
ENDBRANCH   9  18
BRANCH   3  21
HETATM   21  N2  UNL     1      30.218  53.129  57.301  1.00  0.00    -0.234 N 
ATOM     22  H22 UNL     1      29.935  54.093  57.123  1.00  0.00     0.174 HD
ATOM     23  H21 UNL     1      31.022  52.712  56.831  1.00  0.00     0.174 HD
ENDBRANCH   3  21
TORSDOF 5
ENDMDL
MODEL 4
REMARK VINA RESULT: -4.793194094      1.536      2.067
REMARK  5 active torsions:
REMARK  status: ('A' for Active; 'I' for Inactive)
REMARK    1  A    between atoms: C2_3  and  N2_4 
REMARK    2  A    between atoms: C4_11  and  C5_12 
REMARK    3  A    between atoms: C5_12  and  N4_13 
REMARK    4  A    between atoms: N5_15  and  N6_17 
REMARK    5  A    between atoms: C6_20  and  N7_21 
ROOT
HETATM    1  C1  UNL     1      28.224  51.084  57.595  1.00  0.00     0.177 C 
HETATM    2  N1  UNL     1      28.211  51.390  59.032  1.00  0.00    -0.173 N 
HETATM    3  C2  UNL     1      28.231  52.628  59.503  1.00  0.00     0.680 A 
HETATM    4  N3  UNL     1      28.219  52.882  60.840  1.00  0.00    -0.180 N 
ATOM      5  H3  UNL     1      28.234  53.841  61.188  1.00  0.00     0.185 HD
HETATM    6  C3  UNL     1      28.184  51.841  61.693  1.00  0.00     0.131 A 
HETATM    7 CL1  UNL     1      28.166  52.097  63.431  1.00  0.00    -0.063 Cl
HETATM    8  C4  UNL     1      28.162  50.535  61.249  1.00  0.00     0.044 A 
HETATM    9  C6  UNL     1      28.177  50.336  59.885  1.00  0.00     0.128 A 
ENDROOT
BRANCH   8  10
HETATM   10  C5  UNL     1      28.125  49.388  62.178  1.00  0.00     0.186 C 
BRANCH  10  11
HETATM   11  N4  UNL     1      26.795  49.013  62.536  1.00  0.00    -0.318 N 
HETATM   12  N5  UNL     1      25.972  48.480  61.712  1.00  0.00    -0.254 N 
ATOM     13  H5  UNL     1      26.229  48.292  60.743  1.00  0.00     0.207 HD
ATOM     14  H4  UNL     1      26.485  49.178  63.494  1.00  0.00     0.182 HD
BRANCH  12  15
HETATM   15  N6  UNL     1      24.703  48.168  62.208  1.00  0.00    -0.331 N 
ATOM     16  H62 UNL     1      24.523  48.156  63.212  1.00  0.00     0.178 HD
ATOM     17  H61 UNL     1      23.982  47.955  61.518  1.00  0.00     0.178 HD
ENDBRANCH  12  15
ENDBRANCH  10  11
ENDBRANCH   8  10
BRANCH   9  18
HETATM   18  N7  UNL     1      28.156  49.117  59.462  1.00  0.00    -0.384 N 
ATOM     19  H72 UNL     1      27.911  48.963  58.484  1.00  0.00     0.157 HD
ATOM     20  H71 UNL     1      28.375  48.330  60.073  1.00  0.00     0.157 HD
ENDBRANCH   9  18
BRANCH   3  21
HETATM   21  N2  UNL     1      28.263  53.610  58.644  1.00  0.00    -0.234 N 
ATOM     22  H22 UNL     1      27.435  53.844  58.095  1.00  0.00     0.174 HD
ATOM     23  H21 UNL     1      29.137  54.128  58.541  1.00  0.00     0.174 HD
ENDBRANCH   3  21
TORSDOF 5
ENDMDL
MODEL 5
REMARK VINA RESULT: -4.685860363      2.091      2.487
REMARK  5 active torsions:
REMARK  status: ('A' for Active; 'I' for Inactive)
REMARK    1  A    between atoms: C2_3  and  N2_4 
REMARK    2  A    between atoms: C4_11  and  C5_12 
REMARK    3  A    between atoms: C5_12  and  N4_13 
REMARK    4  A    between atoms: N5_15  and  N6_17 
REMARK    5  A    between atoms: C6_20  and  N7_21 
ROOT
HETATM    1  C1  UNL     1      29.729  49.984  57.443  1.00  0.00     0.177 C 
HETATM    2  N1  UNL     1      29.389  51.054  58.391  1.00  0.00    -0.173 N 
HETATM    3  C2  UNL     1      29.588  52.337  58.128  1.00  0.00     0.680 A 
HETATM    4  N3  UNL     1      29.263  53.306  59.026  1.00  0.00    -0.180 N 
ATOM      5  H3  UNL     1      29.422  54.291  58.810  1.00  0.00     0.185 HD
HETATM    6  C3  UNL     1      28.727  52.939  60.206  1.00  0.00     0.131 A 
HETATM    7 CL1  UNL     1      28.285  54.138  61.410  1.00  0.00    -0.063 Cl
HETATM    8  C4  UNL     1      28.502  51.615  60.523  1.00  0.00     0.044 A 
HETATM    9  C6  UNL     1      28.850  50.676  59.577  1.00  0.00     0.128 A 
ENDROOT
BRANCH   8  10
HETATM   10  C5  UNL     1      27.915  51.204  61.815  1.00  0.00     0.186 C 
BRANCH  10  11
HETATM   11  N4  UNL     1      26.881  50.233  61.664  1.00  0.00    -0.318 N 
HETATM   12  N5  UNL     1      26.726  49.243  62.463  1.00  0.00    -0.254 N 
ATOM     13  H5  UNL     1      27.345  49.098  63.261  1.00  0.00     0.207 HD
ATOM     14  H4  UNL     1      26.233  50.331  60.881  1.00  0.00     0.182 HD
BRANCH  12  15
HETATM   15  N6  UNL     1      25.668  48.373  62.186  1.00  0.00    -0.331 N 
ATOM     16  H62 UNL     1      25.745  47.376  62.390  1.00  0.00     0.178 HD
ATOM     17  H61 UNL     1      24.830  48.787  61.777  1.00  0.00     0.178 HD
ENDBRANCH  12  15
ENDBRANCH  10  11
ENDBRANCH   8  10
BRANCH   9  18
HETATM   18  N7  UNL     1      28.642  49.435  59.866  1.00  0.00    -0.384 N 
ATOM     19  H72 UNL     1      28.301  48.829  59.121  1.00  0.00     0.157 HD
ATOM     20  H71 UNL     1      28.811  49.064  60.802  1.00  0.00     0.157 HD
ENDBRANCH   9  18
BRANCH   3  21
HETATM   21  N2  UNL     1      30.108  52.652  56.974  1.00  0.00    -0.234 N 
ATOM     22  H22 UNL     1      29.518  53.006  56.220  1.00  0.00     0.174 HD
ATOM     23  H21 UNL     1      31.115  52.533  56.854  1.00  0.00     0.174 HD
ENDBRANCH   3  21
TORSDOF 5
ENDMDL
