MODEL 1
REMARK VINA RESULT: -5.293242443      0.000      0.000
REMARK  3 active torsions:
REMARK  status: ('A' for Active; 'I' for Inactive)
REMARK    1  A    between atoms: N1_1  and  C1_4 
REMARK    2  A    between atoms: C2_5  and  C3_6 
REMARK    3  A    between atoms: N4_11  and  N5_12 
ROOT
HETATM    1  C1  UNL     1      28.559  51.999  59.731  1.00  0.00     0.161 A 
HETATM    2  C2  UNL     1      28.407  50.696  60.190  1.00  0.00     0.080 A 
HETATM    3  N2  UNL     1      29.351  50.001  59.545  1.00  0.00    -0.282 N 
ATOM      4  H2  UNL     1      29.514  49.000  59.655  1.00  0.00     0.184 HD
HETATM    5  N3  UNL     1      30.051  50.803  58.737  1.00  0.00     0.002 NA
HETATM    6  N4  UNL     1      29.570  52.031  58.845  1.00  0.00    -0.169 N 
ENDROOT
BRANCH   1   7
HETATM    7  N1  UNL     1      27.823  52.995  60.130  1.00  0.00    -0.381 N 
ATOM      8  H12 UNL     1      27.712  53.343  61.083  1.00  0.00     0.157 HD
ATOM      9  H11 UNL     1      27.244  53.557  59.506  1.00  0.00     0.157 HD
ENDBRANCH   1   7
BRANCH   2  10
HETATM   10  C3  UNL     1      27.410  50.179  61.177  1.00  0.00     0.147 C 
HETATM   11 BR1  UNL     1      27.961  50.672  62.968  1.00  0.00    -0.090 Br
ENDBRANCH   2  10
BRANCH   6  12
HETATM   12  N5  UNL     1      30.024  53.184  58.160  1.00  0.00    -0.324 N 
ATOM     13  H52 UNL     1      29.518  54.061  58.038  1.00  0.00     0.178 HD
ATOM     14  H51 UNL     1      30.928  53.279  57.698  1.00  0.00     0.178 HD
ENDBRANCH   6  12
TORSDOF 3
ENDMDL
MODEL 2
REMARK VINA RESULT: -5.225858719      1.368      1.533
REMARK  3 active torsions:
REMARK  status: ('A' for Active; 'I' for Inactive)
REMARK    1  A    between atoms: N1_1  and  C1_4 
REMARK    2  A    between atoms: C2_5  and  C3_6 
REMARK    3  A    between atoms: N4_11  and  N5_12 
ROOT
HETATM    1  C1  UNL     1      28.156  51.517  59.408  1.00  0.00     0.161 A 
HETATM    2  C2  UNL     1      28.123  50.766  60.577  1.00  0.00     0.080 A 
HETATM    3  N2  UNL     1      28.366  49.513  60.179  1.00  0.00    -0.282 N 
ATOM      4  H2  UNL     1      28.411  48.704  60.798  1.00  0.00     0.184 HD
HETATM    5  N3  UNL     1      28.543  49.470  58.855  1.00  0.00     0.002 NA
HETATM    6  N4  UNL     1      28.415  50.696  58.375  1.00  0.00    -0.169 N 
ENDROOT
BRANCH   1   7
HETATM    7  N1  UNL     1      27.972  52.805  59.371  1.00  0.00    -0.381 N 
ATOM      8  H12 UNL     1      28.591  53.531  59.732  1.00  0.00     0.157 HD
ATOM      9  H11 UNL     1      27.147  53.247  58.966  1.00  0.00     0.157 HD
ENDBRANCH   1   7
BRANCH   2  10
HETATM   10  C3  UNL     1      27.866  51.245  61.970  1.00  0.00     0.147 C 
HETATM   11 BR1  UNL     1      28.115  49.780  63.213  1.00  0.00    -0.090 Br
ENDBRANCH   2  10
BRANCH   6  12
HETATM   12  N5  UNL     1      28.525  51.093  57.020  1.00  0.00    -0.324 N 
ATOM     13  H52 UNL     1      28.911  51.970  56.670  1.00  0.00     0.178 HD
ATOM     14  H51 UNL     1      28.228  50.541  56.216  1.00  0.00     0.178 HD
ENDBRANCH   6  12
TORSDOF 3
ENDMDL
MODEL 3
REMARK VINA RESULT: -5.069270316      2.673      4.013
REMARK  3 active torsions:
REMARK  status: ('A' for Active; 'I' for Inactive)
REMARK    1  A    between atoms: N1_1  and  C1_4 
REMARK    2  A    between atoms: C2_5  and  C3_6 
REMARK    3  A    between atoms: N4_11  and  N5_12 
ROOT
HETATM    1  C1  UNL     1      27.909  50.190  60.408  1.00  0.00     0.161 A 
HETATM    2  C2  UNL     1      28.297  51.455  59.981  1.00  0.00     0.080 A 
HETATM    3  N2  UNL     1      28.162  52.230  61.063  1.00  0.00    -0.282 N 
ATOM      4  H2  UNL     1      28.365  53.229  61.091  1.00  0.00     0.184 HD
HETATM    5  N3  UNL     1      27.722  51.512  62.100  1.00  0.00     0.002 NA
HETATM    6  N4  UNL     1      27.564  50.259  61.706  1.00  0.00    -0.169 N 
ENDROOT
BRANCH   1   7
HETATM    7  N1  UNL     1      27.908  49.138  59.642  1.00  0.00    -0.381 N 
ATOM      8  H12 UNL     1      28.035  48.165  59.922  1.00  0.00     0.157 HD
ATOM      9  H11 UNL     1      27.781  49.175  58.630  1.00  0.00     0.157 HD
ENDBRANCH   1   7
BRANCH   2  10
HETATM   10  C3  UNL     1      28.757  51.864  58.619  1.00  0.00     0.147 C 
HETATM   11 BR1  UNL     1      29.734  53.533  58.741  1.00  0.00    -0.090 Br
ENDBRANCH   2  10
BRANCH   6  12
HETATM   12  N5  UNL     1      27.113  49.172  62.493  1.00  0.00    -0.324 N 
ATOM     13  H52 UNL     1      26.380  48.505  62.251  1.00  0.00     0.178 HD
ATOM     14  H51 UNL     1      27.473  48.919  63.413  1.00  0.00     0.178 HD
ENDBRANCH   6  12
TORSDOF 3
ENDMDL
MODEL 4
REMARK VINA RESULT: -5.024994391      0.673      2.007
REMARK  3 active torsions:
REMARK  status: ('A' for Active; 'I' for Inactive)
REMARK    1  A    between atoms: N1_1  and  C1_4 
REMARK    2  A    between atoms: C2_5  and  C3_6 
REMARK    3  A    between atoms: N4_11  and  N5_12 
ROOT
HETATM    1  C1  UNL     1      29.137  51.593  59.354  1.00  0.00     0.161 A 
HETATM    2  C2  UNL     1      28.243  51.570  60.418  1.00  0.00     0.080 A 
HETATM    3  N2  UNL     1      27.933  52.854  60.624  1.00  0.00    -0.282 N 
ATOM      4  H2  UNL     1      27.293  53.191  61.344  1.00  0.00     0.184 HD
HETATM    5  N3  UNL     1      28.582  53.636  59.756  1.00  0.00     0.002 NA
HETATM    6  N4  UNL     1      29.323  52.869  58.974  1.00  0.00    -0.169 N 
ENDROOT
BRANCH   1   7
HETATM    7  N1  UNL     1      29.673  50.525  58.838  1.00  0.00    -0.381 N 
ATOM      8  H12 UNL     1      29.220  49.630  58.653  1.00  0.00     0.157 HD
ATOM      9  H11 UNL     1      30.651  50.462  58.556  1.00  0.00     0.157 HD
ENDBRANCH   1   7
BRANCH   2  10
HETATM   10  C3  UNL     1      27.740  50.380  61.171  1.00  0.00     0.147 C 
HETATM   11 BR1  UNL     1      27.887  50.711  63.074  1.00  0.00    -0.090 Br
ENDBRANCH   2  10
BRANCH   6  12
HETATM   12  N5  UNL     1      30.168  53.295  57.920  1.00  0.00    -0.324 N 
ATOM     13  H52 UNL     1      31.148  53.048  57.785  1.00  0.00     0.178 HD
ATOM     14  H51 UNL     1      29.893  53.911  57.155  1.00  0.00     0.178 HD
ENDBRANCH   6  12
TORSDOF 3
ENDMDL
MODEL 5
REMARK VINA RESULT: -4.915430141      1.286      1.977
REMARK  3 active torsions:
REMARK  status: ('A' for Active; 'I' for Inactive)
REMARK    1  A    between atoms: N1_1  and  C1_4 
REMARK    2  A    between atoms: C2_5  and  C3_6 
REMARK    3  A    between atoms: N4_11  and  N5_12 
ROOT
HETATM    1  C1  UNL     1      29.033  51.113  59.121  1.00  0.00     0.161 A 
HETATM    2  C2  UNL     1      28.221  50.857  60.219  1.00  0.00     0.080 A 
HETATM    3  N2  UNL     1      27.754  49.621  60.010  1.00  0.00    -0.282 N 
ATOM      4  H2  UNL     1      27.120  49.124  60.637  1.00  0.00     0.184 HD
HETATM    5  N3  UNL     1      28.234  49.128  58.864  1.00  0.00     0.002 NA
HETATM    6  N4  UNL     1      29.019  50.039  58.313  1.00  0.00    -0.169 N 
ENDROOT
BRANCH   1   7
HETATM    7  N1  UNL     1      29.688  52.225  58.952  1.00  0.00    -0.381 N 
ATOM      8  H12 UNL     1      29.330  53.109  58.590  1.00  0.00     0.157 HD
ATOM      9  H11 UNL     1      30.680  52.335  59.164  1.00  0.00     0.157 HD
ENDBRANCH   1   7
BRANCH   2  10
HETATM   10  C3  UNL     1      27.926  51.758  61.376  1.00  0.00     0.147 C 
HETATM   11 BR1  UNL     1      27.875  50.717  63.009  1.00  0.00    -0.090 Br
ENDBRANCH   2  10
BRANCH   6  12
HETATM   12  N5  UNL     1      29.726  49.923  57.092  1.00  0.00    -0.324 N 
ATOM     13  H52 UNL     1      29.414  49.443  56.248  1.00  0.00     0.178 HD
ATOM     14  H51 UNL     1      30.649  50.314  56.904  1.00  0.00     0.178 HD
ENDBRANCH   6  12
TORSDOF 3
ENDMDL
