MODEL 1
REMARK VINA RESULT: -4.371995355      0.000      0.000
REMARK  0 active torsions:
REMARK  status: ('A' for Active; 'I' for Inactive)
ROOT
HETATM    1  C1  UNL     1      -2.391   9.642  19.581  1.00  0.00     0.055 C 
HETATM    2  C2  UNL     1      -3.911   9.671  19.616  1.00  0.00     0.236 C 
HETATM    3  N1  UNL     1      -4.323   8.562  20.465  1.00  0.00    -0.051 N 
ATOM      4  H11 UNL     1      -5.318   8.605  20.685  1.00  0.00     0.279 HD
ATOM      5  H12 UNL     1      -3.952   8.652  21.411  1.00  0.00     0.279 HD
HETATM    6  C3  UNL     1      -3.957   7.276  19.860  1.00  0.00     0.467 C 
HETATM    7  N2  UNL     1      -2.536   7.195  19.799  1.00  0.00    -0.040 N 
HETATM    8  C4  UNL     1      -1.943   8.302  19.137  1.00  0.00     0.241 C 
HETATM    9  C5  UNL     1      -1.865   5.936  19.580  1.00  0.00     0.267 A 
HETATM   10  C6  UNL     1      -1.906   6.537  20.907  1.00  0.00     0.267 A 
ENDROOT
TORSDOF 0
ENDMDL
MODEL 2
REMARK VINA RESULT: -4.332895162      1.176      1.984
REMARK  0 active torsions:
REMARK  status: ('A' for Active; 'I' for Inactive)
ROOT
HETATM    1  C1  UNL     1      -3.972   8.775  19.770  1.00  0.00     0.055 C 
HETATM    2  C2  UNL     1      -2.951   9.831  19.374  1.00  0.00     0.236 C 
HETATM    3  N1  UNL     1      -1.817   9.115  18.808  1.00  0.00    -0.051 N 
ATOM      4  H11 UNL     1      -1.157   9.749  18.359  1.00  0.00     0.279 HD
ATOM      5  H12 UNL     1      -2.086   8.569  17.989  1.00  0.00     0.279 HD
HETATM    6  C3  UNL     1      -1.164   8.282  19.824  1.00  0.00     0.467 C 
HETATM    7  N2  UNL     1      -2.080   7.271  20.235  1.00  0.00    -0.040 N 
HETATM    8  C4  UNL     1      -3.326   7.792  20.671  1.00  0.00     0.241 C 
HETATM    9  C5  UNL     1      -1.634   6.103  20.955  1.00  0.00     0.267 A 
HETATM   10  C6  UNL     1      -1.972   6.020  19.540  1.00  0.00     0.267 A 
ENDROOT
TORSDOF 0
ENDMDL
MODEL 3
REMARK VINA RESULT: -3.654237748      1.289      3.378
REMARK  0 active torsions:
REMARK  status: ('A' for Active; 'I' for Inactive)
ROOT
HETATM    1  C1  UNL     1      -2.708   6.348  22.224  1.00  0.00     0.055 C 
HETATM    2  C2  UNL     1      -1.660   5.469  21.560  1.00  0.00     0.236 C 
HETATM    3  N1  UNL     1      -0.970   6.310  20.592  1.00  0.00    -0.051 N 
ATOM      4  H11 UNL     1      -0.138   5.852  20.220  1.00  0.00     0.279 HD
ATOM      5  H12 UNL     1      -0.520   7.108  21.040  1.00  0.00     0.279 HD
HETATM    6  C3  UNL     1      -1.882   6.731  19.522  1.00  0.00     0.467 C 
HETATM    7  N2  UNL     1      -2.890   7.560  20.090  1.00  0.00    -0.040 N 
HETATM    8  C4  UNL     1      -3.567   6.950  21.178  1.00  0.00     0.241 C 
HETATM    9  C5  UNL     1      -3.722   8.403  19.264  1.00  0.00     0.267 A 
HETATM   10  C6  UNL     1      -2.630   8.971  20.043  1.00  0.00     0.267 A 
ENDROOT
TORSDOF 0
ENDMDL
MODEL 4
REMARK VINA RESULT: -3.266484551      1.229      2.084
REMARK  0 active torsions:
REMARK  status: ('A' for Active; 'I' for Inactive)
ROOT
HETATM    1  C1  UNL     1      -1.013   8.563  19.749  1.00  0.00     0.055 C 
HETATM    2  C2  UNL     1      -1.411   9.977  19.355  1.00  0.00     0.236 C 
HETATM    3  N1  UNL     1      -2.681  10.245  20.014  1.00  0.00    -0.051 N 
ATOM      4  H11 UNL     1      -2.941  11.229  19.945  1.00  0.00     0.279 HD
ATOM      5  H12 UNL     1      -2.602  10.177  21.028  1.00  0.00     0.279 HD
HETATM    6  C3  UNL     1      -3.736   9.369  19.492  1.00  0.00     0.467 C 
HETATM    7  N2  UNL     1      -3.413   8.024  19.832  1.00  0.00    -0.040 N 
HETATM    8  C4  UNL     1      -2.117   7.637  19.404  1.00  0.00     0.241 C 
HETATM    9  C5  UNL     1      -4.403   6.976  19.768  1.00  0.00     0.267 A 
HETATM   10  C6  UNL     1      -3.996   7.537  21.049  1.00  0.00     0.267 A 
ENDROOT
TORSDOF 0
ENDMDL
MODEL 5
REMARK VINA RESULT: -3.228218823      0.962      3.041
REMARK  0 active torsions:
REMARK  status: ('A' for Active; 'I' for Inactive)
ROOT
HETATM    1  C1  UNL     1      -1.439   8.118  18.896  1.00  0.00     0.055 C 
HETATM    2  C2  UNL     1      -1.862   6.887  19.681  1.00  0.00     0.236 C 
HETATM    3  N1  UNL     1      -3.314   6.940  19.780  1.00  0.00    -0.051 N 
ATOM      4  H11 UNL     1      -3.700   6.069  20.142  1.00  0.00     0.279 HD
ATOM      5  H12 UNL     1      -3.755   6.934  18.860  1.00  0.00     0.279 HD
HETATM    6  C3  UNL     1      -3.741   8.095  20.578  1.00  0.00     0.467 C 
HETATM    7  N2  UNL     1      -3.367   9.283  19.888  1.00  0.00    -0.040 N 
HETATM    8  C4  UNL     1      -1.987   9.325  19.558  1.00  0.00     0.241 C 
HETATM    9  C5  UNL     1      -3.939  10.563  20.231  1.00  0.00     0.267 A 
HETATM   10  C6  UNL     1      -4.375   9.849  19.039  1.00  0.00     0.267 A 
ENDROOT
TORSDOF 0
ENDMDL
