MODEL 1
REMARK VINA RESULT: -3.984478005      0.000      0.000
REMARK  1 active torsions:
REMARK  status: ('A' for Active; 'I' for Inactive)
REMARK    1  A    between atoms: N1_3  and  C5_6 
ROOT
HETATM    1  C1  UNL     1      -2.917   6.049  22.700  1.00  0.00     0.044 C 
HETATM    2  C2  UNL     1      -2.880   6.571  21.599  1.00  0.00     0.105 C 
HETATM    3  N1  UNL     1      -2.840   7.156  20.323  1.00  0.00    -0.003 N 
HETATM    4  C3  UNL     1      -1.994   6.370  19.461  1.00  0.00     0.290 C 
HETATM    5  C4  UNL     1      -4.197   6.995  19.768  1.00  0.00     0.290 C 
ENDROOT
BRANCH   3   6
HETATM    6  C5  UNL     1      -2.552   8.539  20.357  1.00  0.00     0.255 A 
HETATM    7  C6  UNL     1      -3.507   9.508  19.763  1.00  0.00     0.268 A 
HETATM    8  N2  UNL     1      -2.549   9.996  18.802  1.00  0.00    -0.071 N 
HETATM    9  C7  UNL     1      -1.572   9.096  19.390  1.00  0.00     0.268 A 
ATOM     10  H22 UNL     1      -2.750   9.968  17.803  1.00  0.00     0.277 HD
ATOM     11  H21 UNL     1      -2.356  10.994  18.718  1.00  0.00     0.277 HD
ENDBRANCH   3   6
TORSDOF 1
ENDMDL
MODEL 2
REMARK VINA RESULT: -3.373784204      1.410      2.066
REMARK  1 active torsions:
REMARK  status: ('A' for Active; 'I' for Inactive)
REMARK    1  A    between atoms: N1_3  and  C5_6 
ROOT
HETATM    1  C1  UNL     1      -2.148   5.700  22.643  1.00  0.00     0.044 C 
HETATM    2  C2  UNL     1      -2.117   6.132  21.503  1.00  0.00     0.105 C 
HETATM    3  N1  UNL     1      -2.061   6.628  20.191  1.00  0.00    -0.003 N 
HETATM    4  C3  UNL     1      -0.947   7.533  20.065  1.00  0.00     0.290 C 
HETATM    5  C4  UNL     1      -1.705   5.473  19.344  1.00  0.00     0.290 C 
ENDROOT
BRANCH   3   6
HETATM    6  C5  UNL     1      -3.302   7.128  19.735  1.00  0.00     0.255 A 
HETATM    7  C6  UNL     1      -3.447   8.571  19.422  1.00  0.00     0.268 A 
HETATM    8  N2  UNL     1      -4.472   8.774  20.416  1.00  0.00    -0.071 N 
HETATM    9  C7  UNL     1      -4.393   7.354  20.715  1.00  0.00     0.268 A 
ATOM     10  H22 UNL     1      -4.356   9.470  21.152  1.00  0.00     0.277 HD
ATOM     11  H21 UNL     1      -5.361   9.207  20.169  1.00  0.00     0.277 HD
ENDBRANCH   3   6
TORSDOF 1
ENDMDL
MODEL 3
REMARK VINA RESULT: -3.370809769      0.535      1.799
REMARK  1 active torsions:
REMARK  status: ('A' for Active; 'I' for Inactive)
REMARK    1  A    between atoms: N1_3  and  C5_6 
ROOT
HETATM    1  C1  UNL     1      -1.567   5.230  19.322  1.00  0.00     0.044 C 
HETATM    2  C2  UNL     1      -2.266   6.122  19.773  1.00  0.00     0.105 C 
HETATM    3  N1  UNL     1      -3.086   7.136  20.294  1.00  0.00    -0.003 N 
HETATM    4  C3  UNL     1      -4.394   7.051  19.695  1.00  0.00     0.290 C 
HETATM    5  C4  UNL     1      -3.297   6.788  21.712  1.00  0.00     0.290 C 
ENDROOT
BRANCH   3   6
HETATM    6  C5  UNL     1      -2.482   8.413  20.251  1.00  0.00     0.255 A 
HETATM    7  C6  UNL     1      -3.303   9.608  19.933  1.00  0.00     0.268 A 
HETATM    8  N2  UNL     1      -2.539   9.927  18.753  1.00  0.00    -0.071 N 
HETATM    9  C7  UNL     1      -1.683   8.794  19.059  1.00  0.00     0.268 A 
ATOM     10  H22 UNL     1      -2.992  10.008  17.843  1.00  0.00     0.277 HD
ATOM     11  H21 UNL     1      -2.145  10.858  18.621  1.00  0.00     0.277 HD
ENDBRANCH   3   6
TORSDOF 1
ENDMDL
MODEL 4
REMARK VINA RESULT: -3.198478169      1.434      3.901
REMARK  1 active torsions:
REMARK  status: ('A' for Active; 'I' for Inactive)
REMARK    1  A    between atoms: N1_3  and  C5_6 
ROOT
HETATM    1  C1  UNL     1      -1.445   9.174  19.509  1.00  0.00     0.044 C 
HETATM    2  C2  UNL     1      -1.919   8.129  19.918  1.00  0.00     0.105 C 
HETATM    3  N1  UNL     1      -2.478   6.923  20.373  1.00  0.00    -0.003 N 
HETATM    4  C3  UNL     1      -3.903   6.944  20.163  1.00  0.00     0.290 C 
HETATM    5  C4  UNL     1      -1.977   5.881  19.457  1.00  0.00     0.290 C 
ENDROOT
BRANCH   3   6
HETATM    6  C5  UNL     1      -2.063   6.580  21.680  1.00  0.00     0.255 A 
HETATM    7  C6  UNL     1      -1.397   5.277  21.926  1.00  0.00     0.268 A 
HETATM    8  N2  UNL     1      -2.421   4.826  22.836  1.00  0.00    -0.071 N 
HETATM    9  C7  UNL     1      -3.076   6.110  22.659  1.00  0.00     0.268 A 
ATOM     10  H22 UNL     1      -2.924   3.955  22.667  1.00  0.00     0.277 HD
ATOM     11  H21 UNL     1      -2.180   4.486  23.767  1.00  0.00     0.277 HD
ENDBRANCH   3   6
TORSDOF 1
ENDMDL
MODEL 5
REMARK VINA RESULT: -3.049652918      1.549      2.771
REMARK  1 active torsions:
REMARK  status: ('A' for Active; 'I' for Inactive)
REMARK    1  A    between atoms: N1_3  and  C5_6 
ROOT
HETATM    1  C1  UNL     1      -0.382   8.440  19.572  1.00  0.00     0.044 C 
HETATM    2  C2  UNL     1      -1.194   7.561  19.801  1.00  0.00     0.105 C 
HETATM    3  N1  UNL     1      -2.115   6.535  20.067  1.00  0.00    -0.003 N 
HETATM    4  C3  UNL     1      -1.707   5.334  19.383  1.00  0.00     0.290 C 
HETATM    5  C4  UNL     1      -1.961   6.223  21.501  1.00  0.00     0.290 C 
ENDROOT
BRANCH   3   6
HETATM    6  C5  UNL     1      -3.457   6.926  19.855  1.00  0.00     0.255 A 
HETATM    7  C6  UNL     1      -3.771   8.340  19.529  1.00  0.00     0.268 A 
HETATM    8  N2  UNL     1      -4.590   8.519  20.702  1.00  0.00    -0.071 N 
HETATM    9  C7  UNL     1      -4.345   7.125  21.028  1.00  0.00     0.268 A 
ATOM     10  H22 UNL     1      -4.384   9.257  21.376  1.00  0.00     0.277 HD
ATOM     11  H21 UNL     1      -5.541   8.878  20.626  1.00  0.00     0.277 HD
ENDBRANCH   3   6
TORSDOF 1
ENDMDL
