MODEL 1
REMARK VINA RESULT: -3.584833027      0.000      0.000
REMARK  0 active torsions:
REMARK  status: ('A' for Active; 'I' for Inactive)
ROOT
HETATM    1  C1  UNL     1      -1.324   5.242  20.935  1.00  0.00     0.297 C 
HETATM    2  N1  UNL     1      -2.140   6.369  20.659  1.00  0.00     0.007 N 
HETATM    3  C2  UNL     1      -1.396   7.572  20.324  1.00  0.00     0.262 C 
HETATM    4  C3  UNL     1      -2.403   8.388  19.504  1.00  0.00     0.053 C 
HETATM    5  C4  UNL     1      -3.623   7.508  19.580  1.00  0.00     0.110 C 
HETATM    6  C5  UNL     1      -4.181   7.422  20.976  1.00  0.00     0.053 C 
HETATM    7  C6  UNL     1      -3.043   6.734  21.725  1.00  0.00     0.262 C 
HETATM    8  N2  UNL     1      -2.961   6.191  19.510  1.00  0.00    -0.042 NA
ENDROOT
TORSDOF 0
ENDMDL
MODEL 2
REMARK VINA RESULT: -3.462603103      1.020      2.478
REMARK  0 active torsions:
REMARK  status: ('A' for Active; 'I' for Inactive)
ROOT
HETATM    1  C1  UNL     1      -5.078   7.042  20.849  1.00  0.00     0.297 C 
HETATM    2  N1  UNL     1      -3.690   7.142  20.577  1.00  0.00     0.007 N 
HETATM    3  C2  UNL     1      -2.840   6.659  21.654  1.00  0.00     0.262 C 
HETATM    4  C3  UNL     1      -1.537   6.292  20.931  1.00  0.00     0.053 C 
HETATM    5  C4  UNL     1      -1.855   6.717  19.521  1.00  0.00     0.110 C 
HETATM    6  C5  UNL     1      -2.007   8.210  19.393  1.00  0.00     0.053 C 
HETATM    7  C6  UNL     1      -3.231   8.475  20.265  1.00  0.00     0.262 C 
HETATM    8  N2  UNL     1      -3.280   6.332  19.481  1.00  0.00    -0.042 NA
ENDROOT
TORSDOF 0
ENDMDL
MODEL 3
REMARK VINA RESULT: -2.841749736      5.668      6.632
REMARK  0 active torsions:
REMARK  status: ('A' for Active; 'I' for Inactive)
ROOT
HETATM    1  C1  UNL     1      -0.666   1.994  21.812  1.00  0.00     0.297 C 
HETATM    2  N1  UNL     1      -0.252   1.515  20.543  1.00  0.00     0.007 N 
HETATM    3  C2  UNL     1      -1.350   1.133  19.668  1.00  0.00     0.262 C 
HETATM    4  C3  UNL     1      -0.740   1.265  18.267  1.00  0.00     0.053 C 
HETATM    5  C4  UNL     1       0.680   1.641  18.599  1.00  0.00     0.110 C 
HETATM    6  C5  UNL     1       1.423   0.524  19.283  1.00  0.00     0.053 C 
HETATM    7  C6  UNL     1       0.644   0.383  20.588  1.00  0.00     0.262 C 
HETATM    8  N2  UNL     1       0.421   2.502  19.770  1.00  0.00    -0.042 NA
ENDROOT
TORSDOF 0
ENDMDL
MODEL 4
REMARK VINA RESULT: -2.834074248      1.725      2.935
REMARK  0 active torsions:
REMARK  status: ('A' for Active; 'I' for Inactive)
ROOT
HETATM    1  C1  UNL     1      -3.103  10.513  19.754  1.00  0.00     0.297 C 
HETATM    2  N1  UNL     1      -2.946   9.109  19.633  1.00  0.00     0.007 N 
HETATM    3  C2  UNL     1      -1.839   8.708  18.779  1.00  0.00     0.262 C 
HETATM    4  C3  UNL     1      -1.500   7.301  19.286  1.00  0.00     0.053 C 
HETATM    5  C4  UNL     1      -2.564   7.103  20.333  1.00  0.00     0.110 C 
HETATM    6  C5  UNL     1      -3.945   7.019  19.738  1.00  0.00     0.053 C 
HETATM    7  C6  UNL     1      -4.111   8.413  19.139  1.00  0.00     0.262 C 
HETATM    8  N2  UNL     1      -2.621   8.478  20.866  1.00  0.00    -0.042 NA
ENDROOT
TORSDOF 0
ENDMDL
MODEL 5
REMARK VINA RESULT: -2.826005002      2.805      3.837
REMARK  0 active torsions:
REMARK  status: ('A' for Active; 'I' for Inactive)
ROOT
HETATM    1  C1  UNL     1      -0.898   3.435  21.248  1.00  0.00     0.297 C 
HETATM    2  N1  UNL     1      -1.441   4.259  22.266  1.00  0.00     0.007 N 
HETATM    3  C2  UNL     1      -1.849   5.578  21.806  1.00  0.00     0.262 C 
HETATM    4  C3  UNL     1      -2.904   5.995  22.838  1.00  0.00     0.053 C 
HETATM    5  C4  UNL     1      -2.861   4.829  23.790  1.00  0.00     0.110 C 
HETATM    6  C5  UNL     1      -1.553   4.744  24.531  1.00  0.00     0.053 C 
HETATM    7  C6  UNL     1      -0.568   4.476  23.396  1.00  0.00     0.262 C 
HETATM    8  N2  UNL     1      -2.649   3.743  22.813  1.00  0.00    -0.042 NA
ENDROOT
TORSDOF 0
ENDMDL
