MODEL 1
REMARK VINA RESULT: -3.473503497      0.000      0.000
REMARK  1 active torsions:
REMARK  status: ('A' for Active; 'I' for Inactive)
REMARK    1  A    between atoms: C2_2  and  N1_3 
ROOT
HETATM    1  N1  UNL     1      -2.178   6.862  20.021  1.00  0.00     0.006 N 
HETATM    2  C3  UNL     1      -3.556   7.167  19.707  1.00  0.00     0.297 C 
HETATM    3  C4  UNL     1      -2.070   6.481  21.394  1.00  0.00     0.261 C 
HETATM    4  C5  UNL     1      -1.262   5.189  21.400  1.00  0.00     0.047 C 
HETATM    5  C6  UNL     1      -1.599   4.649  20.010  1.00  0.00     0.144 C 
HETATM    6  N2  UNL     1      -1.649   5.851  19.235  1.00  0.00    -0.047 NA
ENDROOT
BRANCH   1   7
HETATM    7  C2  UNL     1      -1.421   8.100  19.774  1.00  0.00     0.255 C 
HETATM    8  C1  UNL     1      -2.349   9.167  19.292  1.00  0.00     0.036 C 
ENDBRANCH   1   7
TORSDOF 1
ENDMDL
MODEL 2
REMARK VINA RESULT: -3.434063677      1.401      3.433
REMARK  1 active torsions:
REMARK  status: ('A' for Active; 'I' for Inactive)
REMARK    1  A    between atoms: C2_2  and  N1_3 
ROOT
HETATM    1  N1  UNL     1      -3.260   7.717  20.211  1.00  0.00     0.006 N 
HETATM    2  C3  UNL     1      -4.304   6.992  19.521  1.00  0.00     0.297 C 
HETATM    3  C4  UNL     1      -2.083   7.754  19.402  1.00  0.00     0.261 C 
HETATM    4  C5  UNL     1      -1.639   9.211  19.386  1.00  0.00     0.047 C 
HETATM    5  C6  UNL     1      -2.980   9.908  19.615  1.00  0.00     0.144 C 
HETATM    6  N2  UNL     1      -3.619   9.016  20.534  1.00  0.00    -0.047 NA
ENDROOT
BRANCH   1   7
HETATM    7  C2  UNL     1      -3.002   6.974  21.454  1.00  0.00     0.255 C 
HETATM    8  C1  UNL     1      -1.851   6.042  21.251  1.00  0.00     0.036 C 
ENDBRANCH   1   7
TORSDOF 1
ENDMDL
MODEL 3
REMARK VINA RESULT: -3.318236080      0.935      3.108
REMARK  1 active torsions:
REMARK  status: ('A' for Active; 'I' for Inactive)
REMARK    1  A    between atoms: C2_2  and  N1_3 
ROOT
HETATM    1  N1  UNL     1      -2.166   6.548  20.315  1.00  0.00     0.006 N 
HETATM    2  C3  UNL     1      -1.814   5.447  19.445  1.00  0.00     0.297 C 
HETATM    3  C4  UNL     1      -1.471   7.726  19.905  1.00  0.00     0.261 C 
HETATM    4  C5  UNL     1      -2.527   8.822  19.827  1.00  0.00     0.047 C 
HETATM    5  C6  UNL     1      -3.771   7.981  19.541  1.00  0.00     0.144 C 
HETATM    6  N2  UNL     1      -3.525   6.816  20.334  1.00  0.00    -0.047 NA
ENDROOT
BRANCH   1   7
HETATM    7  C2  UNL     1      -1.741   6.150  21.666  1.00  0.00     0.255 C 
HETATM    8  C1  UNL     1      -2.929   6.107  22.573  1.00  0.00     0.036 C 
ENDBRANCH   1   7
TORSDOF 1
ENDMDL
MODEL 4
REMARK VINA RESULT: -3.187359618      1.125      2.257
REMARK  1 active torsions:
REMARK  status: ('A' for Active; 'I' for Inactive)
REMARK    1  A    between atoms: C2_2  and  N1_3 
ROOT
HETATM    1  N1  UNL     1      -2.090   6.761  20.141  1.00  0.00     0.006 N 
HETATM    2  C3  UNL     1      -1.674   5.589  19.403  1.00  0.00     0.297 C 
HETATM    3  C4  UNL     1      -3.423   7.115  19.769  1.00  0.00     0.261 C 
HETATM    4  C5  UNL     1      -4.178   7.311  21.079  1.00  0.00     0.047 C 
HETATM    5  C6  UNL     1      -3.376   6.390  21.997  1.00  0.00     0.144 C 
HETATM    6  N2  UNL     1      -2.043   6.587  21.515  1.00  0.00    -0.047 NA
ENDROOT
BRANCH   1   7
HETATM    7  C2  UNL     1      -1.154   7.832  19.766  1.00  0.00     0.255 C 
HETATM    8  C1  UNL     1      -1.871   8.865  18.958  1.00  0.00     0.036 C 
ENDBRANCH   1   7
TORSDOF 1
ENDMDL
MODEL 5
REMARK VINA RESULT: -2.968762206      0.798      3.254
REMARK  1 active torsions:
REMARK  status: ('A' for Active; 'I' for Inactive)
REMARK    1  A    between atoms: C2_2  and  N1_3 
ROOT
HETATM    1  N1  UNL     1      -1.866   6.609  20.209  1.00  0.00     0.006 N 
HETATM    2  C3  UNL     1      -1.820   6.205  21.598  1.00  0.00     0.297 C 
HETATM    3  C4  UNL     1      -3.111   7.252  19.936  1.00  0.00     0.261 C 
HETATM    4  C5  UNL     1      -2.757   8.546  19.214  1.00  0.00     0.047 C 
HETATM    5  C6  UNL     1      -1.356   8.795  19.771  1.00  0.00     0.144 C 
HETATM    6  N2  UNL     1      -0.835   7.465  19.856  1.00  0.00    -0.047 NA
ENDROOT
BRANCH   1   7
HETATM    7  C2  UNL     1      -1.746   5.372  19.422  1.00  0.00     0.255 C 
HETATM    8  C1  UNL     1      -1.340   4.245  20.316  1.00  0.00     0.036 C 
ENDBRANCH   1   7
TORSDOF 1
ENDMDL
