MODEL 1
REMARK VINA RESULT: -4.482785306      0.000      0.000
REMARK  3 active torsions:
REMARK  status: ('A' for Active; 'I' for Inactive)
REMARK    1  A    between atoms: N1_2  and  C2_3 
REMARK    2  A    between atoms: N1_2  and  C4_8 
REMARK    3  A    between atoms: C2_3  and  C3_4 
ROOT
HETATM    1  C1  UNL     1      -4.636   7.090  20.721  1.00  0.00     0.160 C 
HETATM    2  N1  UNL     1      -3.435   7.829  20.424  1.00  0.00    -0.344 N 
ENDROOT
BRANCH   2   3
HETATM    3  C2  UNL     1      -3.537   9.025  20.040  1.00  0.00    -0.027 C 
BRANCH   3   4
HETATM    4  C3  UNL     1      -3.568  10.283  19.699  1.00  0.00     0.156 C 
HETATM    5  N2  UNL     1      -3.207  11.397  19.158  1.00  0.00    -0.401 N 
ATOM      6  H22 UNL     1      -2.347  11.056  18.728  1.00  0.00     0.156 HD
ATOM      7  H21 UNL     1      -3.232  12.381  18.892  1.00  0.00     0.156 HD
ENDBRANCH   3   4
ENDBRANCH   2   3
BRANCH   2   8
HETATM    8  C4  UNL     1      -2.157   7.236  20.555  1.00  0.00     0.143 C 
HETATM    9  C5  UNL     1      -1.857   6.064  19.654  1.00  0.00     0.259 C 
HETATM   10  N3  UNL     1      -1.030   5.545  20.756  1.00  0.00    -0.071 N 
HETATM   11  C6  UNL     1      -2.017   6.178  21.647  1.00  0.00     0.259 C 
ATOM     12  H32 UNL     1      -0.792   4.556  20.832  1.00  0.00     0.277 HD
ATOM     13  H31 UNL     1      -0.033   5.749  20.824  1.00  0.00     0.277 HD
ENDBRANCH   2   8
TORSDOF 3
ENDMDL
MODEL 2
REMARK VINA RESULT: -4.403236513      1.497      4.127
REMARK  3 active torsions:
REMARK  status: ('A' for Active; 'I' for Inactive)
REMARK    1  A    between atoms: N1_2  and  C2_3 
REMARK    2  A    between atoms: N1_2  and  C4_8 
REMARK    3  A    between atoms: C2_3  and  C3_4 
ROOT
HETATM    1  C1  UNL     1      -1.377   7.484  19.989  1.00  0.00     0.160 C 
HETATM    2  N1  UNL     1      -2.705   8.042  19.982  1.00  0.00    -0.344 N 
ENDROOT
BRANCH   2   3
HETATM    3  C2  UNL     1      -3.611   7.464  20.642  1.00  0.00    -0.027 C 
BRANCH   3   4
HETATM    4  C3  UNL     1      -4.606   6.884  21.251  1.00  0.00     0.156 C 
HETATM    5  N2  UNL     1      -5.817   6.637  21.620  1.00  0.00    -0.401 N 
ATOM      6  H22 UNL     1      -6.267   7.377  21.081  1.00  0.00     0.156 HD
ATOM      7  H21 UNL     1      -6.596   6.183  22.097  1.00  0.00     0.156 HD
ENDBRANCH   3   4
ENDBRANCH   2   3
BRANCH   2   8
HETATM    8  C4  UNL     1      -3.005   9.215  19.251  1.00  0.00     0.143 C 
HETATM    9  C5  UNL     1      -2.072  10.388  19.436  1.00  0.00     0.259 C 
HETATM   10  N3  UNL     1      -3.253  11.243  19.231  1.00  0.00    -0.071 N 
HETATM   11  C6  UNL     1      -4.009  10.168  19.895  1.00  0.00     0.259 C 
ATOM     12  H32 UNL     1      -3.285  12.207  19.561  1.00  0.00     0.277 HD
ATOM     13  H31 UNL     1      -3.511  11.592  18.308  1.00  0.00     0.277 HD
ENDBRANCH   2   8
TORSDOF 3
ENDMDL
MODEL 3
REMARK VINA RESULT: -4.383088476      0.835      4.069
REMARK  3 active torsions:
REMARK  status: ('A' for Active; 'I' for Inactive)
REMARK    1  A    between atoms: N1_2  and  C2_3 
REMARK    2  A    between atoms: N1_2  and  C4_8 
REMARK    3  A    between atoms: C2_3  and  C3_4 
ROOT
HETATM    1  C1  UNL     1      -4.691   7.256  20.886  1.00  0.00     0.160 C 
HETATM    2  N1  UNL     1      -3.436   7.605  20.272  1.00  0.00    -0.344 N 
ENDROOT
BRANCH   2   3
HETATM    3  C2  UNL     1      -2.420   6.900  20.520  1.00  0.00    -0.027 C 
BRANCH   3   4
HETATM    4  C3  UNL     1      -1.429   6.108  20.817  1.00  0.00     0.156 C 
HETATM    5  N2  UNL     1      -0.688   5.306  21.504  1.00  0.00    -0.401 N 
ATOM      6  H22 UNL     1      -1.259   5.299  22.350  1.00  0.00     0.156 HD
ATOM      7  H21 UNL     1       0.088   4.686  21.737  1.00  0.00     0.156 HD
ENDBRANCH   3   4
ENDBRANCH   2   3
BRANCH   2   8
HETATM    8  C4  UNL     1      -3.327   8.718  19.406  1.00  0.00     0.143 C 
HETATM    9  C5  UNL     1      -2.043   9.509  19.473  1.00  0.00     0.259 C 
HETATM   10  N3  UNL     1      -2.860  10.689  19.147  1.00  0.00    -0.071 N 
HETATM   11  C6  UNL     1      -3.927  10.026  19.914  1.00  0.00     0.259 C 
ATOM     12  H32 UNL     1      -2.549  11.637  19.363  1.00  0.00     0.277 HD
ATOM     13  H31 UNL     1      -3.000  10.998  18.185  1.00  0.00     0.277 HD
ENDBRANCH   2   8
TORSDOF 3
ENDMDL
MODEL 4
REMARK VINA RESULT: -4.214240740      1.554      4.508
REMARK  3 active torsions:
REMARK  status: ('A' for Active; 'I' for Inactive)
REMARK    1  A    between atoms: N1_2  and  C2_3 
REMARK    2  A    between atoms: N1_2  and  C4_8 
REMARK    3  A    between atoms: C2_3  and  C3_4 
ROOT
HETATM    1  C1  UNL     1      -0.532   9.714  19.661  1.00  0.00     0.160 C 
HETATM    2  N1  UNL     1      -1.716   8.894  19.658  1.00  0.00    -0.344 N 
ENDROOT
BRANCH   2   3
HETATM    3  C2  UNL     1      -1.632   7.702  20.059  1.00  0.00    -0.027 C 
BRANCH   3   4
HETATM    4  C3  UNL     1      -1.468   6.495  20.523  1.00  0.00     0.156 C 
HETATM    5  N2  UNL     1      -0.943   5.513  21.174  1.00  0.00    -0.401 N 
ATOM      6  H22 UNL     1      -0.158   6.029  21.571  1.00  0.00     0.156 HD
ATOM      7  H21 UNL     1      -0.814   4.568  21.536  1.00  0.00     0.156 HD
ENDBRANCH   3   4
ENDBRANCH   2   3
BRANCH   2   8
HETATM    8  C4  UNL     1      -2.960   9.402  19.213  1.00  0.00     0.143 C 
HETATM    9  C5  UNL     1      -3.327  10.794  19.665  1.00  0.00     0.259 C 
HETATM   10  N3  UNL     1      -4.724  10.331  19.654  1.00  0.00    -0.071 N 
HETATM   11  C6  UNL     1      -4.178   9.023  20.051  1.00  0.00     0.259 C 
ATOM     12  H32 UNL     1      -5.451  10.799  20.195  1.00  0.00     0.277 HD
ATOM     13  H31 UNL     1      -5.321  10.440  18.834  1.00  0.00     0.277 HD
ENDBRANCH   2   8
TORSDOF 3
ENDMDL
MODEL 5
REMARK VINA RESULT: -4.100458278      1.354      4.059
REMARK  3 active torsions:
REMARK  status: ('A' for Active; 'I' for Inactive)
REMARK    1  A    between atoms: N1_2  and  C2_3 
REMARK    2  A    between atoms: N1_2  and  C4_8 
REMARK    3  A    between atoms: C2_3  and  C3_4 
ROOT
HETATM    1  C1  UNL     1      -4.389   7.128  21.097  1.00  0.00     0.160 C 
HETATM    2  N1  UNL     1      -3.039   7.108  20.597  1.00  0.00    -0.344 N 
ENDROOT
BRANCH   2   3
HETATM    3  C2  UNL     1      -2.206   6.322  21.124  1.00  0.00    -0.027 C 
BRANCH   3   4
HETATM    4  C3  UNL     1      -1.392   5.520  21.751  1.00  0.00     0.156 C 
HETATM    5  N2  UNL     1      -0.646   5.051  22.693  1.00  0.00    -0.401 N 
ATOM      6  H22 UNL     1      -0.812   5.797  23.369  1.00  0.00     0.156 HD
ATOM      7  H21 UNL     1      -0.009   4.423  23.183  1.00  0.00     0.156 HD
ENDBRANCH   3   4
ENDBRANCH   2   3
BRANCH   2   8
HETATM    8  C4  UNL     1      -2.637   7.952  19.536  1.00  0.00     0.143 C 
HETATM    9  C5  UNL     1      -1.289   8.618  19.670  1.00  0.00     0.259 C 
HETATM   10  N3  UNL     1      -1.873   9.746  18.925  1.00  0.00    -0.071 N 
HETATM   11  C6  UNL     1      -3.134   9.394  19.599  1.00  0.00     0.259 C 
ATOM     12  H32 UNL     1      -1.480  10.686  18.973  1.00  0.00     0.277 HD
ATOM     13  H31 UNL     1      -1.806   9.813  17.909  1.00  0.00     0.277 HD
ENDBRANCH   2   8
TORSDOF 3
ENDMDL
