MODEL 1
REMARK VINA RESULT: -8.285548233      0.000      0.000
REMARK  7 active torsions:
REMARK  status: ('A' for Active; 'I' for Inactive)
REMARK    1  A    between atoms: N2_10  and  C9_12 
REMARK    2  A    between atoms: C9_12  and  C10_13 
REMARK    3  A    between atoms: C12_15  and  O1_16 
REMARK    4  A    between atoms: C18_25  and  C19_26 
REMARK    5  A    between atoms: C20_27  and  C21_28 
REMARK    6  A    between atoms: C21_28  and  O2_29 
REMARK    7  A    between atoms: O2_29  and  C22_30 
ROOT
HETATM    1  N1  UNL     1      41.653  74.047 -26.272  1.00  0.00    -0.191 NA
HETATM    2  C1  UNL     1      42.772  73.942 -26.546  1.00  0.00     0.099 C 
HETATM    3  C2  UNL     1      44.165  73.831 -26.873  1.00  0.00     0.045 A 
HETATM    4  C3  UNL     1      44.771  72.616 -27.115  1.00  0.00     0.025 A 
HETATM    5  C4  UNL     1      46.114  72.575 -27.424  1.00  0.00     0.039 A 
HETATM    6  C5  UNL     1      46.824  73.758 -27.483  1.00  0.00     0.082 A 
HETATM    7  C6  UNL     1      46.223  74.983 -27.239  1.00  0.00     0.042 A 
HETATM    8  C7  UNL     1      44.873  75.032 -26.929  1.00  0.00     0.040 A 
HETATM    9  C8  UNL     1      46.847  76.342 -27.255  1.00  0.00     0.113 C 
HETATM   10  N2  UNL     1      46.257  77.197 -26.616  1.00  0.00    -0.375 N 
ATOM     11  H2  UNL     1      45.449  76.711 -26.227  1.00  0.00     0.161 HD
HETATM   12  N3  UNL     1      48.052  76.583 -27.979  1.00  0.00    -0.355 N 
HETATM   13  C13 UNL     1      48.046  77.901 -28.576  1.00  0.00     0.130 C 
HETATM   14  C14 UNL     1      48.598  77.928 -29.967  1.00  0.00     0.062 C 
HETATM   15  C15 UNL     1      49.073  76.618 -30.479  1.00  0.00    -0.009 A 
HETATM   16  C16 UNL     1      49.226  76.430 -31.862  1.00  0.00     0.124 A 
HETATM   17  F1  UNL     1      48.919  77.476 -32.668  1.00  0.00    -0.205 F 
HETATM   18  C17 UNL     1      49.672  75.223 -32.344  1.00  0.00     0.063 A 
HETATM   19  C18 UNL     1      49.986  74.156 -31.527  1.00  0.00     0.021 A 
HETATM   20  C26 UNL     1      49.828  74.367 -30.180  1.00  0.00     0.030 A 
HETATM   21  C27 UNL     1      49.382  75.566 -29.653  1.00  0.00    -0.022 A 
HETATM   22  C28 UNL     1      49.217  75.765 -28.202  1.00  0.00     0.144 C 
HETATM   23  C29 UNL     1      49.218  74.466 -27.435  1.00  0.00     0.206 C 
HETATM   24  O4  UNL     1      48.185  73.582 -27.806  1.00  0.00    -0.348 OA
ENDROOT
BRANCH  10  25
HETATM   25  C9  UNL     1      46.132  78.478 -26.160  1.00  0.00     0.128 C 
BRANCH  25  26
HETATM   26  C10 UNL     1      44.932  79.178 -26.822  1.00  0.00     0.035 A 
HETATM   27  C11 UNL     1      43.628  78.497 -26.554  1.00  0.00     0.041 A 
HETATM   28  C12 UNL     1      44.257  78.499 -27.957  1.00  0.00     0.124 A 
BRANCH  28  29
HETATM   29  O1  UNL     1      43.600  79.268 -28.917  1.00  0.00    -0.395 OA
ATOM     30  H1  UNL     1      42.694  79.514 -28.773  1.00  0.00     0.210 HD
ENDBRANCH  28  29
ENDBRANCH  25  26
ENDBRANCH  10  25
BRANCH  19  31
HETATM   31  C19 UNL     1      50.454  72.905 -32.065  1.00  0.00    -0.065 C 
HETATM   32  C20 UNL     1      50.840  71.846 -32.503  1.00  0.00    -0.075 C 
BRANCH  32  33
HETATM   33  C21 UNL     1      51.298  70.537 -33.023  1.00  0.00     0.262 C 
BRANCH  33  34
HETATM   34  O2  UNL     1      51.903  69.881 -31.962  1.00  0.00    -0.372 OA
BRANCH  34  35
HETATM   35  C22 UNL     1      52.700  68.826 -32.365  1.00  0.00     0.148 C 
HETATM   36  C23 UNL     1      51.816  67.876 -33.179  1.00  0.00     0.060 C 
HETATM   37  C24 UNL     1      51.768  66.638 -32.311  1.00  0.00     0.170 C 
HETATM   38  O3  UNL     1      52.989  66.622 -31.635  1.00  0.00    -0.389 OA
HETATM   39  C25 UNL     1      53.178  67.957 -31.242  1.00  0.00     0.199 C 
ENDBRANCH  34  35
ENDBRANCH  33  34
ENDBRANCH  32  33
ENDBRANCH  19  31
TORSDOF 7
ENDMDL
MODEL 2
REMARK VINA RESULT: -8.102281890      3.531      9.961
REMARK  7 active torsions:
REMARK  status: ('A' for Active; 'I' for Inactive)
REMARK    1  A    between atoms: N2_10  and  C9_12 
REMARK    2  A    between atoms: C9_12  and  C10_13 
REMARK    3  A    between atoms: C12_15  and  O1_16 
REMARK    4  A    between atoms: C18_25  and  C19_26 
REMARK    5  A    between atoms: C20_27  and  C21_28 
REMARK    6  A    between atoms: C21_28  and  O2_29 
REMARK    7  A    between atoms: O2_29  and  C22_30 
ROOT
HETATM    1  N1  UNL     1      47.586  78.063 -35.350  1.00  0.00    -0.191 NA
HETATM    2  C1  UNL     1      47.462  77.989 -34.202  1.00  0.00     0.099 C 
HETATM    3  C2  UNL     1      47.330  77.886 -32.777  1.00  0.00     0.045 A 
HETATM    4  C3  UNL     1      46.658  78.829 -32.028  1.00  0.00     0.025 A 
HETATM    5  C4  UNL     1      46.566  78.674 -30.661  1.00  0.00     0.039 A 
HETATM    6  C5  UNL     1      47.154  77.573 -30.071  1.00  0.00     0.082 A 
HETATM    7  C6  UNL     1      47.832  76.621 -30.816  1.00  0.00     0.042 A 
HETATM    8  C7  UNL     1      47.928  76.769 -32.190  1.00  0.00     0.040 A 
HETATM    9  C8  UNL     1      48.524  75.386 -30.334  1.00  0.00     0.113 C 
HETATM   10  N2  UNL     1      49.385  74.943 -31.075  1.00  0.00    -0.375 N 
ATOM     11  H2  UNL     1      49.388  75.583 -31.870  1.00  0.00     0.161 HD
HETATM   12  N3  UNL     1      48.173  74.795 -29.083  1.00  0.00    -0.355 N 
HETATM   13  C13 UNL     1      48.242  73.351 -29.153  1.00  0.00     0.130 C 
HETATM   14  C14 UNL     1      47.112  72.666 -28.451  1.00  0.00     0.062 C 
HETATM   15  C15 UNL     1      46.140  73.574 -27.791  1.00  0.00    -0.009 A 
HETATM   16  C16 UNL     1      44.861  73.097 -27.463  1.00  0.00     0.124 A 
HETATM   17  F1  UNL     1      44.579  71.810 -27.779  1.00  0.00    -0.205 F 
HETATM   18  C17 UNL     1      43.958  73.929 -26.846  1.00  0.00     0.063 A 
HETATM   19  C18 UNL     1      44.241  75.241 -26.523  1.00  0.00     0.021 A 
HETATM   20  C26 UNL     1      45.498  75.680 -26.854  1.00  0.00     0.030 A 
HETATM   21  C27 UNL     1      46.438  74.877 -27.475  1.00  0.00    -0.022 A 
HETATM   22  C28 UNL     1      47.779  75.375 -27.825  1.00  0.00     0.144 C 
HETATM   23  C29 UNL     1      47.868  76.880 -27.781  1.00  0.00     0.206 C 
HETATM   24  O4  UNL     1      46.991  77.530 -28.671  1.00  0.00    -0.348 OA
ENDROOT
BRANCH  10  25
HETATM   25  C9  UNL     1      50.346  74.023 -31.379  1.00  0.00     0.128 C 
BRANCH  25  26
HETATM   26  C10 UNL     1      49.710  72.723 -31.903  1.00  0.00     0.035 A 
HETATM   27  C11 UNL     1      50.700  71.620 -32.105  1.00  0.00     0.041 A 
HETATM   28  C12 UNL     1      50.007  72.303 -33.296  1.00  0.00     0.124 A 
BRANCH  28  29
HETATM   29  O1  UNL     1      49.077  71.527 -33.986  1.00  0.00    -0.395 OA
ATOM     30  H1  UNL     1      49.356  70.707 -34.376  1.00  0.00     0.210 HD
ENDBRANCH  28  29
ENDBRANCH  25  26
ENDBRANCH  10  25
BRANCH  19  31
HETATM   31  C19 UNL     1      43.272  76.085 -25.873  1.00  0.00    -0.065 C 
HETATM   32  C20 UNL     1      42.447  76.781 -25.328  1.00  0.00    -0.075 C 
BRANCH  32  33
HETATM   33  C21 UNL     1      41.423  77.612 -24.654  1.00  0.00     0.262 C 
BRANCH  33  34
HETATM   34  O2  UNL     1      40.629  76.743 -23.921  1.00  0.00    -0.372 OA
BRANCH  34  35
HETATM   35  C22 UNL     1      39.816  75.956 -24.713  1.00  0.00     0.148 C 
HETATM   36  C23 UNL     1      38.368  76.361 -24.418  1.00  0.00     0.060 C 
HETATM   37  C24 UNL     1      37.801  75.121 -23.764  1.00  0.00     0.170 C 
HETATM   38  O3  UNL     1      38.502  74.057 -24.333  1.00  0.00    -0.389 OA
HETATM   39  C25 UNL     1      39.835  74.501 -24.356  1.00  0.00     0.199 C 
ENDBRANCH  34  35
ENDBRANCH  33  34
ENDBRANCH  32  33
ENDBRANCH  19  31
TORSDOF 7
ENDMDL
MODEL 3
REMARK VINA RESULT: -8.040845222      2.270      3.598
REMARK  7 active torsions:
REMARK  status: ('A' for Active; 'I' for Inactive)
REMARK    1  A    between atoms: N2_10  and  C9_12 
REMARK    2  A    between atoms: C9_12  and  C10_13 
REMARK    3  A    between atoms: C12_15  and  O1_16 
REMARK    4  A    between atoms: C18_25  and  C19_26 
REMARK    5  A    between atoms: C20_27  and  C21_28 
REMARK    6  A    between atoms: C21_28  and  O2_29 
REMARK    7  A    between atoms: O2_29  and  C22_30 
ROOT
HETATM    1  N1  UNL     1      44.195  74.267 -27.302  1.00  0.00    -0.191 NA
HETATM    2  C1  UNL     1      45.299  74.128 -27.617  1.00  0.00     0.099 C 
HETATM    3  C2  UNL     1      46.671  73.978 -28.011  1.00  0.00     0.045 A 
HETATM    4  C3  UNL     1      47.498  73.024 -27.458  1.00  0.00     0.025 A 
HETATM    5  C4  UNL     1      48.808  72.931 -27.878  1.00  0.00     0.039 A 
HETATM    6  C5  UNL     1      49.262  73.802 -28.849  1.00  0.00     0.082 A 
HETATM    7  C6  UNL     1      48.438  74.765 -29.410  1.00  0.00     0.042 A 
HETATM    8  C7  UNL     1      47.120  74.864 -28.992  1.00  0.00     0.040 A 
HETATM    9  C8  UNL     1      48.775  75.779 -30.456  1.00  0.00     0.113 C 
HETATM   10  N2  UNL     1      48.053  76.761 -30.485  1.00  0.00    -0.375 N 
ATOM     11  H2  UNL     1      47.376  76.602 -29.739  1.00  0.00     0.161 HD
HETATM   12  N3  UNL     1      49.876  75.577 -31.340  1.00  0.00    -0.355 N 
HETATM   13  C13 UNL     1      49.579  76.082 -32.663  1.00  0.00     0.130 C 
HETATM   14  C14 UNL     1      50.055  75.187 -33.765  1.00  0.00     0.062 C 
HETATM   15  C15 UNL     1      50.761  73.961 -33.315  1.00  0.00    -0.009 A 
HETATM   16  C16 UNL     1      50.890  72.874 -34.195  1.00  0.00     0.124 A 
HETATM   17  F1  UNL     1      50.345  73.008 -35.429  1.00  0.00    -0.205 F 
HETATM   18  C17 UNL     1      51.549  71.739 -33.790  1.00  0.00     0.063 A 
HETATM   19  C18 UNL     1      52.105  71.599 -32.534  1.00  0.00     0.021 A 
HETATM   20  C26 UNL     1      51.965  72.676 -31.694  1.00  0.00     0.030 A 
HETATM   21  C27 UNL     1      51.310  73.837 -32.062  1.00  0.00    -0.022 A 
HETATM   22  C28 UNL     1      51.170  74.978 -31.140  1.00  0.00     0.144 C 
HETATM   23  C29 UNL     1      51.465  74.605 -29.709  1.00  0.00     0.206 C 
HETATM   24  O4  UNL     1      50.616  73.606 -29.192  1.00  0.00    -0.348 OA
ENDROOT
BRANCH  10  25
HETATM   25  C9  UNL     1      47.693  77.967 -31.014  1.00  0.00     0.128 C 
BRANCH  25  26
HETATM   26  C10 UNL     1      46.169  78.039 -31.221  1.00  0.00     0.035 A 
HETATM   27  C11 UNL     1      45.505  79.077 -30.373  1.00  0.00     0.041 A 
HETATM   28  C12 UNL     1      45.285  77.577 -30.122  1.00  0.00     0.124 A 
BRANCH  28  29
HETATM   29  O1  UNL     1      44.016  77.088 -30.428  1.00  0.00    -0.395 OA
ATOM     30  H1  UNL     1      43.274  77.681 -30.410  1.00  0.00     0.210 HD
ENDBRANCH  28  29
ENDBRANCH  25  26
ENDBRANCH  10  25
BRANCH  19  31
HETATM   31  C19 UNL     1      52.792  70.396 -32.142  1.00  0.00    -0.065 C 
HETATM   32  C20 UNL     1      53.373  69.393 -31.798  1.00  0.00    -0.075 C 
BRANCH  32  33
HETATM   33  C21 UNL     1      54.086  68.173 -31.353  1.00  0.00     0.262 C 
BRANCH  33  34
HETATM   34  O2  UNL     1      53.475  67.103 -31.989  1.00  0.00    -0.372 OA
BRANCH  34  35
HETATM   35  C22 UNL     1      52.161  66.924 -31.600  1.00  0.00     0.148 C 
HETATM   36  C23 UNL     1      52.118  65.671 -30.720  1.00  0.00     0.060 C 
HETATM   37  C24 UNL     1      51.304  64.705 -31.552  1.00  0.00     0.170 C 
HETATM   38  O3  UNL     1      50.431  65.507 -32.288  1.00  0.00    -0.389 OA
HETATM   39  C25 UNL     1      51.233  66.575 -32.723  1.00  0.00     0.199 C 
ENDBRANCH  34  35
ENDBRANCH  33  34
ENDBRANCH  32  33
ENDBRANCH  19  31
TORSDOF 7
ENDMDL
MODEL 4
REMARK VINA RESULT: -8.023852195      1.383      1.772
REMARK  7 active torsions:
REMARK  status: ('A' for Active; 'I' for Inactive)
REMARK    1  A    between atoms: N2_10  and  C9_12 
REMARK    2  A    between atoms: C9_12  and  C10_13 
REMARK    3  A    between atoms: C12_15  and  O1_16 
REMARK    4  A    between atoms: C18_25  and  C19_26 
REMARK    5  A    between atoms: C20_27  and  C21_28 
REMARK    6  A    between atoms: C21_28  and  O2_29 
REMARK    7  A    between atoms: O2_29  and  C22_30 
ROOT
HETATM    1  N1  UNL     1      41.665  74.107 -26.257  1.00  0.00    -0.191 NA
HETATM    2  C1  UNL     1      42.782  73.993 -26.534  1.00  0.00     0.099 C 
HETATM    3  C2  UNL     1      44.173  73.871 -26.865  1.00  0.00     0.045 A 
HETATM    4  C3  UNL     1      44.769  72.653 -27.113  1.00  0.00     0.025 A 
HETATM    5  C4  UNL     1      46.111  72.601 -27.425  1.00  0.00     0.039 A 
HETATM    6  C5  UNL     1      46.831  73.778 -27.480  1.00  0.00     0.082 A 
HETATM    7  C6  UNL     1      46.240  75.007 -27.230  1.00  0.00     0.042 A 
HETATM    8  C7  UNL     1      44.892  75.067 -26.917  1.00  0.00     0.040 A 
HETATM    9  C8  UNL     1      46.876  76.361 -27.242  1.00  0.00     0.113 C 
HETATM   10  N2  UNL     1      46.295  77.218 -26.598  1.00  0.00    -0.375 N 
ATOM     11  H2  UNL     1      45.484  76.738 -26.209  1.00  0.00     0.161 HD
HETATM   12  N3  UNL     1      48.082  76.594 -27.967  1.00  0.00    -0.355 N 
HETATM   13  C13 UNL     1      48.086  77.915 -28.558  1.00  0.00     0.130 C 
HETATM   14  C14 UNL     1      48.636  77.943 -29.951  1.00  0.00     0.062 C 
HETATM   15  C15 UNL     1      49.098  76.631 -30.469  1.00  0.00    -0.009 A 
HETATM   16  C16 UNL     1      49.246  76.447 -31.854  1.00  0.00     0.124 A 
HETATM   17  F1  UNL     1      48.947  77.499 -32.654  1.00  0.00    -0.205 F 
HETATM   18  C17 UNL     1      49.682  75.239 -32.341  1.00  0.00     0.063 A 
HETATM   19  C18 UNL     1      49.988  74.165 -31.529  1.00  0.00     0.021 A 
HETATM   20  C26 UNL     1      49.834  74.372 -30.181  1.00  0.00     0.030 A 
HETATM   21  C27 UNL     1      49.400  75.572 -29.648  1.00  0.00    -0.022 A 
HETATM   22  C28 UNL     1      49.239  75.767 -28.196  1.00  0.00     0.144 C 
HETATM   23  C29 UNL     1      49.231  74.465 -27.435  1.00  0.00     0.206 C 
HETATM   24  O4  UNL     1      48.190  73.592 -27.807  1.00  0.00    -0.348 OA
ENDROOT
BRANCH  10  25
HETATM   25  C9  UNL     1      46.182  78.498 -26.136  1.00  0.00     0.128 C 
BRANCH  25  26
HETATM   26  C10 UNL     1      46.952  78.670 -24.814  1.00  0.00     0.035 A 
HETATM   27  C11 UNL     1      47.670  79.978 -24.714  1.00  0.00     0.041 A 
HETATM   28  C12 UNL     1      48.436  78.653 -24.855  1.00  0.00     0.124 A 
BRANCH  28  29
HETATM   29  O1  UNL     1      49.143  78.236 -23.727  1.00  0.00    -0.395 OA
ATOM     30  H1  UNL     1      49.963  78.663 -23.510  1.00  0.00     0.210 HD
ENDBRANCH  28  29
ENDBRANCH  25  26
ENDBRANCH  10  25
BRANCH  19  31
HETATM   31  C19 UNL     1      50.443  72.912 -32.073  1.00  0.00    -0.065 C 
HETATM   32  C20 UNL     1      50.827  71.854 -32.514  1.00  0.00    -0.075 C 
BRANCH  32  33
HETATM   33  C21 UNL     1      51.291  70.546 -33.032  1.00  0.00     0.262 C 
BRANCH  33  34
HETATM   34  O2  UNL     1      51.911  69.899 -31.974  1.00  0.00    -0.372 OA
BRANCH  34  35
HETATM   35  C22 UNL     1      52.710  68.847 -32.378  1.00  0.00     0.148 C 
HETATM   36  C23 UNL     1      51.823  67.889 -33.180  1.00  0.00     0.060 C 
HETATM   37  C24 UNL     1      51.789  66.654 -32.306  1.00  0.00     0.170 C 
HETATM   38  O3  UNL     1      53.016  66.648 -31.640  1.00  0.00    -0.389 OA
HETATM   39  C25 UNL     1      53.202  67.986 -31.255  1.00  0.00     0.199 C 
ENDBRANCH  34  35
ENDBRANCH  33  34
ENDBRANCH  32  33
ENDBRANCH  19  31
TORSDOF 7
ENDMDL
MODEL 5
REMARK VINA RESULT: -7.986467893      2.019      2.655
REMARK  7 active torsions:
REMARK  status: ('A' for Active; 'I' for Inactive)
REMARK    1  A    between atoms: N2_10  and  C9_12 
REMARK    2  A    between atoms: C9_12  and  C10_13 
REMARK    3  A    between atoms: C12_15  and  O1_16 
REMARK    4  A    between atoms: C18_25  and  C19_26 
REMARK    5  A    between atoms: C20_27  and  C21_28 
REMARK    6  A    between atoms: C21_28  and  O2_29 
REMARK    7  A    between atoms: O2_29  and  C22_30 
ROOT
HETATM    1  N1  UNL     1      43.329  74.091 -27.237  1.00  0.00    -0.191 NA
HETATM    2  C1  UNL     1      44.460  74.059 -27.479  1.00  0.00     0.099 C 
HETATM    3  C2  UNL     1      45.864  74.042 -27.777  1.00  0.00     0.045 A 
HETATM    4  C3  UNL     1      46.689  73.010 -27.384  1.00  0.00     0.025 A 
HETATM    5  C4  UNL     1      48.031  73.052 -27.700  1.00  0.00     0.039 A 
HETATM    6  C5  UNL     1      48.517  74.134 -28.408  1.00  0.00     0.082 A 
HETATM    7  C6  UNL     1      47.695  75.175 -28.806  1.00  0.00     0.042 A 
HETATM    8  C7  UNL     1      46.346  75.140 -28.492  1.00  0.00     0.040 A 
HETATM    9  C8  UNL     1      48.063  76.410 -29.565  1.00  0.00     0.113 C 
HETATM   10  N2  UNL     1      47.300  77.353 -29.435  1.00  0.00    -0.375 N 
ATOM     11  H2  UNL     1      46.576  77.008 -28.804  1.00  0.00     0.161 HD
HETATM   12  N3  UNL     1      49.238  76.446 -30.374  1.00  0.00    -0.355 N 
HETATM   13  C13 UNL     1      49.021  77.232 -31.570  1.00  0.00     0.130 C 
HETATM   14  C14 UNL     1      49.622  76.624 -32.799  1.00  0.00     0.062 C 
HETATM   15  C15 UNL     1      50.349  75.348 -32.578  1.00  0.00    -0.009 A 
HETATM   16  C16 UNL     1      50.595  74.495 -33.665  1.00  0.00     0.124 A 
HETATM   17  F1  UNL     1      50.142  74.891 -34.879  1.00  0.00    -0.205 F 
HETATM   18  C17 UNL     1      51.274  73.316 -33.470  1.00  0.00     0.063 A 
HETATM   19  C18 UNL     1      51.737  72.910 -32.235  1.00  0.00     0.021 A 
HETATM   20  C26 UNL     1      51.482  73.762 -31.190  1.00  0.00     0.030 A 
HETATM   21  C27 UNL     1      50.804  74.958 -31.342  1.00  0.00    -0.022 A 
HETATM   22  C28 UNL     1      50.540  75.854 -30.203  1.00  0.00     0.144 C 
HETATM   23  C29 UNL     1      50.740  75.173 -28.872  1.00  0.00     0.206 C 
HETATM   24  O4  UNL     1      49.901  74.059 -28.668  1.00  0.00    -0.348 OA
ENDROOT
BRANCH  10  25
HETATM   25  C9  UNL     1      46.926  78.637 -29.708  1.00  0.00     0.128 C 
BRANCH  25  26
HETATM   26  C10 UNL     1      45.719  78.662 -30.662  1.00  0.00     0.035 A 
HETATM   27  C11 UNL     1      44.619  77.736 -30.248  1.00  0.00     0.041 A 
HETATM   28  C12 UNL     1      45.461  77.467 -31.505  1.00  0.00     0.124 A 
BRANCH  28  29
HETATM   29  O1  UNL     1      44.802  77.624 -32.724  1.00  0.00    -0.395 OA
ATOM     30  H1  UNL     1      44.003  78.136 -32.756  1.00  0.00     0.210 HD
ENDBRANCH  28  29
ENDBRANCH  25  26
ENDBRANCH  10  25
BRANCH  19  31
HETATM   31  C19 UNL     1      52.447  71.668 -32.066  1.00  0.00    -0.065 C 
HETATM   32  C20 UNL     1      53.057  70.634 -31.922  1.00  0.00    -0.075 C 
BRANCH  32  33
HETATM   33  C21 UNL     1      53.825  69.381 -31.737  1.00  0.00     0.262 C 
BRANCH  33  34
HETATM   34  O2  UNL     1      52.992  68.504 -31.058  1.00  0.00    -0.372 OA
BRANCH  34  35
HETATM   35  C22 UNL     1      53.272  67.178 -31.327  1.00  0.00     0.148 C 
HETATM   36  C23 UNL     1      52.352  66.746 -32.473  1.00  0.00     0.060 C 
HETATM   37  C24 UNL     1      51.449  65.728 -31.811  1.00  0.00     0.170 C 
HETATM   38  O3  UNL     1      52.229  65.149 -30.810  1.00  0.00    -0.389 OA
HETATM   39  C25 UNL     1      52.896  66.238 -30.224  1.00  0.00     0.199 C 
ENDBRANCH  34  35
ENDBRANCH  33  34
ENDBRANCH  32  33
ENDBRANCH  19  31
TORSDOF 7
ENDMDL
