MODEL 1
REMARK VINA RESULT: -7.182445777      0.000      0.000
REMARK  6 active torsions:
REMARK  status: ('A' for Active; 'I' for Inactive)
REMARK    1  A    between atoms: C2_2  and  C3_3 
REMARK       I    between atoms: N1_6  and  C5_8 
REMARK    2  A    between atoms: C5_8  and  C6_10 
REMARK    3  A    between atoms: C10_14  and  C12_16 
REMARK    4  A    between atoms: C16_20  and  C17_21 
REMARK    5  A    between atoms: C17_21  and  O3_23 
REMARK    6  A    between atoms: O3_23  and  C18_24 
ROOT
HETATM    1  C3  UNL     1      55.995  73.763 -32.583  1.00  0.00    -0.041 C 
HETATM    2  C4  UNL     1      57.084  73.320 -32.307  1.00  0.00    -0.017 C 
HETATM    3 BR1  UNL     1      58.783  72.610 -31.904  1.00  0.00     0.011 Br
ENDROOT
BRANCH   1   4
HETATM    4  C2  UNL     1      54.701  74.275 -32.932  1.00  0.00     0.063 C 
HETATM    5  C1  UNL     1      54.558  75.398 -33.899  1.00  0.00     0.079 C 
HETATM    6  N1  UNL     1      53.639  73.752 -32.394  1.00  0.00    -0.323 N 
HETATM    7  C5  UNL     1      52.331  74.248 -32.726  1.00  0.00     0.231 C 
ATOM      8  H1  UNL     1      53.736  72.983 -31.731  1.00  0.00     0.169 HD
HETATM    9  O1  UNL     1      52.058  74.325 -33.946  1.00  0.00    -0.272 OA
BRANCH   7  10
HETATM   10  C6  UNL     1      51.357  74.649 -31.648  1.00  0.00     0.117 C 
HETATM   11  C7  UNL     1      52.096  75.692 -30.846  1.00  0.00     0.044 C 
HETATM   12  C8  UNL     1      51.559  75.708 -29.395  1.00  0.00     0.085 C 
HETATM   13  C9  UNL     1      50.059  75.958 -29.603  1.00  0.00     0.037 C 
HETATM   14  N3  UNL     1      51.742  74.416 -28.902  1.00  0.00    -0.385 N 
HETATM   15  C10 UNL     1      49.502  74.612 -29.170  1.00  0.00    -0.015 C 
HETATM   16  C11 UNL     1      49.371  74.700 -27.642  1.00  0.00     0.018 C 
HETATM   17  C15 UNL     1      50.596  73.642 -29.450  1.00  0.00     0.128 C 
HETATM   18  C16 UNL     1      51.076  73.408 -30.827  1.00  0.00     0.032 C 
HETATM   19  C24 UNL     1      52.265  74.075 -27.700  1.00  0.00     0.116 C 
BRANCH  15  20
HETATM   20  C12 UNL     1      48.146  74.349 -29.682  1.00  0.00    -0.012 C 
HETATM   21  C13 UNL     1      47.177  75.264 -28.900  1.00  0.00     0.010 C 
HETATM   22  C14 UNL     1      47.640  72.951 -29.304  1.00  0.00     0.010 C 
ENDBRANCH  15  20
BRANCH  18  23
HETATM   23  C17 UNL     1      50.526  72.324 -31.612  1.00  0.00     0.289 C 
HETATM   24  O2  UNL     1      49.625  72.337 -32.443  1.00  0.00    -0.260 OA
BRANCH  23  25
HETATM   25  O3  UNL     1      51.093  71.041 -31.417  1.00  0.00    -0.296 OA
BRANCH  25  26
HETATM   26  C18 UNL     1      52.309  70.659 -32.014  1.00  0.00     0.274 A 
HETATM   27  C19 UNL     1      53.454  70.454 -31.182  1.00  0.00     0.264 A 
HETATM   28  O4  UNL     1      54.232  71.148 -30.497  1.00  0.00    -0.269 OA
HETATM   29  N2  UNL     1      53.380  69.067 -31.439  1.00  0.00    -0.291 N 
HETATM   30  C20 UNL     1      53.709  67.735 -31.385  1.00  0.00     0.100 A 
HETATM   31  C23 UNL     1      52.338  69.200 -32.203  1.00  0.00     0.058 A 
HETATM   32  C21 UNL     1      52.829  67.027 -32.149  1.00  0.00     0.020 A 
HETATM   33  C22 UNL     1      51.951  67.936 -32.677  1.00  0.00     0.030 A 
ENDBRANCH  25  26
ENDBRANCH  23  25
ENDBRANCH  18  23
ENDBRANCH   7  10
ENDBRANCH   1   4
TORSDOF 6
ENDMDL
MODEL 2
REMARK VINA RESULT: -7.144219402      2.622      3.028
REMARK  6 active torsions:
REMARK  status: ('A' for Active; 'I' for Inactive)
REMARK    1  A    between atoms: C2_2  and  C3_3 
REMARK       I    between atoms: N1_6  and  C5_8 
REMARK    2  A    between atoms: C5_8  and  C6_10 
REMARK    3  A    between atoms: C10_14  and  C12_16 
REMARK    4  A    between atoms: C16_20  and  C17_21 
REMARK    5  A    between atoms: C17_21  and  O3_23 
REMARK    6  A    between atoms: O3_23  and  C18_24 
ROOT
HETATM    1  C3  UNL     1      51.444  73.354 -36.884  1.00  0.00    -0.041 C 
HETATM    2  C4  UNL     1      51.058  73.471 -38.022  1.00  0.00    -0.017 C 
HETATM    3 BR1  UNL     1      50.457  73.620 -39.803  1.00  0.00     0.011 Br
ENDROOT
BRANCH   1   4
HETATM    4  C2  UNL     1      51.900  73.189 -35.534  1.00  0.00     0.063 C 
HETATM    5  C1  UNL     1      52.400  71.874 -35.050  1.00  0.00     0.079 C 
HETATM    6  N1  UNL     1      51.874  74.204 -34.722  1.00  0.00    -0.323 N 
HETATM    7  C5  UNL     1      52.324  74.066 -33.364  1.00  0.00     0.231 C 
ATOM      8  H1  UNL     1      51.531  75.107 -35.053  1.00  0.00     0.169 HD
HETATM    9  O1  UNL     1      53.460  73.565 -33.202  1.00  0.00    -0.272 OA
BRANCH   7  10
HETATM   10  C6  UNL     1      51.457  74.506 -32.211  1.00  0.00     0.117 C 
HETATM   11  C7  UNL     1      52.275  75.566 -31.514  1.00  0.00     0.044 C 
HETATM   12  C8  UNL     1      51.878  75.629 -30.020  1.00  0.00     0.085 C 
HETATM   13  C9  UNL     1      50.366  75.886 -30.093  1.00  0.00     0.037 C 
HETATM   14  N3  UNL     1      52.099  74.351 -29.508  1.00  0.00    -0.385 N 
HETATM   15  C10 UNL     1      49.845  74.558 -29.570  1.00  0.00    -0.015 C 
HETATM   16  C11 UNL     1      49.860  74.691 -28.039  1.00  0.00     0.018 C 
HETATM   17  C15 UNL     1      50.902  73.571 -29.922  1.00  0.00     0.128 C 
HETATM   18  C16 UNL     1      51.249  73.292 -31.330  1.00  0.00     0.032 C 
HETATM   19  C24 UNL     1      52.731  74.042 -28.351  1.00  0.00     0.116 C 
BRANCH  15  20
HETATM   20  C12 UNL     1      48.445  74.291 -29.943  1.00  0.00    -0.012 C 
HETATM   21  C13 UNL     1      47.579  75.386 -29.281  1.00  0.00     0.010 C 
HETATM   22  C14 UNL     1      47.900  73.014 -29.291  1.00  0.00     0.010 C 
ENDBRANCH  15  20
BRANCH  18  23
HETATM   23  C17 UNL     1      50.622  72.190 -32.027  1.00  0.00     0.289 C 
HETATM   24  O2  UNL     1      49.731  72.201 -32.869  1.00  0.00    -0.260 OA
BRANCH  23  25
HETATM   25  O3  UNL     1      51.083  70.889 -31.713  1.00  0.00    -0.296 OA
BRANCH  25  26
HETATM   26  C18 UNL     1      52.350  70.425 -32.112  1.00  0.00     0.274 A 
HETATM   27  C19 UNL     1      53.362  70.234 -31.119  1.00  0.00     0.264 A 
HETATM   28  O4  UNL     1      54.069  70.942 -30.375  1.00  0.00    -0.269 OA
HETATM   29  N2  UNL     1      53.261  68.837 -31.300  1.00  0.00    -0.291 N 
HETATM   30  C20 UNL     1      53.520  67.500 -31.122  1.00  0.00     0.100 A 
HETATM   31  C23 UNL     1      52.340  68.957 -32.208  1.00  0.00     0.058 A 
HETATM   32  C21 UNL     1      52.721  66.776 -31.958  1.00  0.00     0.020 A 
HETATM   33  C22 UNL     1      51.965  67.680 -32.656  1.00  0.00     0.030 A 
ENDBRANCH  25  26
ENDBRANCH  23  25
ENDBRANCH  18  23
ENDBRANCH   7  10
ENDBRANCH   1   4
TORSDOF 6
ENDMDL
MODEL 3
REMARK VINA RESULT: -6.762932064      3.631      5.768
REMARK  6 active torsions:
REMARK  status: ('A' for Active; 'I' for Inactive)
REMARK    1  A    between atoms: C2_2  and  C3_3 
REMARK       I    between atoms: N1_6  and  C5_8 
REMARK    2  A    between atoms: C5_8  and  C6_10 
REMARK    3  A    between atoms: C10_14  and  C12_16 
REMARK    4  A    between atoms: C16_20  and  C17_21 
REMARK    5  A    between atoms: C17_21  and  O3_23 
REMARK    6  A    between atoms: O3_23  and  C18_24 
ROOT
HETATM    1  C3  UNL     1      52.245  67.698 -32.119  1.00  0.00    -0.041 C 
HETATM    2  C4  UNL     1      51.664  66.642 -32.044  1.00  0.00    -0.017 C 
HETATM    3 BR1  UNL     1      50.786  64.978 -31.923  1.00  0.00     0.011 Br
ENDROOT
BRANCH   1   4
HETATM    4  C2  UNL     1      52.957  68.940 -32.202  1.00  0.00     0.063 C 
HETATM    5  C1  UNL     1      54.279  69.110 -31.541  1.00  0.00     0.079 C 
HETATM    6  N1  UNL     1      52.438  69.932 -32.864  1.00  0.00    -0.323 N 
HETATM    7  C5  UNL     1      53.131  71.188 -32.962  1.00  0.00     0.231 C 
ATOM      8  H1  UNL     1      51.532  69.817 -33.318  1.00  0.00     0.169 HD
HETATM    9  O1  UNL     1      54.320  71.139 -33.353  1.00  0.00    -0.272 OA
BRANCH   7  10
HETATM   10  C6  UNL     1      52.444  72.482 -32.608  1.00  0.00     0.117 C 
HETATM   11  C7  UNL     1      52.729  72.665 -31.137  1.00  0.00     0.044 C 
HETATM   12  C8  UNL     1      51.606  73.510 -30.491  1.00  0.00     0.085 C 
HETATM   13  C9  UNL     1      51.624  74.787 -31.343  1.00  0.00     0.037 C 
HETATM   14  N3  UNL     1      50.418  72.819 -30.730  1.00  0.00    -0.385 N 
HETATM   15  C10 UNL     1      50.295  74.643 -32.067  1.00  0.00    -0.015 C 
HETATM   16  C11 UNL     1      49.245  75.221 -31.105  1.00  0.00     0.018 C 
HETATM   17  C15 UNL     1      50.054  73.175 -32.128  1.00  0.00     0.128 C 
HETATM   18  C16 UNL     1      50.967  72.281 -32.870  1.00  0.00     0.032 C 
HETATM   19  C24 UNL     1      49.441  72.556 -29.832  1.00  0.00     0.116 C 
BRANCH  15  20
HETATM   20  C12 UNL     1      50.210  75.447 -33.297  1.00  0.00    -0.012 C 
HETATM   21  C13 UNL     1      51.603  76.073 -33.531  1.00  0.00     0.010 C 
HETATM   22  C14 UNL     1      49.326  76.690 -33.122  1.00  0.00     0.010 C 
ENDBRANCH  15  20
BRANCH  18  23
HETATM   23  C17 UNL     1      50.680  71.929 -34.243  1.00  0.00     0.289 C 
HETATM   24  O2  UNL     1      50.400  70.840 -34.731  1.00  0.00    -0.260 OA
BRANCH  23  25
HETATM   25  O3  UNL     1      50.718  72.978 -35.194  1.00  0.00    -0.296 OA
BRANCH  25  26
HETATM   26  C18 UNL     1      51.877  73.281 -35.931  1.00  0.00     0.274 A 
HETATM   27  C19 UNL     1      52.459  72.266 -36.755  1.00  0.00     0.264 A 
HETATM   28  O4  UNL     1      53.072  71.192 -36.599  1.00  0.00    -0.269 OA
HETATM   29  N2  UNL     1      52.053  72.981 -37.903  1.00  0.00    -0.291 N 
HETATM   30  C20 UNL     1      51.885  73.279 -39.234  1.00  0.00     0.100 A 
HETATM   31  C23 UNL     1      51.510  73.928 -37.201  1.00  0.00     0.058 A 
HETATM   32  C21 UNL     1      51.211  74.460 -39.344  1.00  0.00     0.020 A 
HETATM   33  C22 UNL     1      50.963  74.889 -38.067  1.00  0.00     0.030 A 
ENDBRANCH  25  26
ENDBRANCH  23  25
ENDBRANCH  18  23
ENDBRANCH   7  10
ENDBRANCH   1   4
TORSDOF 6
ENDMDL
MODEL 4
REMARK VINA RESULT: -6.664816520      2.828      5.856
REMARK  6 active torsions:
REMARK  status: ('A' for Active; 'I' for Inactive)
REMARK    1  A    between atoms: C2_2  and  C3_3 
REMARK       I    between atoms: N1_6  and  C5_8 
REMARK    2  A    between atoms: C5_8  and  C6_10 
REMARK    3  A    between atoms: C10_14  and  C12_16 
REMARK    4  A    between atoms: C16_20  and  C17_21 
REMARK    5  A    between atoms: C17_21  and  O3_23 
REMARK    6  A    between atoms: O3_23  and  C18_24 
ROOT
HETATM    1  C3  UNL     1      51.993  69.719 -32.309  1.00  0.00    -0.041 C 
HETATM    2  C4  UNL     1      52.420  68.642 -31.968  1.00  0.00    -0.017 C 
HETATM    3 BR1  UNL     1      53.099  66.975 -31.409  1.00  0.00     0.011 Br
ENDROOT
BRANCH   1   4
HETATM    4  C2  UNL     1      51.494  71.009 -32.692  1.00  0.00     0.063 C 
HETATM    5  C1  UNL     1      51.493  71.436 -34.118  1.00  0.00     0.079 C 
HETATM    6  N1  UNL     1      51.038  71.814 -31.780  1.00  0.00    -0.323 N 
HETATM    7  C5  UNL     1      50.534  73.113 -32.137  1.00  0.00     0.231 C 
ATOM      8  H1  UNL     1      51.039  71.523 -30.802  1.00  0.00     0.169 HD
HETATM    9  O1  UNL     1      49.669  73.144 -33.042  1.00  0.00    -0.272 OA
BRANCH   7  10
HETATM   10  C6  UNL     1      51.033  74.356 -31.446  1.00  0.00     0.117 C 
HETATM   11  C7  UNL     1      52.522  74.144 -31.326  1.00  0.00     0.044 C 
HETATM   12  C8  UNL     1      53.064  74.936 -30.113  1.00  0.00     0.085 C 
HETATM   13  C9  UNL     1      52.613  76.369 -30.429  1.00  0.00     0.037 C 
HETATM   14  N3  UNL     1      52.359  74.470 -29.002  1.00  0.00    -0.385 N 
HETATM   15  C10 UNL     1      51.567  76.564 -29.343  1.00  0.00    -0.015 C 
HETATM   16  C11 UNL     1      52.351  77.015 -28.101  1.00  0.00     0.018 C 
HETATM   17  C15 UNL     1      51.061  75.194 -29.054  1.00  0.00     0.128 C 
HETATM   18  C16 UNL     1      50.364  74.403 -30.089  1.00  0.00     0.032 C 
HETATM   19  C24 UNL     1      52.881  74.117 -27.804  1.00  0.00     0.116 C 
BRANCH  15  20
HETATM   20  C12 UNL     1      50.612  77.646 -29.640  1.00  0.00    -0.012 C 
HETATM   21  C13 UNL     1      50.856  78.082 -31.102  1.00  0.00     0.010 C 
HETATM   22  C14 UNL     1      50.929  78.932 -28.865  1.00  0.00     0.010 C 
ENDBRANCH  15  20
BRANCH  18  23
HETATM   23  C17 UNL     1      48.920  74.429 -30.171  1.00  0.00     0.289 C 
HETATM   24  O2  UNL     1      48.185  75.180 -30.803  1.00  0.00    -0.260 OA
BRANCH  23  25
HETATM   25  O3  UNL     1      48.218  73.454 -29.424  1.00  0.00    -0.296 OA
BRANCH  25  26
HETATM   26  C18 UNL     1      47.940  73.615 -28.053  1.00  0.00     0.274 A 
HETATM   27  C19 UNL     1      47.626  74.921 -27.560  1.00  0.00     0.264 A 
HETATM   28  O4  UNL     1      48.220  76.001 -27.369  1.00  0.00    -0.269 OA
HETATM   29  N2  UNL     1      46.292  74.509 -27.349  1.00  0.00    -0.291 N 
HETATM   30  C20 UNL     1      44.969  74.586 -26.986  1.00  0.00     0.100 A 
HETATM   31  C23 UNL     1      46.525  73.309 -27.788  1.00  0.00     0.058 A 
HETATM   32  C21 UNL     1      44.373  73.381 -27.215  1.00  0.00     0.020 A 
HETATM   33  C22 UNL     1      45.342  72.557 -27.724  1.00  0.00     0.030 A 
ENDBRANCH  25  26
ENDBRANCH  23  25
ENDBRANCH  18  23
ENDBRANCH   7  10
ENDBRANCH   1   4
TORSDOF 6
ENDMDL
MODEL 5
REMARK VINA RESULT: -6.662697768      3.682      6.470
REMARK  6 active torsions:
REMARK  status: ('A' for Active; 'I' for Inactive)
REMARK    1  A    between atoms: C2_2  and  C3_3 
REMARK       I    between atoms: N1_6  and  C5_8 
REMARK    2  A    between atoms: C5_8  and  C6_10 
REMARK    3  A    between atoms: C10_14  and  C12_16 
REMARK    4  A    between atoms: C16_20  and  C17_21 
REMARK    5  A    between atoms: C17_21  and  O3_23 
REMARK    6  A    between atoms: O3_23  and  C18_24 
ROOT
HETATM    1  C3  UNL     1      45.492  75.378 -27.145  1.00  0.00    -0.041 C 
HETATM    2  C4  UNL     1      44.748  76.199 -26.667  1.00  0.00    -0.017 C 
HETATM    3 BR1  UNL     1      43.575  77.459 -25.898  1.00  0.00     0.011 Br
ENDROOT
BRANCH   1   4
HETATM    4  C2  UNL     1      46.369  74.385 -27.697  1.00  0.00     0.063 C 
HETATM    5  C1  UNL     1      46.160  72.939 -27.414  1.00  0.00     0.079 C 
HETATM    6  N1  UNL     1      47.360  74.756 -28.452  1.00  0.00    -0.323 N 
HETATM    7  C5  UNL     1      48.254  73.781 -29.016  1.00  0.00     0.231 C 
ATOM      8  H1  UNL     1      47.504  75.747 -28.646  1.00  0.00     0.169 HD
HETATM    9  O1  UNL     1      47.723  72.833 -29.639  1.00  0.00    -0.272 OA
BRANCH   7  10
HETATM   10  C6  UNL     1      49.747  73.911 -28.853  1.00  0.00     0.117 C 
HETATM   11  C7  UNL     1      49.929  74.340 -27.418  1.00  0.00     0.044 C 
HETATM   12  C8  UNL     1      51.246  75.139 -27.278  1.00  0.00     0.085 C 
HETATM   13  C9  UNL     1      52.289  74.152 -27.822  1.00  0.00     0.037 C 
HETATM   14  N3  UNL     1      51.138  76.218 -28.155  1.00  0.00    -0.385 N 
HETATM   15  C10 UNL     1      52.681  74.862 -29.107  1.00  0.00    -0.015 C 
HETATM   16  C11 UNL     1      53.761  75.876 -28.697  1.00  0.00     0.018 C 
HETATM   17  C15 UNL     1      51.478  75.650 -29.487  1.00  0.00     0.128 C 
HETATM   18  C16 UNL     1      50.201  74.985 -29.819  1.00  0.00     0.032 C 
HETATM   19  C24 UNL     1      51.430  77.512 -27.885  1.00  0.00     0.116 C 
BRANCH  15  20
HETATM   20  C12 UNL     1      53.312  73.972 -30.096  1.00  0.00    -0.012 C 
HETATM   21  C13 UNL     1      54.603  73.416 -29.454  1.00  0.00     0.010 C 
HETATM   22  C14 UNL     1      53.862  74.740 -31.306  1.00  0.00     0.010 C 
ENDBRANCH  15  20
BRANCH  18  23
HETATM   23  C17 UNL     1      49.879  74.679 -31.196  1.00  0.00     0.289 C 
HETATM   24  O2  UNL     1      49.038  75.179 -31.933  1.00  0.00    -0.260 OA
BRANCH  23  25
HETATM   25  O3  UNL     1      50.631  73.652 -31.815  1.00  0.00    -0.296 OA
BRANCH  25  26
HETATM   26  C18 UNL     1      50.143  72.338 -31.945  1.00  0.00     0.274 A 
HETATM   27  C19 UNL     1      49.885  71.822 -33.255  1.00  0.00     0.264 A 
HETATM   28  O4  UNL     1      49.064  72.012 -34.175  1.00  0.00    -0.269 OA
HETATM   29  N2  UNL     1      50.985  70.949 -33.116  1.00  0.00    -0.291 N 
HETATM   30  C20 UNL     1      51.897  69.974 -33.444  1.00  0.00     0.100 A 
HETATM   31  C23 UNL     1      51.262  71.382 -31.924  1.00  0.00     0.058 A 
HETATM   32  C21 UNL     1      52.765  69.810 -32.405  1.00  0.00     0.020 A 
HETATM   33  C22 UNL     1      52.381  70.693 -31.431  1.00  0.00     0.030 A 
ENDBRANCH  25  26
ENDBRANCH  23  25
ENDBRANCH  18  23
ENDBRANCH   7  10
ENDBRANCH   1   4
TORSDOF 6
ENDMDL
