MODEL 1
REMARK VINA RESULT: -4.585767013      0.000      0.000
REMARK  1 active torsions:
REMARK  status: ('A' for Active; 'I' for Inactive)
REMARK    1  A    between atoms: C3_3  and  C4_4 
ROOT
HETATM    1  C1  UNL     1      51.831  64.653 -29.031  1.00  0.00     0.012 C 
HETATM    2  C2  UNL     1      52.337  65.677 -29.421  1.00  0.00    -0.115 C 
HETATM    3  C3  UNL     1      52.965  66.904 -29.883  1.00  0.00     0.126 C 
ENDROOT
BRANCH   3   4
HETATM    4  C4  UNL     1      52.053  67.661 -30.819  1.00  0.00     0.199 C 
HETATM    5  C5  UNL     1      51.744  69.067 -30.350  1.00  0.00     0.066 C 
HETATM    6  C6  UNL     1      53.010  69.396 -31.079  1.00  0.00     0.184 C 
HETATM    7  C7  UNL     1      52.988  70.672 -31.881  1.00  0.00     0.040 C 
HETATM    8  N1  UNL     1      52.748  68.270 -31.935  1.00  0.00    -0.066 N 
ATOM      9  H12 UNL     1      53.507  67.783 -32.411  1.00  0.00     0.278 HD
ATOM     10  H11 UNL     1      52.289  68.390 -32.838  1.00  0.00     0.278 HD
ENDBRANCH   3   4
TORSDOF 1
ENDMDL
MODEL 2
REMARK VINA RESULT: -4.442341104      0.933      1.087
REMARK  1 active torsions:
REMARK  status: ('A' for Active; 'I' for Inactive)
REMARK    1  A    between atoms: C3_3  and  C4_4 
ROOT
HETATM    1  C1  UNL     1      52.617  65.289 -28.627  1.00  0.00     0.012 C 
HETATM    2  C2  UNL     1      52.652  66.115 -29.506  1.00  0.00    -0.115 C 
HETATM    3  C3  UNL     1      52.698  67.097 -30.578  1.00  0.00     0.126 C 
ENDROOT
BRANCH   3   4
HETATM    4  C4  UNL     1      52.240  68.452 -30.094  1.00  0.00     0.199 C 
HETATM    5  C5  UNL     1      53.347  69.483 -30.064  1.00  0.00     0.066 C 
HETATM    6  C6  UNL     1      52.946  69.694 -31.491  1.00  0.00     0.184 C 
HETATM    7  C7  UNL     1      52.910  71.129 -31.954  1.00  0.00     0.040 C 
HETATM    8  N1  UNL     1      51.624  69.257 -31.129  1.00  0.00    -0.066 N 
ATOM      9  H12 UNL     1      51.002  68.840 -31.820  1.00  0.00     0.278 HD
ATOM     10  H11 UNL     1      50.890  69.929 -30.906  1.00  0.00     0.278 HD
ENDBRANCH   3   4
TORSDOF 1
ENDMDL
MODEL 3
REMARK VINA RESULT: -4.184118968      1.114      1.339
REMARK  1 active torsions:
REMARK  status: ('A' for Active; 'I' for Inactive)
REMARK    1  A    between atoms: C3_3  and  C4_4 
ROOT
HETATM    1  C1  UNL     1      51.835  64.424 -28.993  1.00  0.00     0.012 C 
HETATM    2  C2  UNL     1      52.383  65.498 -28.943  1.00  0.00    -0.115 C 
HETATM    3  C3  UNL     1      53.048  66.788 -28.865  1.00  0.00     0.126 C 
ENDROOT
BRANCH   3   4
HETATM    4  C4  UNL     1      53.198  67.406 -30.234  1.00  0.00     0.199 C 
HETATM    5  C5  UNL     1      51.875  67.699 -30.908  1.00  0.00     0.066 C 
HETATM    6  C6  UNL     1      51.979  68.988 -30.153  1.00  0.00     0.184 C 
HETATM    7  C7  UNL     1      51.560  70.223 -30.909  1.00  0.00     0.040 C 
HETATM    8  N1  UNL     1      53.409  68.839 -30.201  1.00  0.00    -0.066 N 
ATOM      9  H12 UNL     1      54.005  69.267 -29.493  1.00  0.00     0.278 HD
ATOM     10  H11 UNL     1      53.963  69.306 -30.919  1.00  0.00     0.278 HD
ENDBRANCH   3   4
TORSDOF 1
ENDMDL
MODEL 4
REMARK VINA RESULT: -4.122157039      2.088      2.361
REMARK  1 active torsions:
REMARK  status: ('A' for Active; 'I' for Inactive)
REMARK    1  A    between atoms: C3_3  and  C4_4 
ROOT
HETATM    1  C1  UNL     1      52.969  65.695 -27.879  1.00  0.00     0.012 C 
HETATM    2  C2  UNL     1      52.996  66.524 -28.755  1.00  0.00    -0.115 C 
HETATM    3  C3  UNL     1      53.016  67.513 -29.821  1.00  0.00     0.126 C 
ENDROOT
BRANCH   3   4
HETATM    4  C4  UNL     1      53.746  68.762 -29.390  1.00  0.00     0.199 C 
HETATM    5  C5  UNL     1      53.463  69.958 -30.273  1.00  0.00     0.066 C 
HETATM    6  C6  UNL     1      52.299  70.140 -29.348  1.00  0.00     0.184 C 
HETATM    7  C7  UNL     1      52.005  71.561 -28.941  1.00  0.00     0.040 C 
HETATM    8  N1  UNL     1      53.075  69.485 -28.328  1.00  0.00    -0.066 N 
ATOM      9  H12 UNL     1      52.623  68.991 -27.560  1.00  0.00     0.278 HD
ATOM     10  H11 UNL     1      53.605  70.023 -27.643  1.00  0.00     0.278 HD
ENDBRANCH   3   4
TORSDOF 1
ENDMDL
MODEL 5
REMARK VINA RESULT: -4.108535291      1.509      1.781
REMARK  1 active torsions:
REMARK  status: ('A' for Active; 'I' for Inactive)
REMARK    1  A    between atoms: C3_3  and  C4_4 
ROOT
HETATM    1  C1  UNL     1      52.912  65.671 -28.243  1.00  0.00     0.012 C 
HETATM    2  C2  UNL     1      52.806  66.372 -29.220  1.00  0.00    -0.115 C 
HETATM    3  C3  UNL     1      52.667  67.203 -30.404  1.00  0.00     0.126 C 
ENDROOT
BRANCH   3   4
HETATM    4  C4  UNL     1      53.241  68.580 -30.172  1.00  0.00     0.199 C 
HETATM    5  C5  UNL     1      52.928  69.556 -31.286  1.00  0.00     0.066 C 
HETATM    6  C6  UNL     1      51.678  69.783 -30.494  1.00  0.00     0.184 C 
HETATM    7  C7  UNL     1      51.222  71.216 -30.389  1.00  0.00     0.040 C 
HETATM    8  N1  UNL     1      52.419  69.412 -29.317  1.00  0.00    -0.066 N 
ATOM      9  H12 UNL     1      51.948  69.024 -28.501  1.00  0.00     0.278 HD
ATOM     10  H11 UNL     1      52.836  70.120 -28.713  1.00  0.00     0.278 HD
ENDBRANCH   3   4
TORSDOF 1
ENDMDL
