MODEL 1
REMARK VINA RESULT: -4.973750279      0.000      0.000
REMARK  1 active torsions:
REMARK  status: ('A' for Active; 'I' for Inactive)
REMARK    1  A    between atoms: C2_4  and  C3_5 
ROOT
HETATM    1  C3  UNL     1      53.169  68.565 -28.621  1.00  0.00     0.223 C 
HETATM    2  C4  UNL     1      52.637  68.303 -29.984  1.00  0.00     0.038 C 
HETATM    3  C5  UNL     1      52.163  66.926 -30.240  1.00  0.00     0.004 C 
HETATM    4  C6  UNL     1      52.755  65.862 -29.402  1.00  0.00     0.027 C 
HETATM    5  C7  UNL     1      53.172  66.307 -28.029  1.00  0.00     0.233 C 
HETATM    6  N2  UNL     1      53.993  67.475 -28.165  1.00  0.00    -0.066 N 
ATOM      7  H21 UNL     1      54.499  67.700 -27.308  1.00  0.00     0.278 HD
ATOM      8  H22 UNL     1      54.801  67.317 -28.767  1.00  0.00     0.278 HD
ENDROOT
BRANCH   1   9
HETATM    9  C2  UNL     1      54.069  69.779 -28.711  1.00  0.00     0.087 C 
HETATM   10  N1  UNL     1      54.112  70.629 -27.771  1.00  0.00    -0.405 N 
HETATM   11  C1  UNL     1      54.976  71.759 -27.898  1.00  0.00     0.145 C 
ATOM     12  H1  UNL     1      53.538  70.507 -26.937  1.00  0.00     0.158 HD
ENDBRANCH   1   9
TORSDOF 1
ENDMDL
MODEL 2
REMARK VINA RESULT: -4.786930153      2.421      3.125
REMARK  1 active torsions:
REMARK  status: ('A' for Active; 'I' for Inactive)
REMARK    1  A    between atoms: C2_4  and  C3_5 
ROOT
HETATM    1  C3  UNL     1      53.007  68.749 -30.274  1.00  0.00     0.223 C 
HETATM    2  C4  UNL     1      53.336  68.767 -28.824  1.00  0.00     0.038 C 
HETATM    3  C5  UNL     1      53.591  67.450 -28.202  1.00  0.00     0.004 C 
HETATM    4  C6  UNL     1      52.966  66.281 -28.859  1.00  0.00     0.027 C 
HETATM    5  C7  UNL     1      52.775  66.427 -30.343  1.00  0.00     0.233 C 
HETATM    6  N2  UNL     1      52.105  67.671 -30.590  1.00  0.00    -0.066 N 
ATOM      7  H21 UNL     1      51.737  67.735 -31.540  1.00  0.00     0.278 HD
ATOM      8  H22 UNL     1      51.218  67.743 -30.091  1.00  0.00     0.278 HD
ENDROOT
BRANCH   1   9
HETATM    9  C2  UNL     1      52.270  70.034 -30.587  1.00  0.00     0.087 C 
HETATM   10  N1  UNL     1      51.192  70.019 -31.255  1.00  0.00    -0.405 N 
HETATM   11  C1  UNL     1      50.529  71.254 -31.527  1.00  0.00     0.145 C 
ATOM     12  H1  UNL     1      50.804  69.138 -31.591  1.00  0.00     0.158 HD
ENDBRANCH   1   9
TORSDOF 1
ENDMDL
MODEL 3
REMARK VINA RESULT: -4.741407615      1.536      4.158
REMARK  1 active torsions:
REMARK  status: ('A' for Active; 'I' for Inactive)
REMARK    1  A    between atoms: C2_4  and  C3_5 
ROOT
HETATM    1  C3  UNL     1      53.312  67.780 -29.505  1.00  0.00     0.223 C 
HETATM    2  C4  UNL     1      52.196  68.254 -30.364  1.00  0.00     0.038 C 
HETATM    3  C5  UNL     1      52.014  69.719 -30.441  1.00  0.00     0.004 C 
HETATM    4  C6  UNL     1      52.519  70.504 -29.293  1.00  0.00     0.027 C 
HETATM    5  C7  UNL     1      53.697  69.893 -28.589  1.00  0.00     0.233 C 
HETATM    6  N2  UNL     1      53.378  68.530 -28.276  1.00  0.00    -0.066 N 
ATOM      7  H21 UNL     1      54.026  68.121 -27.602  1.00  0.00     0.278 HD
ATOM      8  H22 UNL     1      52.526  68.446 -27.720  1.00  0.00     0.278 HD
ENDROOT
BRANCH   1   9
HETATM    9  C2  UNL     1      53.012  66.348 -29.120  1.00  0.00     0.087 C 
HETATM   10  N1  UNL     1      51.897  65.816 -29.410  1.00  0.00    -0.405 N 
HETATM   11  C1  UNL     1      51.656  64.461 -29.028  1.00  0.00     0.145 C 
ATOM     12  H1  UNL     1      51.185  66.347 -29.909  1.00  0.00     0.158 HD
ENDBRANCH   1   9
TORSDOF 1
ENDMDL
MODEL 4
REMARK VINA RESULT: -4.630163789      1.377      4.035
REMARK  1 active torsions:
REMARK  status: ('A' for Active; 'I' for Inactive)
REMARK    1  A    between atoms: C2_4  and  C3_5 
ROOT
HETATM    1  C3  UNL     1      53.865  68.444 -28.965  1.00  0.00     0.223 C 
HETATM    2  C4  UNL     1      53.108  68.653 -30.227  1.00  0.00     0.038 C 
HETATM    3  C5  UNL     1      53.009  70.051 -30.699  1.00  0.00     0.004 C 
HETATM    4  C6  UNL     1      53.134  71.102 -29.666  1.00  0.00     0.027 C 
HETATM    5  C7  UNL     1      53.996  70.727 -28.494  1.00  0.00     0.233 C 
HETATM    6  N2  UNL     1      53.548  69.460 -27.993  1.00  0.00    -0.066 N 
ATOM      7  H21 UNL     1      53.926  69.249 -27.069  1.00  0.00     0.278 HD
ATOM      8  H22 UNL     1      52.559  69.466 -27.742  1.00  0.00     0.278 HD
ENDROOT
BRANCH   1   9
HETATM    9  C2  UNL     1      53.409  67.126 -28.376  1.00  0.00     0.087 C 
HETATM   10  N1  UNL     1      52.899  66.227 -29.110  1.00  0.00    -0.405 N 
HETATM   11  C1  UNL     1      52.483  64.999 -28.512  1.00  0.00     0.145 C 
ATOM     12  H1  UNL     1      52.789  66.378 -30.113  1.00  0.00     0.158 HD
ENDBRANCH   1   9
TORSDOF 1
ENDMDL
MODEL 5
REMARK VINA RESULT: -4.595714809      2.293      2.603
REMARK  1 active torsions:
REMARK  status: ('A' for Active; 'I' for Inactive)
REMARK    1  A    between atoms: C2_4  and  C3_5 
ROOT
HETATM    1  C3  UNL     1      52.661  69.016 -29.909  1.00  0.00     0.223 C 
HETATM    2  C4  UNL     1      52.103  67.928 -30.755  1.00  0.00     0.038 C 
HETATM    3  C5  UNL     1      52.078  66.582 -30.144  1.00  0.00     0.004 C 
HETATM    4  C6  UNL     1      53.069  66.326 -29.077  1.00  0.00     0.027 C 
HETATM    5  C7  UNL     1      53.462  67.542 -28.285  1.00  0.00     0.233 C 
HETATM    6  N2  UNL     1      53.839  68.576 -29.205  1.00  0.00    -0.066 N 
ATOM      7  H21 UNL     1      54.332  69.344 -28.749  1.00  0.00     0.278 HD
ATOM      8  H22 UNL     1      54.586  68.285 -29.836  1.00  0.00     0.278 HD
ENDROOT
BRANCH   1   9
HETATM    9  C2  UNL     1      53.103  70.129 -30.835  1.00  0.00     0.087 C 
HETATM   10  N1  UNL     1      52.468  70.376 -31.905  1.00  0.00    -0.405 N 
HETATM   11  C1  UNL     1      52.919  71.435 -32.749  1.00  0.00     0.145 C 
ATOM     12  H1  UNL     1      51.646  69.827 -32.158  1.00  0.00     0.158 HD
ENDBRANCH   1   9
TORSDOF 1
ENDMDL
