MODEL 1
REMARK VINA RESULT: -3.588131616      0.000      0.000
REMARK  2 active torsions:
REMARK  status: ('A' for Active; 'I' for Inactive)
REMARK    1  A    between atoms: C2_2  and  N1_3 
REMARK    2  A    between atoms: N1_3  and  C5_6 
ROOT
HETATM    1  C5  UNL     1      53.340  69.853 -30.515  1.00  0.00     0.254 A 
HETATM    2  C6  UNL     1      54.122  69.879 -29.258  1.00  0.00     0.252 A 
HETATM    3  N2  UNL     1      53.514  69.486 -27.993  1.00  0.00    -0.058 N 
ATOM      4  H21 UNL     1      53.180  69.962 -27.155  1.00  0.00     0.278 HD
ATOM      5  H22 UNL     1      53.818  69.005 -27.146  1.00  0.00     0.278 HD
HETATM    6  C7  UNL     1      52.959  69.105 -29.259  1.00  0.00     0.252 A 
ENDROOT
BRANCH   1   7
HETATM    7  N1  UNL     1      52.545  70.962 -30.952  1.00  0.00    -0.067 N 
HETATM    8  C3  UNL     1      52.898  72.166 -30.184  1.00  0.00     0.272 C 
HETATM    9  C4  UNL     1      52.786  71.292 -32.342  1.00  0.00     0.272 C 
BRANCH   7  10
HETATM   10  C2  UNL     1      51.143  70.646 -30.819  1.00  0.00     0.232 C 
HETATM   11  C1  UNL     1      50.363  71.747 -30.125  1.00  0.00     0.035 C 
ENDBRANCH   7  10
ENDBRANCH   1   7
TORSDOF 2
ENDMDL
MODEL 2
REMARK VINA RESULT: -3.551172281      1.451      1.984
REMARK  2 active torsions:
REMARK  status: ('A' for Active; 'I' for Inactive)
REMARK    1  A    between atoms: C2_2  and  N1_3 
REMARK    2  A    between atoms: N1_3  and  C5_6 
ROOT
HETATM    1  C5  UNL     1      53.295  69.772 -30.024  1.00  0.00     0.254 A 
HETATM    2  C6  UNL     1      52.388  68.603 -30.064  1.00  0.00     0.252 A 
HETATM    3  N2  UNL     1      51.678  68.250 -31.287  1.00  0.00    -0.058 N 
ATOM      4  H21 UNL     1      50.719  68.317 -31.629  1.00  0.00     0.278 HD
ATOM      5  H22 UNL     1      51.387  67.389 -31.749  1.00  0.00     0.278 HD
HETATM    6  C7  UNL     1      52.842  69.088 -31.292  1.00  0.00     0.252 A 
ENDROOT
BRANCH   1   7
HETATM    7  N1  UNL     1      52.836  71.096 -29.726  1.00  0.00    -0.067 N 
HETATM    8  C3  UNL     1      53.788  71.766 -28.828  1.00  0.00     0.272 C 
HETATM    9  C4  UNL     1      52.755  71.926 -30.911  1.00  0.00     0.272 C 
BRANCH   7  10
HETATM   10  C2  UNL     1      51.516  71.041 -29.146  1.00  0.00     0.232 C 
HETATM   11  C1  UNL     1      50.482  71.768 -29.986  1.00  0.00     0.035 C 
ENDBRANCH   7  10
ENDBRANCH   1   7
TORSDOF 2
ENDMDL
MODEL 3
REMARK VINA RESULT: -3.543567753      1.621      2.204
REMARK  2 active torsions:
REMARK  status: ('A' for Active; 'I' for Inactive)
REMARK    1  A    between atoms: C2_2  and  N1_3 
REMARK    2  A    between atoms: N1_3  and  C5_6 
ROOT
HETATM    1  C5  UNL     1      52.129  69.496 -29.863  1.00  0.00     0.254 A 
HETATM    2  C6  UNL     1      51.830  68.371 -30.777  1.00  0.00     0.252 A 
HETATM    3  N2  UNL     1      52.760  68.003 -31.837  1.00  0.00    -0.058 N 
ATOM      4  H21 UNL     1      52.799  68.102 -32.852  1.00  0.00     0.278 HD
ATOM      5  H22 UNL     1      53.066  67.138 -32.283  1.00  0.00     0.278 HD
HETATM    6  C7  UNL     1      53.162  68.784 -30.703  1.00  0.00     0.252 A 
ENDROOT
BRANCH   1   7
HETATM    7  N1  UNL     1      51.777  70.852 -30.165  1.00  0.00    -0.067 N 
HETATM    8  C3  UNL     1      51.136  71.475 -28.998  1.00  0.00     0.272 C 
HETATM    9  C4  UNL     1      52.940  71.665 -30.461  1.00  0.00     0.272 C 
BRANCH   7  10
HETATM   10  C2  UNL     1      50.916  70.891 -31.322  1.00  0.00     0.232 C 
HETATM   11  C1  UNL     1      50.076  72.155 -31.377  1.00  0.00     0.035 C 
ENDBRANCH   7  10
ENDBRANCH   1   7
TORSDOF 2
ENDMDL
MODEL 4
REMARK VINA RESULT: -3.525008956      1.940      2.377
REMARK  2 active torsions:
REMARK  status: ('A' for Active; 'I' for Inactive)
REMARK    1  A    between atoms: C2_2  and  N1_3 
REMARK    2  A    between atoms: N1_3  and  C5_6 
ROOT
HETATM    1  C5  UNL     1      52.167  68.709 -29.791  1.00  0.00     0.254 A 
HETATM    2  C6  UNL     1      52.011  67.747 -30.905  1.00  0.00     0.252 A 
HETATM    3  N2  UNL     1      53.055  66.773 -31.202  1.00  0.00    -0.058 N 
ATOM      4  H21 UNL     1      53.769  66.653 -31.920  1.00  0.00     0.278 HD
ATOM      5  H22 UNL     1      53.091  65.809 -31.532  1.00  0.00     0.278 HD
HETATM    6  C7  UNL     1      52.962  67.433 -29.932  1.00  0.00     0.252 A 
ENDROOT
BRANCH   1   7
HETATM    7  N1  UNL     1      52.818  69.975 -29.950  1.00  0.00    -0.067 N 
HETATM    8  C3  UNL     1      54.172  69.917 -29.377  1.00  0.00     0.272 C 
HETATM    9  C4  UNL     1      52.991  70.329 -31.344  1.00  0.00     0.272 C 
BRANCH   7  10
HETATM   10  C2  UNL     1      52.031  71.015 -29.334  1.00  0.00     0.232 C 
HETATM   11  C1  UNL     1      50.760  71.316 -30.107  1.00  0.00     0.035 C 
ENDBRANCH   7  10
ENDBRANCH   1   7
TORSDOF 2
ENDMDL
MODEL 5
REMARK VINA RESULT: -3.521581837      1.963      2.732
REMARK  2 active torsions:
REMARK  status: ('A' for Active; 'I' for Inactive)
REMARK    1  A    between atoms: C2_2  and  N1_3 
REMARK    2  A    between atoms: N1_3  and  C5_6 
ROOT
HETATM    1  C5  UNL     1      52.191  68.611 -29.741  1.00  0.00     0.254 A 
HETATM    2  C6  UNL     1      52.046  67.603 -30.815  1.00  0.00     0.252 A 
HETATM    3  N2  UNL     1      53.091  66.616 -31.058  1.00  0.00    -0.058 N 
ATOM      4  H21 UNL     1      53.813  66.464 -31.762  1.00  0.00     0.278 HD
ATOM      5  H22 UNL     1      53.129  65.638 -31.346  1.00  0.00     0.278 HD
HETATM    6  C7  UNL     1      52.985  67.329 -29.818  1.00  0.00     0.252 A 
ENDROOT
BRANCH   1   7
HETATM    7  N1  UNL     1      52.847  69.868 -29.945  1.00  0.00    -0.067 N 
HETATM    8  C3  UNL     1      52.110  70.936 -29.253  1.00  0.00     0.272 C 
HETATM    9  C4  UNL     1      54.185  69.882 -29.388  1.00  0.00     0.272 C 
BRANCH   7  10
HETATM   10  C2  UNL     1      52.963  70.140 -31.357  1.00  0.00     0.232 C 
HETATM   11  C1  UNL     1      52.863  71.621 -31.673  1.00  0.00     0.035 C 
ENDBRANCH   7  10
ENDBRANCH   1   7
TORSDOF 2
ENDMDL
