MODEL 1
REMARK VINA RESULT: -7.405870034      0.000      0.000
REMARK  4 active torsions:
REMARK  status: ('A' for Active; 'I' for Inactive)
REMARK       I    between atoms: C2_4  and  N2_5 
REMARK       I    between atoms: C2_4  and  N9_32 
REMARK       I    between atoms: C3_7  and  N3_8 
REMARK       I    between atoms: C3_7  and  N6_20 
REMARK    1  A    between atoms: N3_8  and  C4_10 
REMARK    2  A    between atoms: C4_10  and  C5_11 
REMARK    3  A    between atoms: C5_11  and  N4_12 
REMARK    4  A    between atoms: N6_20  and  C12_22 
ROOT
HETATM    1  C1  UNL     1      44.872  27.102  48.099  1.00  0.00     0.165 C 
HETATM    2  N1  UNL     1      44.505  25.966  48.919  1.00  0.00    -0.230 N 
ATOM      3  H1  UNL     1      44.603  26.018  49.933  1.00  0.00     0.177 HD
HETATM    4  C2  UNL     1      44.063  24.903  48.380  1.00  0.00     0.689 C 
HETATM    5  N2  UNL     1      43.706  23.801  49.167  1.00  0.00    -0.023 N 
ATOM      6  H2  UNL     1      44.150  22.914  48.928  1.00  0.00     0.203 HD
HETATM    7  C3  UNL     1      42.891  23.779  50.150  1.00  0.00     0.693 C 
HETATM    8  N3  UNL     1      42.194  24.920  50.607  1.00  0.00    -0.224 N 
ATOM      9  H3  UNL     1      42.140  25.712  49.965  1.00  0.00     0.177 HD
HETATM   10  N6  UNL     1      42.719  22.493  50.781  1.00  0.00    -0.188 N 
ATOM     11  H6  UNL     1      41.919  21.897  50.570  1.00  0.00     0.184 HD
HETATM   12  N9  UNL     1      43.898  24.745  46.956  1.00  0.00    -0.226 N 
HETATM   13  C17 UNL     1      44.884  23.988  46.194  1.00  0.00     0.168 C 
HETATM   14  C18 UNL     1      42.772  25.314  46.240  1.00  0.00     0.168 C 
ENDROOT
BRANCH   8  15
HETATM   15  C4  UNL     1      41.558  25.081  51.871  1.00  0.00     0.166 C 
BRANCH  15  16
HETATM   16  C5  UNL     1      42.097  26.138  52.763  1.00  0.00     0.259 C 
BRANCH  16  17
HETATM   17  N4  UNL     1      41.467  26.240  54.066  1.00  0.00    -0.044 N 
HETATM   18  C6  UNL     1      42.437  26.795  55.019  1.00  0.00     0.274 C 
HETATM   19  C7  UNL     1      40.352  27.163  54.036  1.00  0.00     0.267 C 
HETATM   20  C8  UNL     1      39.573  26.813  55.270  1.00  0.00     0.266 C 
HETATM   21  N5  UNL     1      39.807  25.411  55.446  1.00  0.00    -0.049 N 
HETATM   22  C9  UNL     1      40.132  25.111  56.841  1.00  0.00     0.274 C 
HETATM   23  C10 UNL     1      38.588  24.681  55.130  1.00  0.00     0.274 C 
HETATM   24  C11 UNL     1      40.886  25.029  54.546  1.00  0.00     0.471 C 
ENDBRANCH  16  17
ENDBRANCH  15  16
ENDBRANCH   8  15
BRANCH  10  25
HETATM   25  C12 UNL     1      43.717  22.095  51.710  1.00  0.00     0.092 A 
HETATM   26  C13 UNL     1      43.851  22.740  52.933  1.00  0.00     0.035 A 
HETATM   27  C14 UNL     1      44.791  22.411  53.878  1.00  0.00     0.019 A 
HETATM   28  C15 UNL     1      45.654  21.371  53.589  1.00  0.00     0.090 A 
HETATM   29  N7  UNL     1      45.546  20.726  52.405  1.00  0.00    -0.351 N 
HETATM   30  C16 UNL     1      44.603  21.070  51.479  1.00  0.00     0.126 A 
ATOM     31  H7  UNL     1      46.187  19.960  52.199  1.00  0.00     0.166 HD
HETATM   32  N8  UNL     1      44.584  20.397  50.393  1.00  0.00    -0.384 N 
ATOM     33  H82 UNL     1      43.880  20.654  49.700  1.00  0.00     0.157 HD
ATOM     34  H81 UNL     1      45.242  19.637  50.222  1.00  0.00     0.157 HD
ENDBRANCH  10  25
TORSDOF 4
ENDMDL
MODEL 2
REMARK VINA RESULT: -7.201462699      1.545      2.071
REMARK  4 active torsions:
REMARK  status: ('A' for Active; 'I' for Inactive)
REMARK       I    between atoms: C2_4  and  N2_5 
REMARK       I    between atoms: C2_4  and  N9_32 
REMARK       I    between atoms: C3_7  and  N3_8 
REMARK       I    between atoms: C3_7  and  N6_20 
REMARK    1  A    between atoms: N3_8  and  C4_10 
REMARK    2  A    between atoms: C4_10  and  C5_11 
REMARK    3  A    between atoms: C5_11  and  N4_12 
REMARK    4  A    between atoms: N6_20  and  C12_22 
ROOT
HETATM    1  C1  UNL     1      43.681  28.221  50.140  1.00  0.00     0.165 C 
HETATM    2  N1  UNL     1      43.480  26.842  50.535  1.00  0.00    -0.230 N 
ATOM      3  H1  UNL     1      43.761  26.534  51.466  1.00  0.00     0.177 HD
HETATM    4  C2  UNL     1      42.953  26.015  49.726  1.00  0.00     0.689 C 
HETATM    5  N2  UNL     1      42.755  24.681  50.102  1.00  0.00    -0.023 N 
ATOM      6  H2  UNL     1      43.154  23.975  49.484  1.00  0.00     0.203 HD
HETATM    7  C3  UNL     1      42.134  24.246  51.131  1.00  0.00     0.693 C 
HETATM    8  N3  UNL     1      41.525  25.093  52.085  1.00  0.00    -0.224 N 
ATOM      9  H3  UNL     1      41.349  26.055  51.797  1.00  0.00     0.177 HD
HETATM   10  N6  UNL     1      42.091  22.811  51.265  1.00  0.00    -0.188 N 
ATOM     11  H6  UNL     1      41.269  22.274  50.988  1.00  0.00     0.184 HD
HETATM   12  N9  UNL     1      42.531  26.368  48.393  1.00  0.00    -0.226 N 
HETATM   13  C17 UNL     1      43.366  26.010  47.253  1.00  0.00     0.168 C 
HETATM   14  C18 UNL     1      41.289  27.072  48.136  1.00  0.00     0.168 C 
ENDROOT
BRANCH   8  15
HETATM   15  C4  UNL     1      41.131  24.741  53.408  1.00  0.00     0.166 C 
BRANCH  15  16
HETATM   16  C5  UNL     1      41.101  25.834  54.412  1.00  0.00     0.259 C 
BRANCH  16  17
HETATM   17  N4  UNL     1      39.811  26.084  55.027  1.00  0.00    -0.044 N 
HETATM   18  C6  UNL     1      39.158  27.195  54.321  1.00  0.00     0.274 C 
HETATM   19  C7  UNL     1      38.934  24.940  54.885  1.00  0.00     0.267 C 
HETATM   20  C8  UNL     1      37.875  25.180  55.921  1.00  0.00     0.266 C 
HETATM   21  N5  UNL     1      38.556  25.894  56.958  1.00  0.00    -0.049 N 
HETATM   22  C9  UNL     1      37.764  27.041  57.403  1.00  0.00     0.274 C 
HETATM   23  C10 UNL     1      38.716  25.020  58.112  1.00  0.00     0.274 C 
HETATM   24  C11 UNL     1      39.851  26.302  56.436  1.00  0.00     0.471 C 
ENDBRANCH  16  17
ENDBRANCH  15  16
ENDBRANCH   8  15
BRANCH  10  25
HETATM   25  C12 UNL     1      43.244  22.180  51.801  1.00  0.00     0.092 A 
HETATM   26  C13 UNL     1      44.003  22.799  52.786  1.00  0.00     0.035 A 
HETATM   27  C14 UNL     1      45.129  22.251  53.349  1.00  0.00     0.019 A 
HETATM   28  C15 UNL     1      45.527  21.005  52.904  1.00  0.00     0.090 A 
HETATM   29  N7  UNL     1      44.807  20.380  51.945  1.00  0.00    -0.351 N 
HETATM   30  C16 UNL     1      43.690  20.943  51.399  1.00  0.00     0.126 A 
ATOM     31  H7  UNL     1      45.108  19.461  51.621  1.00  0.00     0.166 HD
HETATM   32  N8  UNL     1      43.080  20.271  50.499  1.00  0.00    -0.384 N 
ATOM     33  H82 UNL     1      42.246  20.691  50.090  1.00  0.00     0.157 HD
ATOM     34  H81 UNL     1      43.411  19.353  50.201  1.00  0.00     0.157 HD
ENDBRANCH  10  25
TORSDOF 4
ENDMDL
MODEL 3
REMARK VINA RESULT: -7.189228270      1.219      1.271
REMARK  4 active torsions:
REMARK  status: ('A' for Active; 'I' for Inactive)
REMARK       I    between atoms: C2_4  and  N2_5 
REMARK       I    between atoms: C2_4  and  N9_32 
REMARK       I    between atoms: C3_7  and  N3_8 
REMARK       I    between atoms: C3_7  and  N6_20 
REMARK    1  A    between atoms: N3_8  and  C4_10 
REMARK    2  A    between atoms: C4_10  and  C5_11 
REMARK    3  A    between atoms: C5_11  and  N4_12 
REMARK    4  A    between atoms: N6_20  and  C12_22 
ROOT
HETATM    1  C1  UNL     1      44.052  27.884  49.661  1.00  0.00     0.165 C 
HETATM    2  N1  UNL     1      43.800  26.527  50.099  1.00  0.00    -0.230 N 
ATOM      3  H1  UNL     1      43.996  26.259  51.063  1.00  0.00     0.177 HD
HETATM    4  C2  UNL     1      43.334  25.668  49.285  1.00  0.00     0.689 C 
HETATM    5  N2  UNL     1      43.087  24.354  49.702  1.00  0.00    -0.023 N 
ATOM      6  H2  UNL     1      43.528  23.616  49.153  1.00  0.00     0.203 HD
HETATM    7  C3  UNL     1      42.374  23.973  50.691  1.00  0.00     0.693 C 
HETATM    8  N3  UNL     1      41.696  24.867  51.551  1.00  0.00    -0.224 N 
ATOM      9  H3  UNL     1      41.558  25.817  51.206  1.00  0.00     0.177 HD
HETATM   10  N6  UNL     1      42.301  22.545  50.886  1.00  0.00    -0.188 N 
ATOM     11  H6  UNL     1      41.500  22.003  50.563  1.00  0.00     0.184 HD
HETATM   12  N9  UNL     1      43.032  25.963  47.906  1.00  0.00    -0.226 N 
HETATM   13  C17 UNL     1      43.958  25.546  46.859  1.00  0.00     0.168 C 
HETATM   14  C18 UNL     1      41.826  26.665  47.512  1.00  0.00     0.168 C 
ENDROOT
BRANCH   8  15
HETATM   15  C4  UNL     1      41.186  24.580  52.849  1.00  0.00     0.166 C 
BRANCH  15  16
HETATM   16  C5  UNL     1      41.763  25.347  53.982  1.00  0.00     0.259 C 
BRANCH  16  17
HETATM   17  N4  UNL     1      40.811  25.809  54.973  1.00  0.00    -0.044 N 
HETATM   18  C6  UNL     1      41.487  26.751  55.876  1.00  0.00     0.274 C 
HETATM   19  C7  UNL     1      39.728  26.545  54.355  1.00  0.00     0.267 C 
HETATM   20  C8  UNL     1      38.658  26.545  55.408  1.00  0.00     0.266 C 
HETATM   21  N5  UNL     1      38.861  25.317  56.114  1.00  0.00    -0.049 N 
HETATM   22  C9  UNL     1      38.813  25.535  57.560  1.00  0.00     0.274 C 
HETATM   23  C10 UNL     1      37.780  24.397  55.790  1.00  0.00     0.274 C 
HETATM   24  C11 UNL     1      40.144  24.773  55.693  1.00  0.00     0.471 C 
ENDBRANCH  16  17
ENDBRANCH  15  16
ENDBRANCH   8  15
BRANCH  10  25
HETATM   25  C12 UNL     1      43.396  21.929  51.547  1.00  0.00     0.092 A 
HETATM   26  C13 UNL     1      44.150  22.628  52.482  1.00  0.00     0.035 A 
HETATM   27  C14 UNL     1      45.221  22.099  53.158  1.00  0.00     0.019 A 
HETATM   28  C15 UNL     1      45.566  20.789  52.889  1.00  0.00     0.090 A 
HETATM   29  N7  UNL     1      44.850  20.086  51.983  1.00  0.00    -0.351 N 
HETATM   30  C16 UNL     1      43.788  20.631  51.321  1.00  0.00     0.126 A 
ATOM     31  H7  UNL     1      45.111  19.119  51.788  1.00  0.00     0.166 HD
HETATM   32  N8  UNL     1      43.177  19.882  50.485  1.00  0.00    -0.384 N 
ATOM     33  H82 UNL     1      42.383  20.290  49.990  1.00  0.00     0.157 HD
ATOM     34  H81 UNL     1      43.467  18.919  50.317  1.00  0.00     0.157 HD
ENDBRANCH  10  25
TORSDOF 4
ENDMDL
MODEL 4
REMARK VINA RESULT: -7.074379700      1.493      2.217
REMARK  4 active torsions:
REMARK  status: ('A' for Active; 'I' for Inactive)
REMARK       I    between atoms: C2_4  and  N2_5 
REMARK       I    between atoms: C2_4  and  N9_32 
REMARK       I    between atoms: C3_7  and  N3_8 
REMARK       I    between atoms: C3_7  and  N6_20 
REMARK    1  A    between atoms: N3_8  and  C4_10 
REMARK    2  A    between atoms: C4_10  and  C5_11 
REMARK    3  A    between atoms: C5_11  and  N4_12 
REMARK    4  A    between atoms: N6_20  and  C12_22 
ROOT
HETATM    1  C1  UNL     1      43.829  28.160  49.915  1.00  0.00     0.165 C 
HETATM    2  N1  UNL     1      43.575  26.812  50.380  1.00  0.00    -0.230 N 
ATOM      3  H1  UNL     1      43.841  26.543  51.328  1.00  0.00     0.177 HD
HETATM    4  C2  UNL     1      43.022  25.964  49.613  1.00  0.00     0.689 C 
HETATM    5  N2  UNL     1      42.773  24.659  50.057  1.00  0.00    -0.023 N 
ATOM      6  H2  UNL     1      43.147  23.907  49.479  1.00  0.00     0.203 HD
HETATM    7  C3  UNL     1      42.132  24.303  51.103  1.00  0.00     0.693 C 
HETATM    8  N3  UNL     1      41.550  25.220  52.008  1.00  0.00    -0.224 N 
ATOM      9  H3  UNL     1      41.412  26.172  51.669  1.00  0.00     0.177 HD
HETATM   10  N6  UNL     1      42.034  22.879  51.312  1.00  0.00    -0.188 N 
ATOM     11  H6  UNL     1      41.195  22.358  51.058  1.00  0.00     0.184 HD
HETATM   12  N9  UNL     1      42.618  26.261  48.261  1.00  0.00    -0.226 N 
HETATM   13  C17 UNL     1      43.444  25.813  47.145  1.00  0.00     0.168 C 
HETATM   14  C18 UNL     1      41.404  26.996  47.960  1.00  0.00     0.168 C 
ENDROOT
BRANCH   8  15
HETATM   15  C4  UNL     1      41.138  24.953  53.345  1.00  0.00     0.166 C 
BRANCH  15  16
HETATM   16  C5  UNL     1      40.326  25.997  54.017  1.00  0.00     0.259 C 
BRANCH  16  17
HETATM   17  N4  UNL     1      39.787  25.633  55.314  1.00  0.00    -0.044 N 
HETATM   18  C6  UNL     1      38.637  24.739  55.114  1.00  0.00     0.274 C 
HETATM   19  C7  UNL     1      40.754  24.884  56.089  1.00  0.00     0.267 C 
HETATM   20  C8  UNL     1      40.233  24.987  57.494  1.00  0.00     0.266 C 
HETATM   21  N5  UNL     1      39.574  26.257  57.530  1.00  0.00    -0.049 N 
HETATM   22  C9  UNL     1      38.264  26.143  58.174  1.00  0.00     0.274 C 
HETATM   23  C10 UNL     1      40.361  27.180  58.335  1.00  0.00     0.274 C 
HETATM   24  C11 UNL     1      39.461  26.735  56.159  1.00  0.00     0.471 C 
ENDBRANCH  16  17
ENDBRANCH  15  16
ENDBRANCH   8  15
BRANCH  10  25
HETATM   25  C12 UNL     1      43.162  22.235  51.887  1.00  0.00     0.092 A 
HETATM   26  C13 UNL     1      43.869  22.828  52.925  1.00  0.00     0.035 A 
HETATM   27  C14 UNL     1      44.967  22.266  53.528  1.00  0.00     0.019 A 
HETATM   28  C15 UNL     1      45.390  21.033  53.070  1.00  0.00     0.090 A 
HETATM   29  N7  UNL     1      44.720  20.434  52.060  1.00  0.00    -0.351 N 
HETATM   30  C16 UNL     1      43.630  21.010  51.474  1.00  0.00     0.126 A 
ATOM     31  H7  UNL     1      45.038  19.524  51.726  1.00  0.00     0.166 HD
HETATM   32  N8  UNL     1      43.067  20.361  50.528  1.00  0.00    -0.384 N 
ATOM     33  H82 UNL     1      42.253  20.792  50.090  1.00  0.00     0.157 HD
ATOM     34  H81 UNL     1      43.414  19.452  50.222  1.00  0.00     0.157 HD
ENDBRANCH  10  25
TORSDOF 4
ENDMDL
MODEL 5
REMARK VINA RESULT: -7.047790030      1.693      6.673
REMARK  4 active torsions:
REMARK  status: ('A' for Active; 'I' for Inactive)
REMARK       I    between atoms: C2_4  and  N2_5 
REMARK       I    between atoms: C2_4  and  N9_32 
REMARK       I    between atoms: C3_7  and  N3_8 
REMARK       I    between atoms: C3_7  and  N6_20 
REMARK    1  A    between atoms: N3_8  and  C4_10 
REMARK    2  A    between atoms: C4_10  and  C5_11 
REMARK    3  A    between atoms: C5_11  and  N4_12 
REMARK    4  A    between atoms: N6_20  and  C12_22 
ROOT
HETATM    1  C1  UNL     1      39.474  24.879  55.700  1.00  0.00     0.165 C 
HETATM    2  N1  UNL     1      40.665  24.398  55.031  1.00  0.00    -0.230 N 
ATOM      3  H1  UNL     1      40.606  23.597  54.401  1.00  0.00     0.177 HD
HETATM    4  C2  UNL     1      41.784  24.969  55.225  1.00  0.00     0.689 C 
HETATM    5  N2  UNL     1      42.938  24.509  54.581  1.00  0.00    -0.023 N 
ATOM      6  H2  UNL     1      43.731  24.284  55.182  1.00  0.00     0.203 HD
HETATM    7  C3  UNL     1      43.114  24.338  53.327  1.00  0.00     0.693 C 
HETATM    8  N3  UNL     1      42.117  24.602  52.360  1.00  0.00    -0.224 N 
ATOM      9  H3  UNL     1      41.342  25.197  52.653  1.00  0.00     0.177 HD
HETATM   10  N6  UNL     1      44.416  23.846  52.947  1.00  0.00    -0.188 N 
ATOM     11  H6  UNL     1      45.141  24.472  52.597  1.00  0.00     0.184 HD
HETATM   12  N9  UNL     1      41.954  26.103  56.100  1.00  0.00    -0.226 N 
HETATM   13  C17 UNL     1      42.518  25.909  57.431  1.00  0.00     0.168 C 
HETATM   14  C18 UNL     1      41.586  27.448  55.704  1.00  0.00     0.168 C 
ENDROOT
BRANCH   8  15
HETATM   15  C4  UNL     1      42.083  24.125  51.019  1.00  0.00     0.166 C 
BRANCH  15  16
HETATM   16  C5  UNL     1      41.973  25.145  49.946  1.00  0.00     0.259 C 
BRANCH  16  17
HETATM   17  N4  UNL     1      43.205  25.447  49.241  1.00  0.00    -0.044 N 
HETATM   18  C6  UNL     1      43.826  26.627  49.860  1.00  0.00     0.274 C 
HETATM   19  C7  UNL     1      44.161  24.367  49.373  1.00  0.00     0.267 C 
HETATM   20  C8  UNL     1      45.137  24.627  48.263  1.00  0.00     0.266 C 
HETATM   21  N5  UNL     1      44.351  25.251  47.243  1.00  0.00    -0.049 N 
HETATM   22  C9  UNL     1      45.038  26.425  46.704  1.00  0.00     0.274 C 
HETATM   23  C10 UNL     1      44.177  24.319  46.138  1.00  0.00     0.274 C 
HETATM   24  C11 UNL     1      43.065  25.601  47.830  1.00  0.00     0.471 C 
ENDBRANCH  16  17
ENDBRANCH  15  16
ENDBRANCH   8  15
BRANCH  10  25
HETATM   25  C12 UNL     1      44.641  22.451  53.083  1.00  0.00     0.092 A 
HETATM   26  C13 UNL     1      44.137  21.553  52.151  1.00  0.00     0.035 A 
HETATM   27  C14 UNL     1      44.314  20.193  52.218  1.00  0.00     0.019 A 
HETATM   28  C15 UNL     1      45.040  19.692  53.281  1.00  0.00     0.090 A 
HETATM   29  N7  UNL     1      45.541  20.544  54.204  1.00  0.00    -0.351 N 
HETATM   30  C16 UNL     1      45.354  21.894  54.118  1.00  0.00     0.126 A 
ATOM     31  H7  UNL     1      46.075  20.167  54.987  1.00  0.00     0.166 HD
HETATM   32  N8  UNL     1      45.869  22.612  55.041  1.00  0.00    -0.384 N 
ATOM     33  H82 UNL     1      45.729  23.621  54.977  1.00  0.00     0.157 HD
ATOM     34  H81 UNL     1      46.398  22.199  55.809  1.00  0.00     0.157 HD
ENDBRANCH  10  25
TORSDOF 4
ENDMDL
