MODEL 1
REMARK VINA RESULT: -7.199040323      0.000      0.000
REMARK  14 active torsions:
REMARK  status: ('A' for Active; 'I' for Inactive)
REMARK    1  A    between atoms: N1_2  and  C2_3 
REMARK    2  A    between atoms: N1_2  and  C6_11 
REMARK    3  A    between atoms: C2_3  and  C3_4 
REMARK    4  A    between atoms: C3_4  and  C4_5 
REMARK    5  A    between atoms: C4_5  and  N2_6 
REMARK    6  A    between atoms: C6_11  and  O1_12 
REMARK    7  A    between atoms: C6_11  and  C7_14 
REMARK    8  A    between atoms: C7_14  and  N5_15 
REMARK    9  A    between atoms: C7_14  and  C8_18 
REMARK   10  A    between atoms: C7_14  and  C16_28 
REMARK   11  A    between atoms: C8_18  and  C9_19 
REMARK   12  A    between atoms: C9_19  and  C10_20 
REMARK       I    between atoms: C10_20  and  N6_22 
REMARK   13  A    between atoms: C16_28  and  O3_29 
REMARK   14  A    between atoms: C16_28  and  N7_31 
ROOT
HETATM    1  C7  UNL     1      -0.757  17.577  20.056  1.00  0.00     0.155 C 
ENDROOT
BRANCH   1   2
HETATM    2  C6  UNL     1       0.548  18.004  20.634  1.00  0.00     0.150 C 
BRANCH   2   3
HETATM    3  N1  UNL     1       1.064  19.211  21.023  1.00  0.00    -0.367 N 
HETATM    4  C1  UNL     1       1.770  19.981  19.941  1.00  0.00     0.151 C 
BRANCH   3   5
HETATM    5  C2  UNL     1       1.108  19.817  22.301  1.00  0.00     0.125 C 
BRANCH   5   6
HETATM    6  C3  UNL     1      -0.106  20.636  22.683  1.00  0.00     0.039 C 
BRANCH   6   7
HETATM    7  C4  UNL     1      -0.799  20.149  23.889  1.00  0.00     0.123 C 
BRANCH   7   8
HETATM    8  N2  UNL     1      -1.380  18.844  23.830  1.00  0.00    -0.367 N 
HETATM    9  C5  UNL     1      -0.966  17.753  24.288  1.00  0.00     0.196 C 
HETATM   10  N3  UNL     1      -1.807  16.597  24.052  1.00  0.00    -0.067 NA
HETATM   11  N4  UNL     1       0.217  17.491  25.010  1.00  0.00    -0.067 NA
ATOM     12  H2  UNL     1      -2.271  18.793  23.338  1.00  0.00     0.161 HD
ENDBRANCH   7   8
ENDBRANCH   6   7
ENDBRANCH   5   6
ENDBRANCH   3   5
ENDBRANCH   2   3
BRANCH   2  13
HETATM   13  O1  UNL     1       1.356  16.963  20.782  1.00  0.00    -0.347 OA
ATOM     14  H1  UNL     1       1.841  16.707  20.006  1.00  0.00     0.219 HD
ENDBRANCH   2  13
ENDBRANCH   1   2
BRANCH   1  15
HETATM   15  N5  UNL     1      -1.530  16.855  20.940  1.00  0.00    -0.409 N 
ATOM     16  H52 UNL     1      -1.782  15.880  20.780  1.00  0.00     0.151 HD
ATOM     17  H51 UNL     1      -1.817  17.396  21.756  1.00  0.00     0.151 HD
ENDBRANCH   1  15
BRANCH   1  18
HETATM   18  C8  UNL     1      -1.415  18.945  19.714  1.00  0.00     0.057 C 
BRANCH  18  19
HETATM   19  C9  UNL     1      -2.701  19.166  20.406  1.00  0.00     0.106 C 
BRANCH  19  20
HETATM   20  C10 UNL     1      -3.844  18.775  19.542  1.00  0.00     0.219 C 
HETATM   21  O2  UNL     1      -3.841  17.675  18.916  1.00  0.00    -0.273 OA
HETATM   22  N6  UNL     1      -4.976  19.611  19.385  1.00  0.00    -0.352 N 
HETATM   23  C11 UNL     1      -6.093  19.266  18.563  1.00  0.00     0.125 C 
HETATM   24  C15 UNL     1      -5.058  20.904  20.073  1.00  0.00     0.125 C 
HETATM   25  C12 UNL     1      -7.370  19.160  19.343  1.00  0.00     0.020 C 
HETATM   26  C13 UNL     1      -7.407  20.173  20.436  1.00  0.00     0.003 C 
HETATM   27  C14 UNL     1      -6.517  21.358  20.123  1.00  0.00     0.020 C 
ENDBRANCH  19  20
ENDBRANCH  18  19
ENDBRANCH   1  18
BRANCH   1  28
HETATM   28  C16 UNL     1      -0.442  16.961  18.741  1.00  0.00     0.150 C 
BRANCH  28  29
HETATM   29  O3  UNL     1       0.320  17.675  17.939  1.00  0.00    -0.347 OA
ATOM     30  H3  UNL     1       0.842  17.183  17.315  1.00  0.00     0.219 HD
ENDBRANCH  28  29
BRANCH  28  31
HETATM   31  N7  UNL     1      -0.816  15.742  18.193  1.00  0.00    -0.360 N 
HETATM   32  C17 UNL     1      -1.721  15.576  17.110  1.00  0.00     0.152 C 
HETATM   33  C18 UNL     1      -1.556  14.240  16.403  1.00  0.00     0.252 C 
HETATM   34  N8  UNL     1      -1.309  13.124  17.228  1.00  0.00    -0.072 N 
HETATM   35  C19 UNL     1      -1.345  13.485  18.613  1.00  0.00     0.252 C 
ATOM     36  H82 UNL     1      -1.951  12.358  17.024  1.00  0.00     0.277 HD
ATOM     37  H81 UNL     1      -0.433  12.663  16.984  1.00  0.00     0.277 HD
HETATM   38  C20 UNL     1      -0.221  14.514  18.808  1.00  0.00     0.152 C 
ENDBRANCH  28  31
ENDBRANCH   1  28
TORSDOF 14
ENDMDL
MODEL 2
REMARK VINA RESULT: -6.726849612      2.682      5.758
REMARK  14 active torsions:
REMARK  status: ('A' for Active; 'I' for Inactive)
REMARK    1  A    between atoms: N1_2  and  C2_3 
REMARK    2  A    between atoms: N1_2  and  C6_11 
REMARK    3  A    between atoms: C2_3  and  C3_4 
REMARK    4  A    between atoms: C3_4  and  C4_5 
REMARK    5  A    between atoms: C4_5  and  N2_6 
REMARK    6  A    between atoms: C6_11  and  O1_12 
REMARK    7  A    between atoms: C6_11  and  C7_14 
REMARK    8  A    between atoms: C7_14  and  N5_15 
REMARK    9  A    between atoms: C7_14  and  C8_18 
REMARK   10  A    between atoms: C7_14  and  C16_28 
REMARK   11  A    between atoms: C8_18  and  C9_19 
REMARK   12  A    between atoms: C9_19  and  C10_20 
REMARK       I    between atoms: C10_20  and  N6_22 
REMARK   13  A    between atoms: C16_28  and  O3_29 
REMARK   14  A    between atoms: C16_28  and  N7_31 
ROOT
HETATM    1  C7  UNL     1      -0.445  18.320  18.897  1.00  0.00     0.155 C 
ENDROOT
BRANCH   1   2
HETATM    2  C6  UNL     1      -1.280  18.836  20.017  1.00  0.00     0.150 C 
BRANCH   2   3
HETATM    3  N1  UNL     1      -1.546  20.088  20.503  1.00  0.00    -0.367 N 
HETATM    4  C1  UNL     1      -2.574  20.868  19.730  1.00  0.00     0.151 C 
BRANCH   3   5
HETATM    5  C2  UNL     1      -0.952  20.797  21.574  1.00  0.00     0.125 C 
BRANCH   5   6
HETATM    6  C3  UNL     1      -1.802  20.943  22.818  1.00  0.00     0.039 C 
BRANCH   6   7
HETATM    7  C4  UNL     1      -1.219  20.314  24.016  1.00  0.00     0.123 C 
BRANCH   7   8
HETATM    8  N2  UNL     1      -1.581  18.958  24.287  1.00  0.00    -0.367 N 
HETATM    9  C5  UNL     1      -1.044  17.887  23.915  1.00  0.00     0.196 C 
HETATM   10  N3  UNL     1      -1.669  16.663  24.372  1.00  0.00    -0.067 NA
HETATM   11  N4  UNL     1       0.097  17.707  23.105  1.00  0.00    -0.067 NA
ATOM     12  H2  UNL     1      -2.406  18.843  24.875  1.00  0.00     0.161 HD
ENDBRANCH   7   8
ENDBRANCH   6   7
ENDBRANCH   5   6
ENDBRANCH   3   5
ENDBRANCH   2   3
BRANCH   2  13
HETATM   13  O1  UNL     1      -1.870  17.837  20.659  1.00  0.00    -0.347 OA
ATOM     14  H1  UNL     1      -1.310  17.339  21.244  1.00  0.00     0.219 HD
ENDBRANCH   2  13
ENDBRANCH   1   2
BRANCH   1  15
HETATM   15  N5  UNL     1      -0.919  18.687  17.655  1.00  0.00    -0.409 N 
ATOM     16  H52 UNL     1      -1.464  19.535  17.503  1.00  0.00     0.151 HD
ATOM     17  H51 UNL     1      -0.668  18.027  16.919  1.00  0.00     0.151 HD
ENDBRANCH   1  15
BRANCH   1  18
HETATM   18  C8  UNL     1       0.932  18.981  19.196  1.00  0.00     0.057 C 
BRANCH  18  19
HETATM   19  C9  UNL     1       1.705  19.302  17.979  1.00  0.00     0.106 C 
BRANCH  19  20
HETATM   20  C10 UNL     1       2.794  20.266  18.280  1.00  0.00     0.219 C 
HETATM   21  O2  UNL     1       3.117  20.531  19.474  1.00  0.00    -0.273 OA
HETATM   22  N6  UNL     1       3.510  20.921  17.249  1.00  0.00    -0.352 N 
HETATM   23  C11 UNL     1       4.564  21.852  17.501  1.00  0.00     0.125 C 
HETATM   24  C15 UNL     1       3.196  20.671  15.837  1.00  0.00     0.125 C 
HETATM   25  C12 UNL     1       5.877  21.403  16.931  1.00  0.00     0.020 C 
HETATM   26  C13 UNL     1       5.675  20.687  15.639  1.00  0.00     0.003 C 
HETATM   27  C14 UNL     1       4.380  21.104  14.972  1.00  0.00     0.020 C 
ENDBRANCH  19  20
ENDBRANCH  18  19
ENDBRANCH   1  18
BRANCH   1  28
HETATM   28  C16 UNL     1      -0.245  16.873  19.166  1.00  0.00     0.150 C 
BRANCH  28  29
HETATM   29  O3  UNL     1       0.519  16.580  20.198  1.00  0.00    -0.347 OA
ATOM     30  H3  UNL     1       0.065  16.413  21.016  1.00  0.00     0.219 HD
ENDBRANCH  28  29
BRANCH  28  31
HETATM   31  N7  UNL     1      -0.726  15.749  18.510  1.00  0.00    -0.360 N 
HETATM   32  C17 UNL     1      -1.726  15.757  17.500  1.00  0.00     0.152 C 
HETATM   33  C18 UNL     1      -1.691  14.514  16.625  1.00  0.00     0.252 C 
HETATM   34  N8  UNL     1      -1.434  13.294  17.283  1.00  0.00    -0.072 N 
HETATM   35  C19 UNL     1      -1.334  13.480  18.699  1.00  0.00     0.252 C 
ATOM     36  H82 UNL     1      -2.129  12.587  17.046  1.00  0.00     0.277 HD
ATOM     37  H81 UNL     1      -0.606  12.832  16.907  1.00  0.00     0.277 HD
HETATM   38  C20 UNL     1      -0.146  14.430  18.915  1.00  0.00     0.152 C 
ENDBRANCH  28  31
ENDBRANCH   1  28
TORSDOF 14
ENDMDL
MODEL 3
REMARK VINA RESULT: -6.577773844      1.799      2.626
REMARK  14 active torsions:
REMARK  status: ('A' for Active; 'I' for Inactive)
REMARK    1  A    between atoms: N1_2  and  C2_3 
REMARK    2  A    between atoms: N1_2  and  C6_11 
REMARK    3  A    between atoms: C2_3  and  C3_4 
REMARK    4  A    between atoms: C3_4  and  C4_5 
REMARK    5  A    between atoms: C4_5  and  N2_6 
REMARK    6  A    between atoms: C6_11  and  O1_12 
REMARK    7  A    between atoms: C6_11  and  C7_14 
REMARK    8  A    between atoms: C7_14  and  N5_15 
REMARK    9  A    between atoms: C7_14  and  C8_18 
REMARK   10  A    between atoms: C7_14  and  C16_28 
REMARK   11  A    between atoms: C8_18  and  C9_19 
REMARK   12  A    between atoms: C9_19  and  C10_20 
REMARK       I    between atoms: C10_20  and  N6_22 
REMARK   13  A    between atoms: C16_28  and  O3_29 
REMARK   14  A    between atoms: C16_28  and  N7_31 
ROOT
HETATM    1  C7  UNL     1      -1.859  18.099  18.864  1.00  0.00     0.155 C 
ENDROOT
BRANCH   1   2
HETATM    2  C6  UNL     1      -1.319  19.464  18.612  1.00  0.00     0.150 C 
BRANCH   2   3
HETATM    3  N1  UNL     1      -0.731  20.412  19.405  1.00  0.00    -0.367 N 
HETATM    4  C1  UNL     1      -1.682  21.378  20.056  1.00  0.00     0.151 C 
BRANCH   3   5
HETATM    5  C2  UNL     1       0.638  20.679  19.648  1.00  0.00     0.125 C 
BRANCH   5   6
HETATM    6  C3  UNL     1       0.953  21.347  20.969  1.00  0.00     0.039 C 
BRANCH   6   7
HETATM    7  C4  UNL     1       1.460  20.422  21.998  1.00  0.00     0.123 C 
BRANCH   7   8
HETATM    8  N2  UNL     1       0.516  19.543  22.612  1.00  0.00    -0.367 N 
HETATM    9  C5  UNL     1       0.256  18.340  22.373  1.00  0.00     0.196 C 
HETATM   10  N3  UNL     1      -0.773  17.730  23.190  1.00  0.00    -0.067 NA
HETATM   11  N4  UNL     1       0.832  17.488  21.408  1.00  0.00    -0.067 NA
ATOM     12  H2  UNL     1      -0.034  19.959  23.364  1.00  0.00     0.161 HD
ENDBRANCH   7   8
ENDBRANCH   6   7
ENDBRANCH   5   6
ENDBRANCH   3   5
ENDBRANCH   2   3
BRANCH   2  13
HETATM   13  O1  UNL     1      -1.463  19.795  17.336  1.00  0.00    -0.347 OA
ATOM     14  H1  UNL     1      -1.997  19.205  16.818  1.00  0.00     0.219 HD
ENDBRANCH   2  13
ENDBRANCH   1   2
BRANCH   1  15
HETATM   15  N5  UNL     1      -2.152  17.869  20.192  1.00  0.00    -0.409 N 
ATOM     16  H52 UNL     1      -1.754  18.427  20.947  1.00  0.00     0.151 HD
ATOM     17  H51 UNL     1      -2.799  17.092  20.330  1.00  0.00     0.151 HD
ENDBRANCH   1  15
BRANCH   1  18
HETATM   18  C8  UNL     1      -3.149  18.103  17.991  1.00  0.00     0.057 C 
BRANCH  18  19
HETATM   19  C9  UNL     1      -4.296  18.765  18.645  1.00  0.00     0.106 C 
BRANCH  19  20
HETATM   20  C10 UNL     1      -4.999  19.666  17.697  1.00  0.00     0.219 C 
HETATM   21  O2  UNL     1      -4.353  20.393  16.887  1.00  0.00    -0.273 OA
HETATM   22  N6  UNL     1      -6.413  19.747  17.661  1.00  0.00    -0.352 N 
HETATM   23  C11 UNL     1      -7.122  20.601  16.761  1.00  0.00     0.125 C 
HETATM   24  C15 UNL     1      -7.237  18.941  18.568  1.00  0.00     0.125 C 
HETATM   25  C12 UNL     1      -8.016  19.839  15.828  1.00  0.00     0.020 C 
HETATM   26  C13 UNL     1      -8.609  18.655  16.514  1.00  0.00     0.003 C 
HETATM   27  C14 UNL     1      -8.659  18.853  18.014  1.00  0.00     0.020 C 
ENDBRANCH  19  20
ENDBRANCH  18  19
ENDBRANCH   1  18
BRANCH   1  28
HETATM   28  C16 UNL     1      -0.934  17.158  18.181  1.00  0.00     0.150 C 
BRANCH  28  29
HETATM   29  O3  UNL     1       0.177  17.685  17.709  1.00  0.00    -0.347 OA
ATOM     30  H3  UNL     1       0.237  17.745  16.763  1.00  0.00     0.219 HD
ENDBRANCH  28  29
BRANCH  28  31
HETATM   31  N7  UNL     1      -1.033  15.795  17.944  1.00  0.00    -0.360 N 
HETATM   32  C17 UNL     1      -1.729  15.202  16.856  1.00  0.00     0.152 C 
HETATM   33  C18 UNL     1      -1.260  13.787  16.555  1.00  0.00     0.252 C 
HETATM   34  N8  UNL     1      -0.973  12.974  17.671  1.00  0.00    -0.072 N 
HETATM   35  C19 UNL     1      -1.271  13.652  18.897  1.00  0.00     0.252 C 
ATOM     36  H82 UNL     1      -1.453  12.077  17.614  1.00  0.00     0.277 HD
ATOM     37  H81 UNL     1      -0.011  12.638  17.653  1.00  0.00     0.277 HD
HETATM   38  C20 UNL     1      -0.358  14.888  18.925  1.00  0.00     0.152 C 
ENDBRANCH  28  31
ENDBRANCH   1  28
TORSDOF 14
ENDMDL
MODEL 4
REMARK VINA RESULT: -6.576354036      1.198      1.507
REMARK  14 active torsions:
REMARK  status: ('A' for Active; 'I' for Inactive)
REMARK    1  A    between atoms: N1_2  and  C2_3 
REMARK    2  A    between atoms: N1_2  and  C6_11 
REMARK    3  A    between atoms: C2_3  and  C3_4 
REMARK    4  A    between atoms: C3_4  and  C4_5 
REMARK    5  A    between atoms: C4_5  and  N2_6 
REMARK    6  A    between atoms: C6_11  and  O1_12 
REMARK    7  A    between atoms: C6_11  and  C7_14 
REMARK    8  A    between atoms: C7_14  and  N5_15 
REMARK    9  A    between atoms: C7_14  and  C8_18 
REMARK   10  A    between atoms: C7_14  and  C16_28 
REMARK   11  A    between atoms: C8_18  and  C9_19 
REMARK   12  A    between atoms: C9_19  and  C10_20 
REMARK       I    between atoms: C10_20  and  N6_22 
REMARK   13  A    between atoms: C16_28  and  O3_29 
REMARK   14  A    between atoms: C16_28  and  N7_31 
ROOT
HETATM    1  C7  UNL     1      -1.453  17.968  18.995  1.00  0.00     0.155 C 
ENDROOT
BRANCH   1   2
HETATM    2  C6  UNL     1      -0.046  18.444  18.897  1.00  0.00     0.150 C 
BRANCH   2   3
HETATM    3  N1  UNL     1       0.818  19.041  19.775  1.00  0.00    -0.367 N 
HETATM    4  C1  UNL     1       1.331  20.389  19.349  1.00  0.00     0.151 C 
BRANCH   3   5
HETATM    5  C2  UNL     1       1.368  18.558  20.987  1.00  0.00     0.125 C 
BRANCH   5   6
HETATM    6  C3  UNL     1       1.235  19.477  22.182  1.00  0.00     0.039 C 
BRANCH   6   7
HETATM    7  C4  UNL     1      -0.101  19.456  22.804  1.00  0.00     0.123 C 
BRANCH   7   8
HETATM    8  N2  UNL     1      -0.242  18.733  24.029  1.00  0.00    -0.367 N 
HETATM    9  C5  UNL     1      -0.888  17.689  24.282  1.00  0.00     0.196 C 
HETATM   10  N3  UNL     1      -0.823  17.208  25.646  1.00  0.00    -0.067 NA
HETATM   11  N4  UNL     1      -1.679  16.908  23.413  1.00  0.00    -0.067 NA
ATOM     12  H2  UNL     1       0.261  19.129  24.822  1.00  0.00     0.161 HD
ENDBRANCH   7   8
ENDBRANCH   6   7
ENDBRANCH   5   6
ENDBRANCH   3   5
ENDBRANCH   2   3
BRANCH   2  13
HETATM   13  O1  UNL     1       0.436  18.231  17.679  1.00  0.00    -0.347 OA
ATOM     14  H1  UNL     1      -0.127  17.732  17.099  1.00  0.00     0.219 HD
ENDBRANCH   2  13
ENDBRANCH   1   2
BRANCH   1  15
HETATM   15  N5  UNL     1      -1.774  17.481  20.245  1.00  0.00    -0.409 N 
ATOM     16  H52 UNL     1      -1.341  17.832  21.099  1.00  0.00     0.151 HD
ATOM     17  H51 UNL     1      -2.479  16.743  20.219  1.00  0.00     0.151 HD
ENDBRANCH   1  15
BRANCH   1  18
HETATM   18  C8  UNL     1      -2.250  19.265  18.672  1.00  0.00     0.057 C 
BRANCH  18  19
HETATM   19  C9  UNL     1      -3.443  19.449  19.524  1.00  0.00     0.106 C 
BRANCH  19  20
HETATM   20  C10 UNL     1      -4.683  19.460  18.707  1.00  0.00     0.219 C 
HETATM   21  O2  UNL     1      -4.713  18.925  17.561  1.00  0.00    -0.273 OA
HETATM   22  N6  UNL     1      -5.874  20.065  19.176  1.00  0.00    -0.352 N 
HETATM   23  C11 UNL     1      -7.086  20.093  18.419  1.00  0.00     0.125 C 
HETATM   24  C15 UNL     1      -5.924  20.710  20.493  1.00  0.00     0.125 C 
HETATM   25  C12 UNL     1      -8.212  19.382  19.108  1.00  0.00     0.020 C 
HETATM   26  C13 UNL     1      -8.135  19.576  20.584  1.00  0.00     0.003 C 
HETATM   27  C14 UNL     1      -7.381  20.840  20.937  1.00  0.00     0.020 C 
ENDBRANCH  19  20
ENDBRANCH  18  19
ENDBRANCH   1  18
BRANCH   1  28
HETATM   28  C16 UNL     1      -1.670  17.080  17.825  1.00  0.00     0.150 C 
BRANCH  28  29
HETATM   29  O3  UNL     1      -2.135  17.662  16.739  1.00  0.00    -0.347 OA
ATOM     30  H3  UNL     1      -1.937  18.587  16.647  1.00  0.00     0.219 HD
ENDBRANCH  28  29
BRANCH  28  31
HETATM   31  N7  UNL     1      -1.469  15.716  17.666  1.00  0.00    -0.360 N 
HETATM   32  C17 UNL     1      -2.030  14.922  16.629  1.00  0.00     0.152 C 
HETATM   33  C18 UNL     1      -1.265  13.629  16.396  1.00  0.00     0.252 C 
HETATM   34  N8  UNL     1      -0.793  12.966  17.548  1.00  0.00    -0.072 N 
HETATM   35  C19 UNL     1      -1.217  13.634  18.741  1.00  0.00     0.252 C 
ATOM     36  H82 UNL     1      -1.064  11.983  17.552  1.00  0.00     0.277 HD
ATOM     37  H81 UNL     1       0.220  12.849  17.524  1.00  0.00     0.277 HD
HETATM   38  C20 UNL     1      -0.599  15.039  18.678  1.00  0.00     0.152 C 
ENDBRANCH  28  31
ENDBRANCH   1  28
TORSDOF 14
ENDMDL
MODEL 5
REMARK VINA RESULT: -6.552380139      2.164      5.205
REMARK  14 active torsions:
REMARK  status: ('A' for Active; 'I' for Inactive)
REMARK    1  A    between atoms: N1_2  and  C2_3 
REMARK    2  A    between atoms: N1_2  and  C6_11 
REMARK    3  A    between atoms: C2_3  and  C3_4 
REMARK    4  A    between atoms: C3_4  and  C4_5 
REMARK    5  A    between atoms: C4_5  and  N2_6 
REMARK    6  A    between atoms: C6_11  and  O1_12 
REMARK    7  A    between atoms: C6_11  and  C7_14 
REMARK    8  A    between atoms: C7_14  and  N5_15 
REMARK    9  A    between atoms: C7_14  and  C8_18 
REMARK   10  A    between atoms: C7_14  and  C16_28 
REMARK   11  A    between atoms: C8_18  and  C9_19 
REMARK   12  A    between atoms: C9_19  and  C10_20 
REMARK       I    between atoms: C10_20  and  N6_22 
REMARK   13  A    between atoms: C16_28  and  O3_29 
REMARK   14  A    between atoms: C16_28  and  N7_31 
ROOT
HETATM    1  C7  UNL     1      -0.129  18.149  19.046  1.00  0.00     0.155 C 
ENDROOT
BRANCH   1   2
HETATM    2  C6  UNL     1      -1.240  18.654  19.900  1.00  0.00     0.150 C 
BRANCH   2   3
HETATM    3  N1  UNL     1      -1.747  19.899  20.160  1.00  0.00    -0.367 N 
HETATM    4  C1  UNL     1      -2.862  20.337  19.250  1.00  0.00     0.151 C 
BRANCH   3   5
HETATM    5  C2  UNL     1      -1.337  20.874  21.101  1.00  0.00     0.125 C 
BRANCH   5   6
HETATM    6  C3  UNL     1      -2.108  20.895  22.403  1.00  0.00     0.039 C 
BRANCH   6   7
HETATM    7  C4  UNL     1      -1.359  20.348  23.548  1.00  0.00     0.123 C 
BRANCH   7   8
HETATM    8  N2  UNL     1      -1.672  19.015  23.959  1.00  0.00    -0.367 N 
HETATM    9  C5  UNL     1      -1.060  17.940  23.754  1.00  0.00     0.196 C 
HETATM   10  N3  UNL     1      -1.653  16.745  24.317  1.00  0.00    -0.067 NA
HETATM   11  N4  UNL     1       0.141  17.730  23.043  1.00  0.00    -0.067 NA
ATOM     12  H2  UNL     1      -2.528  18.924  24.505  1.00  0.00     0.161 HD
ENDBRANCH   7   8
ENDBRANCH   6   7
ENDBRANCH   5   6
ENDBRANCH   3   5
ENDBRANCH   2   3
BRANCH   2  13
HETATM   13  O1  UNL     1      -1.837  17.652  20.530  1.00  0.00    -0.347 OA
ATOM     14  H1  UNL     1      -1.325  17.236  21.214  1.00  0.00     0.219 HD
ENDBRANCH   2  13
ENDBRANCH   1   2
BRANCH   1  15
HETATM   15  N5  UNL     1      -0.179  18.626  17.753  1.00  0.00    -0.409 N 
ATOM     16  H52 UNL     1      -0.991  18.494  17.150  1.00  0.00     0.151 HD
ATOM     17  H51 UNL     1       0.670  19.116  17.473  1.00  0.00     0.151 HD
ENDBRANCH   1  15
BRANCH   1  18
HETATM   18  C8  UNL     1       1.121  18.690  19.801  1.00  0.00     0.057 C 
BRANCH  18  19
HETATM   19  C9  UNL     1       2.016  19.498  18.947  1.00  0.00     0.106 C 
BRANCH  19  20
HETATM   20  C10 UNL     1       2.076  20.904  19.422  1.00  0.00     0.219 C 
HETATM   21  O2  UNL     1       1.260  21.771  18.994  1.00  0.00    -0.273 OA
HETATM   22  N6  UNL     1       3.041  21.327  20.368  1.00  0.00    -0.352 N 
HETATM   23  C11 UNL     1       3.127  22.670  20.848  1.00  0.00     0.125 C 
HETATM   24  C15 UNL     1       4.026  20.385  20.912  1.00  0.00     0.125 C 
HETATM   25  C12 UNL     1       2.913  22.766  22.329  1.00  0.00     0.020 C 
HETATM   26  C13 UNL     1       3.494  21.583  23.025  1.00  0.00     0.003 C 
HETATM   27  C14 UNL     1       4.603  20.951  22.210  1.00  0.00     0.020 C 
ENDBRANCH  19  20
ENDBRANCH  18  19
ENDBRANCH   1  18
BRANCH   1  28
HETATM   28  C16 UNL     1      -0.093  16.678  19.245  1.00  0.00     0.150 C 
BRANCH  28  29
HETATM   29  O3  UNL     1       0.573  16.256  20.300  1.00  0.00    -0.347 OA
ATOM     30  H3  UNL     1       1.094  16.910  20.750  1.00  0.00     0.219 HD
ENDBRANCH  28  29
BRANCH  28  31
HETATM   31  N7  UNL     1      -0.645  15.645  18.502  1.00  0.00    -0.360 N 
HETATM   32  C17 UNL     1      -1.658  15.797  17.516  1.00  0.00     0.152 C 
HETATM   33  C18 UNL     1      -1.704  14.636  16.534  1.00  0.00     0.252 C 
HETATM   34  N8  UNL     1      -1.505  13.351  17.077  1.00  0.00    -0.072 N 
HETATM   35  C19 UNL     1      -1.374  13.404  18.501  1.00  0.00     0.252 C 
ATOM     36  H82 UNL     1      -2.241  12.705  16.792  1.00  0.00     0.277 HD
ATOM     37  H81 UNL     1      -0.710  12.881  16.645  1.00  0.00     0.277 HD
HETATM   38  C20 UNL     1      -0.132  14.266  18.777  1.00  0.00     0.152 C 
ENDBRANCH  28  31
ENDBRANCH   1  28
TORSDOF 14
ENDMDL
