MODEL 1
REMARK VINA RESULT: -6.992249234      0.000      0.000
REMARK  9 active torsions:
REMARK  status: ('A' for Active; 'I' for Inactive)
REMARK    1  A    between atoms: N1_2  and  C2_3 
REMARK    2  A    between atoms: C2_3  and  C3_4 
REMARK    3  A    between atoms: C3_4  and  N2_5 
REMARK       I    between atoms: N2_5  and  C4_7 
REMARK    4  A    between atoms: C4_7  and  C5_9 
REMARK    5  A    between atoms: C14_23  and  C15_24 
REMARK    6  A    between atoms: C15_24  and  C16_25 
REMARK    7  A    between atoms: C16_25  and  C17_26 
REMARK    8  A    between atoms: C17_26  and  C18_27 
REMARK    9  A    between atoms: C18_27  and  N5_28 
ROOT
HETATM    1  C5  UNL     1       0.699  18.521  19.925  1.00  0.00     0.181 C 
HETATM    2  C6  UNL     1       1.518  18.979  21.136  1.00  0.00     0.062 C 
HETATM    3  C7  UNL     1       2.645  18.425  20.281  1.00  0.00     0.108 C 
HETATM    4  C8  UNL     1       4.004  18.915  20.527  1.00  0.00     0.152 C 
HETATM    5  N3  UNL     1       4.145  20.207  21.150  1.00  0.00    -0.337 N 
HETATM    6  C9  UNL     1       3.799  20.654  22.454  1.00  0.00     0.220 C 
HETATM    7  O2  UNL     1       3.342  19.996  23.421  1.00  0.00    -0.273 OA
HETATM    8  C10 UNL     1       4.071  22.134  22.545  1.00  0.00     0.105 C 
HETATM    9  C11 UNL     1       5.196  22.226  21.526  1.00  0.00     0.044 C 
HETATM   10  C12 UNL     1       4.750  21.292  20.391  1.00  0.00     0.179 C 
HETATM   11  C13 UNL     1       3.790  21.991  19.506  1.00  0.00     0.241 C 
HETATM   12  O3  UNL     1       3.876  23.281  19.545  1.00  0.00    -0.271 OA
HETATM   13  N4  UNL     1       2.835  21.469  18.664  1.00  0.00    -0.346 N 
ATOM     14  H4  UNL     1       1.877  21.767  18.852  1.00  0.00     0.163 HD
HETATM   15  C14 UNL     1       2.997  20.541  17.531  1.00  0.00     0.176 C 
HETATM   16  C19 UNL     1       2.317  19.259  17.862  1.00  0.00     0.243 C 
HETATM   17  O4  UNL     1       2.102  18.518  16.827  1.00  0.00    -0.271 OA
HETATM   18  N6  UNL     1       1.908  18.819  19.144  1.00  0.00    -0.330 N 
ENDROOT
BRANCH   1  19
HETATM   19  C4  UNL     1       0.259  17.127  19.924  1.00  0.00     0.240 C 
HETATM   20  N2  UNL     1      -0.033  16.419  18.757  1.00  0.00    -0.358 N 
ATOM     21  H2  UNL     1       0.058  16.883  17.854  1.00  0.00     0.162 HD
HETATM   22  O1  UNL     1       0.142  16.560  21.033  1.00  0.00    -0.271 OA
BRANCH  20  23
HETATM   23  C3  UNL     1      -0.463  15.037  18.806  1.00  0.00     0.150 C 
BRANCH  23  24
HETATM   24  C2  UNL     1      -1.462  14.685  17.762  1.00  0.00     0.256 C 
BRANCH  24  25
HETATM   25  N1  UNL     1      -1.465  13.262  17.460  1.00  0.00    -0.066 N 
HETATM   26  C1  UNL     1      -2.047  12.856  16.180  1.00  0.00     0.272 C 
HETATM   27  C20 UNL     1      -0.433  12.415  17.978  1.00  0.00     0.265 A 
HETATM   28  C21 UNL     1      -1.771  12.405  18.607  1.00  0.00     0.265 A 
ENDBRANCH  24  25
ENDBRANCH  23  24
ENDBRANCH  20  23
ENDBRANCH   1  19
BRANCH  15  29
HETATM   29  C15 UNL     1       4.387  20.459  17.049  1.00  0.00     0.035 C 
BRANCH  29  30
HETATM   30  C16 UNL     1       4.497  20.534  15.553  1.00  0.00     0.004 C 
BRANCH  30  31
HETATM   31  C17 UNL     1       4.994  19.263  14.908  1.00  0.00     0.027 C 
BRANCH  31  32
HETATM   32  C18 UNL     1       6.496  19.297  14.728  1.00  0.00     0.229 C 
BRANCH  32  33
HETATM   33  N5  UNL     1       6.953  18.184  13.936  1.00  0.00    -0.079 N 
ATOM     34  H53 UNL     1       7.059  17.341  14.501  1.00  0.00     0.274 HD
ATOM     35  H52 UNL     1       6.228  17.855  13.298  1.00  0.00     0.274 HD
ATOM     36  H51 UNL     1       7.814  18.411  13.439  1.00  0.00     0.274 HD
ENDBRANCH  32  33
ENDBRANCH  31  32
ENDBRANCH  30  31
ENDBRANCH  29  30
ENDBRANCH  15  29
TORSDOF 9
ENDMDL
MODEL 2
REMARK VINA RESULT: -6.773504449      1.045      1.156
REMARK  9 active torsions:
REMARK  status: ('A' for Active; 'I' for Inactive)
REMARK    1  A    between atoms: N1_2  and  C2_3 
REMARK    2  A    between atoms: C2_3  and  C3_4 
REMARK    3  A    between atoms: C3_4  and  N2_5 
REMARK       I    between atoms: N2_5  and  C4_7 
REMARK    4  A    between atoms: C4_7  and  C5_9 
REMARK    5  A    between atoms: C14_23  and  C15_24 
REMARK    6  A    between atoms: C15_24  and  C16_25 
REMARK    7  A    between atoms: C16_25  and  C17_26 
REMARK    8  A    between atoms: C17_26  and  C18_27 
REMARK    9  A    between atoms: C18_27  and  N5_28 
ROOT
HETATM    1  C5  UNL     1       0.663  18.516  19.972  1.00  0.00     0.181 C 
HETATM    2  C6  UNL     1       1.526  19.001  21.142  1.00  0.00     0.062 C 
HETATM    3  C7  UNL     1       2.618  18.396  20.275  1.00  0.00     0.108 C 
HETATM    4  C8  UNL     1       3.992  18.868  20.464  1.00  0.00     0.152 C 
HETATM    5  N3  UNL     1       4.174  20.179  21.035  1.00  0.00    -0.337 N 
HETATM    6  C9  UNL     1       3.875  20.679  22.332  1.00  0.00     0.220 C 
HETATM    7  O2  UNL     1       3.436  20.065  23.335  1.00  0.00    -0.273 OA
HETATM    8  C10 UNL     1       4.177  22.156  22.361  1.00  0.00     0.105 C 
HETATM    9  C11 UNL     1       5.272  22.190  21.307  1.00  0.00     0.044 C 
HETATM   10  C12 UNL     1       4.775  21.225  20.220  1.00  0.00     0.179 C 
HETATM   11  C13 UNL     1       3.802  21.910  19.339  1.00  0.00     0.241 C 
HETATM   12  O3  UNL     1       3.913  23.199  19.328  1.00  0.00    -0.271 OA
HETATM   13  N4  UNL     1       2.813  21.376  18.545  1.00  0.00    -0.346 N 
ATOM     14  H4  UNL     1       1.867  21.699  18.749  1.00  0.00     0.163 HD
HETATM   15  C14 UNL     1       2.925  20.406  17.441  1.00  0.00     0.176 C 
HETATM   16  C19 UNL     1       2.232  19.150  17.838  1.00  0.00     0.243 C 
HETATM   17  O4  UNL     1       1.973  18.376  16.837  1.00  0.00    -0.271 OA
HETATM   18  N6  UNL     1       1.854  18.763  19.146  1.00  0.00    -0.330 N 
ENDROOT
BRANCH   1  19
HETATM   19  C4  UNL     1       0.199  17.131  20.035  1.00  0.00     0.240 C 
HETATM   20  N2  UNL     1      -0.122  16.382  18.902  1.00  0.00    -0.358 N 
ATOM     21  H2  UNL     1      -0.036  16.807  17.979  1.00  0.00     0.162 HD
HETATM   22  O1  UNL     1       0.088  16.613  21.167  1.00  0.00    -0.271 OA
BRANCH  20  23
HETATM   23  C3  UNL     1      -0.575  15.011  19.014  1.00  0.00     0.150 C 
BRANCH  23  24
HETATM   24  C2  UNL     1      -1.705  14.680  18.104  1.00  0.00     0.256 C 
BRANCH  24  25
HETATM   25  N1  UNL     1      -1.598  13.335  17.560  1.00  0.00    -0.066 N 
HETATM   26  C1  UNL     1      -2.186  13.105  16.239  1.00  0.00     0.272 C 
HETATM   27  C20 UNL     1      -0.482  12.507  17.905  1.00  0.00     0.265 A 
HETATM   28  C21 UNL     1      -1.793  12.271  18.546  1.00  0.00     0.265 A 
ENDBRANCH  24  25
ENDBRANCH  23  24
ENDBRANCH  20  23
ENDBRANCH   1  19
BRANCH  15  29
HETATM   29  C15 UNL     1       4.299  20.280  16.922  1.00  0.00     0.035 C 
BRANCH  29  30
HETATM   30  C16 UNL     1       4.427  20.704  15.487  1.00  0.00     0.004 C 
BRANCH  30  31
HETATM   31  C17 UNL     1       4.252  19.579  14.495  1.00  0.00     0.027 C 
BRANCH  31  32
HETATM   32  C18 UNL     1       3.069  19.835  13.588  1.00  0.00     0.229 C 
BRANCH  32  33
HETATM   33  N5  UNL     1       1.906  19.106  14.026  1.00  0.00    -0.079 N 
ATOM     34  H53 UNL     1       1.923  18.141  13.695  1.00  0.00     0.274 HD
ATOM     35  H52 UNL     1       1.932  18.927  15.029  1.00  0.00     0.274 HD
ATOM     36  H51 UNL     1       1.046  19.580  13.752  1.00  0.00     0.274 HD
ENDBRANCH  32  33
ENDBRANCH  31  32
ENDBRANCH  30  31
ENDBRANCH  29  30
ENDBRANCH  15  29
TORSDOF 9
ENDMDL
MODEL 3
REMARK VINA RESULT: -6.765660513      4.851      7.423
REMARK  9 active torsions:
REMARK  status: ('A' for Active; 'I' for Inactive)
REMARK    1  A    between atoms: N1_2  and  C2_3 
REMARK    2  A    between atoms: C2_3  and  C3_4 
REMARK    3  A    between atoms: C3_4  and  N2_5 
REMARK       I    between atoms: N2_5  and  C4_7 
REMARK    4  A    between atoms: C4_7  and  C5_9 
REMARK    5  A    between atoms: C14_23  and  C15_24 
REMARK    6  A    between atoms: C15_24  and  C16_25 
REMARK    7  A    between atoms: C16_25  and  C17_26 
REMARK    8  A    between atoms: C17_26  and  C18_27 
REMARK    9  A    between atoms: C18_27  and  N5_28 
ROOT
HETATM    1  C5  UNL     1      -3.695  18.641  17.817  1.00  0.00     0.181 C 
HETATM    2  C6  UNL     1      -2.808  19.450  18.770  1.00  0.00     0.062 C 
HETATM    3  C7  UNL     1      -2.997  18.205  19.619  1.00  0.00     0.108 C 
HETATM    4  C8  UNL     1      -2.001  17.916  20.654  1.00  0.00     0.152 C 
HETATM    5  N3  UNL     1      -0.684  18.476  20.486  1.00  0.00    -0.337 N 
HETATM    6  C9  UNL     1      -0.238  19.826  20.500  1.00  0.00     0.220 C 
HETATM    7  O2  UNL     1      -0.889  20.873  20.739  1.00  0.00    -0.273 OA
HETATM    8  C10 UNL     1       1.233  19.852  20.170  1.00  0.00     0.105 C 
HETATM    9  C11 UNL     1       1.614  18.479  20.698  1.00  0.00     0.044 C 
HETATM   10  C12 UNL     1       0.443  17.578  20.277  1.00  0.00     0.179 C 
HETATM   11  C13 UNL     1       0.604  17.162  18.865  1.00  0.00     0.241 C 
HETATM   12  O3  UNL     1       1.824  17.206  18.436  1.00  0.00    -0.271 OA
HETATM   13  N4  UNL     1      -0.345  16.744  17.962  1.00  0.00    -0.346 N 
ATOM     14  H4  UNL     1      -0.412  17.300  17.109  1.00  0.00     0.163 HD
HETATM   15  C14 UNL     1      -1.279  15.607  18.048  1.00  0.00     0.176 C 
HETATM   16  C19 UNL     1      -2.669  16.135  18.114  1.00  0.00     0.243 C 
HETATM   17  O4  UNL     1      -3.563  15.243  17.847  1.00  0.00    -0.271 OA
HETATM   18  N6  UNL     1      -3.063  17.459  18.423  1.00  0.00    -0.330 N 
ENDROOT
BRANCH   1  19
HETATM   19  C4  UNL     1      -5.140  18.766  18.006  1.00  0.00     0.240 C 
HETATM   20  N2  UNL     1      -6.007  17.672  18.009  1.00  0.00    -0.358 N 
ATOM     21  H2  UNL     1      -5.630  16.734  17.873  1.00  0.00     0.162 HD
HETATM   22  O1  UNL     1      -5.601  19.917  18.167  1.00  0.00    -0.271 OA
BRANCH  20  23
HETATM   23  C3  UNL     1      -7.431  17.845  18.203  1.00  0.00     0.150 C 
BRANCH  23  24
HETATM   24  C2  UNL     1      -8.215  17.799  16.940  1.00  0.00     0.256 C 
BRANCH  24  25
HETATM   25  N1  UNL     1      -9.384  18.665  16.986  1.00  0.00    -0.066 N 
HETATM   26  C1  UNL     1     -10.384  18.487  15.931  1.00  0.00     0.272 C 
HETATM   27  C20 UNL     1      -9.875  19.145  18.243  1.00  0.00     0.265 A 
HETATM   28  C21 UNL     1      -9.092  20.048  17.371  1.00  0.00     0.265 A 
ENDBRANCH  24  25
ENDBRANCH  23  24
ENDBRANCH  20  23
ENDBRANCH   1  19
BRANCH  15  29
HETATM   29  C15 UNL     1      -0.888  14.618  19.069  1.00  0.00     0.035 C 
BRANCH  29  30
HETATM   30  C16 UNL     1      -0.526  13.283  18.485  1.00  0.00     0.004 C 
BRANCH  30  31
HETATM   31  C17 UNL     1      -1.713  12.464  18.037  1.00  0.00     0.027 C 
BRANCH  31  32
HETATM   32  C18 UNL     1      -1.752  12.346  16.529  1.00  0.00     0.229 C 
BRANCH  32  33
HETATM   33  N5  UNL     1      -2.885  13.044  15.979  1.00  0.00    -0.079 N 
ATOM     34  H53 UNL     1      -3.177  12.641  15.088  1.00  0.00     0.274 HD
ATOM     35  H52 UNL     1      -3.733  12.864  16.517  1.00  0.00     0.274 HD
ATOM     36  H51 UNL     1      -2.700  14.044  15.894  1.00  0.00     0.274 HD
ENDBRANCH  32  33
ENDBRANCH  31  32
ENDBRANCH  30  31
ENDBRANCH  29  30
ENDBRANCH  15  29
TORSDOF 9
ENDMDL
MODEL 4
REMARK VINA RESULT: -6.754123157      2.717      8.086
REMARK  9 active torsions:
REMARK  status: ('A' for Active; 'I' for Inactive)
REMARK    1  A    between atoms: N1_2  and  C2_3 
REMARK    2  A    between atoms: C2_3  and  C3_4 
REMARK    3  A    between atoms: C3_4  and  N2_5 
REMARK       I    between atoms: N2_5  and  C4_7 
REMARK    4  A    between atoms: C4_7  and  C5_9 
REMARK    5  A    between atoms: C14_23  and  C15_24 
REMARK    6  A    between atoms: C15_24  and  C16_25 
REMARK    7  A    between atoms: C16_25  and  C17_26 
REMARK    8  A    between atoms: C17_26  and  C18_27 
REMARK    9  A    between atoms: C18_27  and  N5_28 
ROOT
HETATM    1  C5  UNL     1      -0.209  19.385  20.757  1.00  0.00     0.181 C 
HETATM    2  C6  UNL     1      -0.978  20.014  19.590  1.00  0.00     0.062 C 
HETATM    3  C7  UNL     1      -0.123  19.030  18.809  1.00  0.00     0.108 C 
HETATM    4  C8  UNL     1      -0.589  18.606  17.487  1.00  0.00     0.152 C 
HETATM    5  N3  UNL     1      -2.001  18.701  17.216  1.00  0.00    -0.337 N 
HETATM    6  C9  UNL     1      -2.853  19.833  17.101  1.00  0.00     0.220 C 
HETATM    7  O2  UNL     1      -2.558  21.053  17.138  1.00  0.00    -0.273 OA
HETATM    8  C10 UNL     1      -4.270  19.353  16.909  1.00  0.00     0.105 C 
HETATM    9  C11 UNL     1      -3.976  18.025  16.231  1.00  0.00     0.044 C 
HETATM   10  C12 UNL     1      -2.759  17.477  16.993  1.00  0.00     0.179 C 
HETATM   11  C13 UNL     1      -3.197  16.826  18.248  1.00  0.00     0.241 C 
HETATM   12  O3  UNL     1      -4.427  16.426  18.236  1.00  0.00    -0.271 OA
HETATM   13  N4  UNL     1      -2.491  16.591  19.405  1.00  0.00    -0.346 N 
ATOM     14  H4  UNL     1      -2.885  17.006  20.250  1.00  0.00     0.163 HD
HETATM   15  C14 UNL     1      -1.247  15.824  19.600  1.00  0.00     0.176 C 
HETATM   16  C19 UNL     1      -0.173  16.760  20.034  1.00  0.00     0.243 C 
HETATM   17  O4  UNL     1       0.842  16.157  20.556  1.00  0.00    -0.271 OA
HETATM   18  N6  UNL     1      -0.180  18.171  19.928  1.00  0.00    -0.330 N 
ENDROOT
BRANCH   1  19
HETATM   19  C4  UNL     1       1.089  19.977  21.078  1.00  0.00     0.240 C 
HETATM   20  N2  UNL     1       2.235  19.218  21.321  1.00  0.00    -0.358 N 
ATOM     21  H2  UNL     1       2.180  18.201  21.279  1.00  0.00     0.162 HD
HETATM   22  O1  UNL     1       1.153  21.224  21.135  1.00  0.00    -0.271 OA
BRANCH  20  23
HETATM   23  C3  UNL     1       3.500  19.850  21.632  1.00  0.00     0.150 C 
BRANCH  23  24
HETATM   24  C2  UNL     1       4.507  19.736  20.544  1.00  0.00     0.256 C 
BRANCH  24  25
HETATM   25  N1  UNL     1       4.514  20.904  19.676  1.00  0.00    -0.066 N 
HETATM   26  C1  UNL     1       4.450  22.214  20.326  1.00  0.00     0.272 C 
HETATM   27  C20 UNL     1       5.194  20.860  18.416  1.00  0.00     0.265 A 
HETATM   28  C21 UNL     1       3.720  20.750  18.455  1.00  0.00     0.265 A 
ENDBRANCH  24  25
ENDBRANCH  23  24
ENDBRANCH  20  23
ENDBRANCH   1  19
BRANCH  15  29
HETATM   29  C15 UNL     1      -0.941  14.927  18.471  1.00  0.00     0.035 C 
BRANCH  29  30
HETATM   30  C16 UNL     1      -1.473  13.536  18.664  1.00  0.00     0.004 C 
BRANCH  30  31
HETATM   31  C17 UNL     1      -1.667  12.767  17.379  1.00  0.00     0.027 C 
BRANCH  31  32
HETATM   32  C18 UNL     1      -2.547  13.534  16.417  1.00  0.00     0.229 C 
BRANCH  32  33
HETATM   33  N5  UNL     1      -2.952  12.709  15.307  1.00  0.00    -0.079 N 
ATOM     34  H53 UNL     1      -2.411  11.845  15.267  1.00  0.00     0.274 HD
ATOM     35  H52 UNL     1      -3.877  12.308  15.457  1.00  0.00     0.274 HD
ATOM     36  H51 UNL     1      -2.903  13.222  14.427  1.00  0.00     0.274 HD
ENDBRANCH  32  33
ENDBRANCH  31  32
ENDBRANCH  30  31
ENDBRANCH  29  30
ENDBRANCH  15  29
TORSDOF 9
ENDMDL
MODEL 5
REMARK VINA RESULT: -6.677152786      1.384      1.492
REMARK  9 active torsions:
REMARK  status: ('A' for Active; 'I' for Inactive)
REMARK    1  A    between atoms: N1_2  and  C2_3 
REMARK    2  A    between atoms: C2_3  and  C3_4 
REMARK    3  A    between atoms: C3_4  and  N2_5 
REMARK       I    between atoms: N2_5  and  C4_7 
REMARK    4  A    between atoms: C4_7  and  C5_9 
REMARK    5  A    between atoms: C14_23  and  C15_24 
REMARK    6  A    between atoms: C15_24  and  C16_25 
REMARK    7  A    between atoms: C16_25  and  C17_26 
REMARK    8  A    between atoms: C17_26  and  C18_27 
REMARK    9  A    between atoms: C18_27  and  N5_28 
ROOT
HETATM    1  C5  UNL     1      -0.316  18.440  19.583  1.00  0.00     0.181 C 
HETATM    2  C6  UNL     1       0.650  18.857  20.698  1.00  0.00     0.062 C 
HETATM    3  C7  UNL     1       1.573  17.940  19.912  1.00  0.00     0.108 C 
HETATM    4  C8  UNL     1       3.019  18.126  20.056  1.00  0.00     0.152 C 
HETATM    5  N3  UNL     1       3.485  19.422  20.478  1.00  0.00    -0.337 N 
HETATM    6  C9  UNL     1       3.322  20.115  21.709  1.00  0.00     0.220 C 
HETATM    7  O2  UNL     1       2.779  19.724  22.771  1.00  0.00    -0.273 OA
HETATM    8  C10 UNL     1       3.931  21.488  21.574  1.00  0.00     0.105 C 
HETATM    9  C11 UNL     1       4.991  21.171  20.531  1.00  0.00     0.044 C 
HETATM   10  C12 UNL     1       4.282  20.220  19.555  1.00  0.00     0.179 C 
HETATM   11  C13 UNL     1       3.462  20.994  18.596  1.00  0.00     0.241 C 
HETATM   12  O3  UNL     1       3.845  22.220  18.442  1.00  0.00    -0.271 OA
HETATM   13  N4  UNL     1       2.369  20.599  17.860  1.00  0.00    -0.346 N 
ATOM     14  H4  UNL     1       1.517  21.137  18.020  1.00  0.00     0.163 HD
HETATM   15  C14 UNL     1       2.253  19.511  16.873  1.00  0.00     0.176 C 
HETATM   16  C19 UNL     1       1.315  18.484  17.403  1.00  0.00     0.243 C 
HETATM   17  O4  UNL     1       0.881  17.677  16.493  1.00  0.00    -0.271 OA
HETATM   18  N6  UNL     1       0.886  18.334  18.743  1.00  0.00    -0.330 N 
ENDROOT
BRANCH   1  19
HETATM   19  C4  UNL     1      -1.063  17.202  19.797  1.00  0.00     0.240 C 
HETATM   20  N2  UNL     1      -1.319  16.279  18.781  1.00  0.00    -0.358 N 
ATOM     21  H2  UNL     1      -0.977  16.465  17.839  1.00  0.00     0.162 HD
HETATM   22  O1  UNL     1      -1.488  16.979  20.952  1.00  0.00    -0.271 OA
BRANCH  20  23
HETATM   23  C3  UNL     1      -2.062  15.064  19.042  1.00  0.00     0.150 C 
BRANCH  23  24
HETATM   24  C2  UNL     1      -2.530  14.375  17.810  1.00  0.00     0.256 C 
BRANCH  24  25
HETATM   25  N1  UNL     1      -1.763  13.170  17.528  1.00  0.00    -0.066 N 
HETATM   26  C1  UNL     1      -1.836  12.639  16.166  1.00  0.00     0.272 C 
HETATM   27  C20 UNL     1      -0.549  12.907  18.241  1.00  0.00     0.265 A 
HETATM   28  C21 UNL     1      -1.783  12.180  18.607  1.00  0.00     0.265 A 
ENDBRANCH  24  25
ENDBRANCH  23  24
ENDBRANCH  20  23
ENDBRANCH   1  19
BRANCH  15  29
HETATM   29  C15 UNL     1       3.560  19.038  16.381  1.00  0.00     0.035 C 
BRANCH  29  30
HETATM   30  C16 UNL     1       3.833  19.437  14.960  1.00  0.00     0.004 C 
BRANCH  30  31
HETATM   31  C17 UNL     1       5.211  20.014  14.736  1.00  0.00     0.027 C 
BRANCH  31  32
HETATM   32  C18 UNL     1       5.283  21.447  15.215  1.00  0.00     0.229 C 
BRANCH  32  33
HETATM   33  N5  UNL     1       6.093  21.562  16.401  1.00  0.00    -0.079 N 
ATOM     34  H53 UNL     1       6.912  22.147  16.239  1.00  0.00     0.274 HD
ATOM     35  H52 UNL     1       5.634  22.129  17.114  1.00  0.00     0.274 HD
ATOM     36  H51 UNL     1       6.354  20.645  16.763  1.00  0.00     0.274 HD
ENDBRANCH  32  33
ENDBRANCH  31  32
ENDBRANCH  30  31
ENDBRANCH  29  30
ENDBRANCH  15  29
TORSDOF 9
ENDMDL
