MODEL 1
REMARK VINA RESULT: -6.492803413      0.000      0.000
REMARK  9 active torsions:
REMARK  status: ('A' for Active; 'I' for Inactive)
REMARK    1  A    between atoms: C2_2  and  C3_3 
REMARK    2  A    between atoms: C2_2  and  N5_24 
REMARK    3  A    between atoms: C3_3  and  C4_4 
REMARK    4  A    between atoms: C4_4  and  C5_5 
REMARK    5  A    between atoms: C5_5  and  N1_6 
REMARK       I    between atoms: N1_6  and  C6_8 
REMARK       I    between atoms: C6_8  and  N3_12 
REMARK    6  A    between atoms: N3_12  and  C7_14 
REMARK    7  A    between atoms: C7_14  and  C8_15 
REMARK    8  A    between atoms: N5_24  and  S1_26 
REMARK    9  A    between atoms: S1_26  and  N6_29 
ROOT
HETATM    1  N1  UNL     1       1.085  18.973  19.821  1.00  0.00    -0.227 N 
ATOM      2  H1  UNL     1       0.655  19.329  18.968  1.00  0.00     0.177 HD
HETATM    3  C6  UNL     1       2.381  18.425  19.804  1.00  0.00     0.667 C 
HETATM    4  N2  UNL     1       2.547  17.177  19.577  1.00  0.00    -0.235 N 
ATOM      5  H21 UNL     1       3.486  16.779  19.566  1.00  0.00     0.174 HD
ATOM      6  H22 UNL     1       1.738  16.581  19.402  1.00  0.00     0.174 HD
HETATM    7  N3  UNL     1       3.500  19.249  20.047  1.00  0.00    -0.226 N 
ATOM      8  H3  UNL     1       4.110  18.998  20.826  1.00  0.00     0.177 HD
ENDROOT
BRANCH   1   9
HETATM    9  C5  UNL     1       0.383  19.015  21.080  1.00  0.00     0.138 C 
BRANCH   9  10
HETATM   10  C4  UNL     1      -0.947  19.727  20.957  1.00  0.00     0.022 C 
BRANCH  10  11
HETATM   11  C3  UNL     1      -2.074  18.728  20.991  1.00  0.00     0.027 C 
BRANCH  11  12
HETATM   12  C2  UNL     1      -2.333  18.147  19.620  1.00  0.00     0.090 C 
HETATM   13  C1  UNL     1      -3.607  18.745  19.075  1.00  0.00     0.033 C 
BRANCH  12  14
HETATM   14  N5  UNL     1      -2.432  16.715  19.702  1.00  0.00    -0.302 N 
ATOM     15  H5  UNL     1      -3.252  16.215  20.045  1.00  0.00     0.173 HD
BRANCH  14  16
HETATM   16  S1  UNL     1      -0.991  15.950  19.149  1.00  0.00     0.299 S 
HETATM   17  O2  UNL     1      -0.362  16.900  18.148  1.00  0.00    -0.188 OA
HETATM   18  O3  UNL     1       0.005  15.791  20.258  1.00  0.00    -0.188 OA
BRANCH  16  19
HETATM   19  N6  UNL     1      -1.405  14.457  18.428  1.00  0.00    -0.189 NA
HETATM   20  C15 UNL     1      -1.718  14.540  17.042  1.00  0.00     0.135 C 
HETATM   21  C16 UNL     1      -2.413  13.255  16.638  1.00  0.00     0.183 C 
HETATM   22  O4  UNL     1      -2.049  12.167  17.410  1.00  0.00    -0.389 OA
HETATM   23  C17 UNL     1      -0.732  12.208  17.858  1.00  0.00     0.183 C 
HETATM   24  C18 UNL     1      -0.483  13.395  18.763  1.00  0.00     0.135 C 
ENDBRANCH  16  19
ENDBRANCH  14  16
ENDBRANCH  12  14
ENDBRANCH  11  12
ENDBRANCH  10  11
ENDBRANCH   9  10
ENDBRANCH   1   9
BRANCH   7  25
HETATM   25  C7  UNL     1       3.843  20.406  19.286  1.00  0.00     0.144 C 
BRANCH  25  26
HETATM   26  C8  UNL     1       4.291  20.144  17.879  1.00  0.00     0.032 C 
HETATM   27  C9  UNL     1       5.566  20.951  17.607  1.00  0.00     0.036 C 
HETATM   28  C10 UNL     1       5.216  21.781  16.394  1.00  0.00     0.240 C 
HETATM   29  N4  UNL     1       4.260  20.952  15.729  1.00  0.00    -0.044 N 
HETATM   30  C11 UNL     1       3.570  21.641  14.649  1.00  0.00     0.266 C 
HETATM   31  C13 UNL     1       4.811  19.775  15.142  1.00  0.00     0.404 C 
HETATM   32  C14 UNL     1       3.345  20.616  16.819  1.00  0.00     0.246 C 
HETATM   33  C12 UNL     1       3.215  20.483  13.738  1.00  0.00     0.198 C 
HETATM   34  O1  UNL     1       4.093  19.464  13.999  1.00  0.00    -0.362 OA
ENDBRANCH  25  26
ENDBRANCH   7  25
TORSDOF 9
ENDMDL
MODEL 2
REMARK VINA RESULT: -6.453904723      3.941      8.129
REMARK  9 active torsions:
REMARK  status: ('A' for Active; 'I' for Inactive)
REMARK    1  A    between atoms: C2_2  and  C3_3 
REMARK    2  A    between atoms: C2_2  and  N5_24 
REMARK    3  A    between atoms: C3_3  and  C4_4 
REMARK    4  A    between atoms: C4_4  and  C5_5 
REMARK    5  A    between atoms: C5_5  and  N1_6 
REMARK       I    between atoms: N1_6  and  C6_8 
REMARK       I    between atoms: C6_8  and  N3_12 
REMARK    6  A    between atoms: N3_12  and  C7_14 
REMARK    7  A    between atoms: C7_14  and  C8_15 
REMARK    8  A    between atoms: N5_24  and  S1_26 
REMARK    9  A    between atoms: S1_26  and  N6_29 
ROOT
HETATM    1  N1  UNL     1      -2.449  18.635  17.429  1.00  0.00    -0.227 N 
ATOM      2  H1  UNL     1      -2.469  18.684  18.447  1.00  0.00     0.177 HD
HETATM    3  C6  UNL     1      -3.602  18.295  16.698  1.00  0.00     0.667 C 
HETATM    4  N2  UNL     1      -3.857  17.069  16.435  1.00  0.00    -0.235 N 
ATOM      5  H21 UNL     1      -4.693  16.823  15.905  1.00  0.00     0.174 HD
ATOM      6  H22 UNL     1      -3.225  16.338  16.762  1.00  0.00     0.174 HD
HETATM    7  N3  UNL     1      -4.476  19.306  16.245  1.00  0.00    -0.226 N 
ATOM      8  H3  UNL     1      -4.650  19.364  15.242  1.00  0.00     0.177 HD
ENDROOT
BRANCH   1   9
HETATM    9  C5  UNL     1      -1.239  18.912  16.695  1.00  0.00     0.138 C 
BRANCH   9  10
HETATM   10  C4  UNL     1      -0.010  18.779  17.568  1.00  0.00     0.022 C 
BRANCH  10  11
HETATM   11  C3  UNL     1       0.267  17.326  17.852  1.00  0.00     0.027 C 
BRANCH  11  12
HETATM   12  C2  UNL     1       0.213  17.036  19.335  1.00  0.00     0.090 C 
HETATM   13  C1  UNL     1       1.475  17.562  19.976  1.00  0.00     0.033 C 
BRANCH  12  14
HETATM   14  N5  UNL     1       0.075  15.622  19.556  1.00  0.00    -0.302 N 
ATOM     15  H5  UNL     1       0.855  14.992  19.743  1.00  0.00     0.173 HD
BRANCH  14  16
HETATM   16  S1  UNL     1      -1.572  15.127  19.465  1.00  0.00     0.299 S 
HETATM   17  O2  UNL     1      -1.958  14.676  20.861  1.00  0.00    -0.188 OA
HETATM   18  O3  UNL     1      -2.473  16.279  19.135  1.00  0.00    -0.188 OA
BRANCH  16  19
HETATM   19  N6  UNL     1      -1.701  13.856  18.332  1.00  0.00    -0.189 NA
HETATM   20  C15 UNL     1      -1.823  14.283  16.980  1.00  0.00     0.135 C 
HETATM   21  C16 UNL     1      -2.298  13.103  16.154  1.00  0.00     0.183 C 
HETATM   22  O4  UNL     1      -1.919  11.880  16.675  1.00  0.00    -0.389 OA
HETATM   23  C17 UNL     1      -0.692  11.901  17.333  1.00  0.00     0.183 C 
HETATM   24  C18 UNL     1      -0.716  12.817  18.537  1.00  0.00     0.135 C 
ENDBRANCH  16  19
ENDBRANCH  14  16
ENDBRANCH  12  14
ENDBRANCH  11  12
ENDBRANCH  10  11
ENDBRANCH   9  10
ENDBRANCH   1   9
BRANCH   7  25
HETATM   25  C7  UNL     1      -5.135  20.253  17.085  1.00  0.00     0.144 C 
BRANCH  25  26
HETATM   26  C8  UNL     1      -6.551  19.920  17.448  1.00  0.00     0.032 C 
HETATM   27  C9  UNL     1      -6.544  19.010  18.683  1.00  0.00     0.036 C 
HETATM   28  C10 UNL     1      -7.312  17.789  18.236  1.00  0.00     0.240 C 
HETATM   29  N4  UNL     1      -8.203  18.335  17.259  1.00  0.00    -0.044 N 
HETATM   30  C11 UNL     1      -8.887  17.310  16.485  1.00  0.00     0.266 C 
HETATM   31  C13 UNL     1      -9.233  19.158  17.800  1.00  0.00     0.404 C 
HETATM   32  C14 UNL     1      -7.290  19.114  16.425  1.00  0.00     0.246 C 
HETATM   33  C12 UNL     1     -10.162  18.033  16.101  1.00  0.00     0.198 C 
HETATM   34  O1  UNL     1     -10.369  19.029  17.018  1.00  0.00    -0.362 OA
ENDBRANCH  25  26
ENDBRANCH   7  25
TORSDOF 9
ENDMDL
MODEL 3
REMARK VINA RESULT: -6.428325445      3.776      7.716
REMARK  9 active torsions:
REMARK  status: ('A' for Active; 'I' for Inactive)
REMARK    1  A    between atoms: C2_2  and  C3_3 
REMARK    2  A    between atoms: C2_2  and  N5_24 
REMARK    3  A    between atoms: C3_3  and  C4_4 
REMARK    4  A    between atoms: C4_4  and  C5_5 
REMARK    5  A    between atoms: C5_5  and  N1_6 
REMARK       I    between atoms: N1_6  and  C6_8 
REMARK       I    between atoms: C6_8  and  N3_12 
REMARK    6  A    between atoms: N3_12  and  C7_14 
REMARK    7  A    between atoms: C7_14  and  C8_15 
REMARK    8  A    between atoms: N5_24  and  S1_26 
REMARK    9  A    between atoms: S1_26  and  N6_29 
ROOT
HETATM    1  N1  UNL     1      -1.317  17.876  16.540  1.00  0.00    -0.227 N 
ATOM      2  H1  UNL     1      -1.215  16.899  16.265  1.00  0.00     0.177 HD
HETATM    3  C6  UNL     1      -2.245  18.716  15.898  1.00  0.00     0.667 C 
HETATM    4  N2  UNL     1      -1.900  19.376  14.858  1.00  0.00    -0.235 N 
ATOM      5  H21 UNL     1      -2.573  19.985  14.392  1.00  0.00     0.174 HD
ATOM      6  H22 UNL     1      -0.952  19.287  14.491  1.00  0.00     0.174 HD
HETATM    7  N3  UNL     1      -3.556  18.839  16.405  1.00  0.00    -0.226 N 
ATOM      8  H3  UNL     1      -3.875  19.773  16.664  1.00  0.00     0.177 HD
ENDROOT
BRANCH   1   9
HETATM    9  C5  UNL     1      -0.515  18.436  17.599  1.00  0.00     0.138 C 
BRANCH   9  10
HETATM   10  C4  UNL     1       0.907  17.917  17.562  1.00  0.00     0.022 C 
BRANCH  10  11
HETATM   11  C3  UNL     1       1.334  17.482  18.939  1.00  0.00     0.027 C 
BRANCH  11  12
HETATM   12  C2  UNL     1       0.144  17.102  19.789  1.00  0.00     0.090 C 
HETATM   13  C1  UNL     1       0.352  17.648  21.182  1.00  0.00     0.033 C 
BRANCH  12  14
HETATM   14  N5  UNL     1      -0.009  15.673  19.815  1.00  0.00    -0.302 N 
ATOM     15  H5  UNL     1       0.762  15.016  19.936  1.00  0.00     0.173 HD
BRANCH  14  16
HETATM   16  S1  UNL     1      -1.656  15.211  19.614  1.00  0.00     0.299 S 
HETATM   17  O2  UNL     1      -2.153  14.800  20.987  1.00  0.00    -0.188 OA
HETATM   18  O3  UNL     1      -2.504  16.373  19.193  1.00  0.00    -0.188 OA
BRANCH  16  19
HETATM   19  N6  UNL     1      -1.730  13.916  18.502  1.00  0.00    -0.189 NA
HETATM   20  C15 UNL     1      -1.899  14.314  17.146  1.00  0.00     0.135 C 
HETATM   21  C16 UNL     1      -2.319  13.095  16.347  1.00  0.00     0.183 C 
HETATM   22  O4  UNL     1      -1.863  11.905  16.879  1.00  0.00    -0.389 OA
HETATM   23  C17 UNL     1      -0.628  12.006  17.515  1.00  0.00     0.183 C 
HETATM   24  C18 UNL     1      -0.684  12.939  18.705  1.00  0.00     0.135 C 
ENDBRANCH  16  19
ENDBRANCH  14  16
ENDBRANCH  12  14
ENDBRANCH  11  12
ENDBRANCH  10  11
ENDBRANCH   9  10
ENDBRANCH   1   9
BRANCH   7  25
HETATM   25  C7  UNL     1      -4.468  17.757  16.582  1.00  0.00     0.144 C 
BRANCH  25  26
HETATM   26  C8  UNL     1      -5.889  18.148  16.860  1.00  0.00     0.032 C 
HETATM   27  C9  UNL     1      -6.088  19.613  16.450  1.00  0.00     0.036 C 
HETATM   28  C10 UNL     1      -6.598  20.274  17.709  1.00  0.00     0.240 C 
HETATM   29  N4  UNL     1      -7.277  19.197  18.360  1.00  0.00    -0.044 N 
HETATM   30  C11 UNL     1      -7.648  19.510  19.732  1.00  0.00     0.266 C 
HETATM   31  C13 UNL     1      -8.486  18.794  17.720  1.00  0.00     0.404 C 
HETATM   32  C14 UNL     1      -6.274  18.134  18.307  1.00  0.00     0.246 C 
HETATM   33  C12 UNL     1      -8.860  18.620  19.921  1.00  0.00     0.198 C 
HETATM   34  O1  UNL     1      -9.381  18.357  18.682  1.00  0.00    -0.362 OA
ENDBRANCH  25  26
ENDBRANCH   7  25
TORSDOF 9
ENDMDL
MODEL 4
REMARK VINA RESULT: -6.273721419      4.053      8.061
REMARK  9 active torsions:
REMARK  status: ('A' for Active; 'I' for Inactive)
REMARK    1  A    between atoms: C2_2  and  C3_3 
REMARK    2  A    between atoms: C2_2  and  N5_24 
REMARK    3  A    between atoms: C3_3  and  C4_4 
REMARK    4  A    between atoms: C4_4  and  C5_5 
REMARK    5  A    between atoms: C5_5  and  N1_6 
REMARK       I    between atoms: N1_6  and  C6_8 
REMARK       I    between atoms: C6_8  and  N3_12 
REMARK    6  A    between atoms: N3_12  and  C7_14 
REMARK    7  A    between atoms: C7_14  and  C8_15 
REMARK    8  A    between atoms: N5_24  and  S1_26 
REMARK    9  A    between atoms: S1_26  and  N6_29 
ROOT
HETATM    1  N1  UNL     1      -1.557  18.330  16.529  1.00  0.00    -0.227 N 
ATOM      2  H1  UNL     1      -1.480  17.314  16.495  1.00  0.00     0.177 HD
HETATM    3  C6  UNL     1      -2.452  19.018  15.690  1.00  0.00     0.667 C 
HETATM    4  N2  UNL     1      -2.077  19.403  14.529  1.00  0.00    -0.235 N 
ATOM      5  H21 UNL     1      -2.726  19.902  13.921  1.00  0.00     0.174 HD
ATOM      6  H22 UNL     1      -1.128  19.205  14.211  1.00  0.00     0.174 HD
HETATM    7  N3  UNL     1      -3.765  19.291  16.129  1.00  0.00    -0.226 N 
ATOM      8  H3  UNL     1      -4.060  20.268  16.154  1.00  0.00     0.177 HD
ENDROOT
BRANCH   1   9
HETATM    9  C5  UNL     1      -0.750  19.106  17.440  1.00  0.00     0.138 C 
BRANCH   9  10
HETATM   10  C4  UNL     1       0.674  18.598  17.500  1.00  0.00     0.022 C 
BRANCH  10  11
HETATM   11  C3  UNL     1       0.692  17.165  17.963  1.00  0.00     0.027 C 
BRANCH  11  12
HETATM   12  C2  UNL     1       0.373  17.060  19.437  1.00  0.00     0.090 C 
HETATM   13  C1  UNL     1       1.550  17.582  20.225  1.00  0.00     0.033 C 
BRANCH  12  14
HETATM   14  N5  UNL     1       0.087  15.694  19.783  1.00  0.00    -0.302 N 
ATOM     15  H5  UNL     1       0.784  15.030  20.121  1.00  0.00     0.173 HD
BRANCH  14  16
HETATM   16  S1  UNL     1      -1.579  15.320  19.556  1.00  0.00     0.299 S 
HETATM   17  O2  UNL     1      -2.123  14.954  20.923  1.00  0.00    -0.188 OA
HETATM   18  O3  UNL     1      -2.354  16.522  19.106  1.00  0.00    -0.188 OA
BRANCH  16  19
HETATM   19  N6  UNL     1      -1.704  14.018  18.457  1.00  0.00    -0.189 NA
HETATM   20  C15 UNL     1      -1.845  14.409  17.096  1.00  0.00     0.135 C 
HETATM   21  C16 UNL     1      -2.314  13.202  16.306  1.00  0.00     0.183 C 
HETATM   22  O4  UNL     1      -1.915  11.998  16.854  1.00  0.00    -0.389 OA
HETATM   23  C17 UNL     1      -0.682  12.050  17.498  1.00  0.00     0.183 C 
HETATM   24  C18 UNL     1      -0.704  12.997  18.678  1.00  0.00     0.135 C 
ENDBRANCH  16  19
ENDBRANCH  14  16
ENDBRANCH  12  14
ENDBRANCH  11  12
ENDBRANCH  10  11
ENDBRANCH   9  10
ENDBRANCH   1   9
BRANCH   7  25
HETATM   25  C7  UNL     1      -4.711  18.306  16.542  1.00  0.00     0.144 C 
BRANCH  25  26
HETATM   26  C8  UNL     1      -6.088  18.817  16.842  1.00  0.00     0.032 C 
HETATM   27  C9  UNL     1      -6.453  18.437  18.282  1.00  0.00     0.036 C 
HETATM   28  C10 UNL     1      -7.742  17.661  18.135  1.00  0.00     0.240 C 
HETATM   29  N4  UNL     1      -8.309  18.242  16.957  1.00  0.00    -0.044 N 
HETATM   30  C11 UNL     1      -9.447  17.490  16.450  1.00  0.00     0.266 C 
HETATM   31  C13 UNL     1      -8.778  19.577  17.129  1.00  0.00     0.404 C 
HETATM   32  C14 UNL     1      -7.181  18.196  16.028  1.00  0.00     0.246 C 
HETATM   33  C12 UNL     1     -10.230  18.579  15.746  1.00  0.00     0.198 C 
HETATM   34  O1  UNL     1      -9.876  19.777  16.308  1.00  0.00    -0.362 OA
ENDBRANCH  25  26
ENDBRANCH   7  25
TORSDOF 9
ENDMDL
MODEL 5
REMARK VINA RESULT: -6.175499069      1.929      2.843
REMARK  9 active torsions:
REMARK  status: ('A' for Active; 'I' for Inactive)
REMARK    1  A    between atoms: C2_2  and  C3_3 
REMARK    2  A    between atoms: C2_2  and  N5_24 
REMARK    3  A    between atoms: C3_3  and  C4_4 
REMARK    4  A    between atoms: C4_4  and  C5_5 
REMARK    5  A    between atoms: C5_5  and  N1_6 
REMARK       I    between atoms: N1_6  and  C6_8 
REMARK       I    between atoms: C6_8  and  N3_12 
REMARK    6  A    between atoms: N3_12  and  C7_14 
REMARK    7  A    between atoms: C7_14  and  C8_15 
REMARK    8  A    between atoms: N5_24  and  S1_26 
REMARK    9  A    between atoms: S1_26  and  N6_29 
ROOT
HETATM    1  N1  UNL     1       4.176  19.754  19.812  1.00  0.00    -0.227 N 
ATOM      2  H1  UNL     1       4.395  18.779  19.610  1.00  0.00     0.177 HD
HETATM    3  C6  UNL     1       5.159  20.755  19.697  1.00  0.00     0.667 C 
HETATM    4  N2  UNL     1       5.900  21.045  20.699  1.00  0.00    -0.235 N 
ATOM      5  H21 UNL     1       6.612  21.770  20.615  1.00  0.00     0.174 HD
ATOM      6  H22 UNL     1       5.781  20.544  21.579  1.00  0.00     0.174 HD
HETATM    7  N3  UNL     1       5.323  21.447  18.478  1.00  0.00    -0.226 N 
ATOM      8  H3  UNL     1       5.222  22.462  18.496  1.00  0.00     0.177 HD
ENDROOT
BRANCH   1   9
HETATM    9  C5  UNL     1       2.852  20.149  20.223  1.00  0.00     0.138 C 
BRANCH   9  10
HETATM   10  C4  UNL     1       2.168  19.066  21.029  1.00  0.00     0.022 C 
BRANCH  10  11
HETATM   11  C3  UNL     1       1.939  17.849  20.171  1.00  0.00     0.027 C 
BRANCH  11  12
HETATM   12  C2  UNL     1       0.482  17.450  20.161  1.00  0.00     0.090 C 
HETATM   13  C1  UNL     1      -0.015  17.401  21.586  1.00  0.00     0.033 C 
BRANCH  12  14
HETATM   14  N5  UNL     1       0.324  16.175  19.518  1.00  0.00    -0.302 N 
ATOM     15  H5  UNL     1       0.677  15.295  19.893  1.00  0.00     0.173 HD
BRANCH  14  16
HETATM   16  S1  UNL     1      -0.538  16.319  18.033  1.00  0.00     0.299 S 
HETATM   17  O2  UNL     1      -1.760  17.167  18.331  1.00  0.00    -0.188 OA
HETATM   18  O3  UNL     1       0.256  17.077  17.011  1.00  0.00    -0.188 OA
BRANCH  16  19
HETATM   19  N6  UNL     1      -0.968  14.757  17.494  1.00  0.00    -0.189 NA
HETATM   20  C15 UNL     1      -0.973  13.764  18.514  1.00  0.00     0.135 C 
HETATM   21  C16 UNL     1      -0.998  12.403  17.846  1.00  0.00     0.183 C 
HETATM   22  O4  UNL     1      -1.601  12.411  16.603  1.00  0.00    -0.389 OA
HETATM   23  C17 UNL     1      -2.638  13.333  16.484  1.00  0.00     0.183 C 
HETATM   24  C18 UNL     1      -2.150  14.754  16.661  1.00  0.00     0.135 C 
ENDBRANCH  16  19
ENDBRANCH  14  16
ENDBRANCH  12  14
ENDBRANCH  11  12
ENDBRANCH  10  11
ENDBRANCH   9  10
ENDBRANCH   1   9
BRANCH   7  25
HETATM   25  C7  UNL     1       5.621  20.835  17.224  1.00  0.00     0.144 C 
BRANCH  25  26
HETATM   26  C8  UNL     1       4.452  20.225  16.510  1.00  0.00     0.032 C 
HETATM   27  C9  UNL     1       4.973  19.368  15.350  1.00  0.00     0.036 C 
HETATM   28  C10 UNL     1       4.277  19.939  14.137  1.00  0.00     0.240 C 
HETATM   29  N4  UNL     1       3.057  20.434  14.696  1.00  0.00    -0.044 N 
HETATM   30  C11 UNL     1       2.309  21.268  13.768  1.00  0.00     0.266 C 
HETATM   31  C13 UNL     1       2.149  19.418  15.115  1.00  0.00     0.404 C 
HETATM   32  C14 UNL     1       3.543  21.208  15.837  1.00  0.00     0.246 C 
HETATM   33  C12 UNL     1       0.891  21.065  14.265  1.00  0.00     0.198 C 
HETATM   34  O1  UNL     1       0.852  19.871  14.936  1.00  0.00    -0.362 OA
ENDBRANCH  25  26
ENDBRANCH   7  25
TORSDOF 9
ENDMDL
