MODEL 1
REMARK VINA RESULT: -4.738776499      0.000      0.000
REMARK  0 active torsions:
REMARK  status: ('A' for Active; 'I' for Inactive)
ROOT
HETATM    1  C1  UNL     1      51.966  71.601 -29.332  1.00  0.00     0.012 C 
HETATM    2  C2  UNL     1      52.199  70.415 -29.405  1.00  0.00    -0.113 C 
HETATM    3  C3  UNL     1      52.455  68.995 -29.484  1.00  0.00     0.066 C 
HETATM    4  C4  UNL     1      53.802  68.637 -28.908  1.00  0.00     0.019 C 
HETATM    5  C5  UNL     1      53.741  67.336 -28.189  1.00  0.00     0.029 C 
HETATM    6  C6  UNL     1      52.974  66.264 -28.862  1.00  0.00     0.232 C 
HETATM    7  N1  UNL     1      53.027  66.260 -30.288  1.00  0.00    -0.075 N 
ATOM      8  H11 UNL     1      53.011  65.308 -30.653  1.00  0.00     0.277 HD
ATOM      9  H12 UNL     1      53.946  66.550 -30.622  1.00  0.00     0.277 HD
HETATM   10  C7  UNL     1      51.973  67.069 -30.890  1.00  0.00     0.233 C 
HETATM   11  C8  UNL     1      52.456  68.496 -30.929  1.00  0.00     0.044 C 
ENDROOT
TORSDOF 0
ENDMDL
MODEL 2
REMARK VINA RESULT: -4.401369002      2.200      3.016
REMARK  0 active torsions:
REMARK  status: ('A' for Active; 'I' for Inactive)
ROOT
HETATM    1  C1  UNL     1      52.666  71.643 -32.849  1.00  0.00     0.012 C 
HETATM    2  C2  UNL     1      52.872  70.985 -31.854  1.00  0.00    -0.113 C 
HETATM    3  C3  UNL     1      53.142  70.197 -30.672  1.00  0.00     0.066 C 
HETATM    4  C4  UNL     1      52.082  69.150 -30.445  1.00  0.00     0.019 C 
HETATM    5  C5  UNL     1      52.682  67.896 -29.915  1.00  0.00     0.029 C 
HETATM    6  C6  UNL     1      53.714  68.069 -28.869  1.00  0.00     0.232 C 
HETATM    7  N1  UNL     1      53.525  69.169 -27.981  1.00  0.00    -0.075 N 
ATOM      8  H11 UNL     1      53.848  68.942 -27.040  1.00  0.00     0.277 HD
ATOM      9  H12 UNL     1      52.535  69.315 -27.783  1.00  0.00     0.277 HD
HETATM   10  C7  UNL     1      54.148  70.395 -28.466  1.00  0.00     0.233 C 
HETATM   11  C8  UNL     1      53.178  71.059 -29.410  1.00  0.00     0.044 C 
ENDROOT
TORSDOF 0
ENDMDL
MODEL 3
REMARK VINA RESULT: -4.314536510      6.185      7.476
REMARK  0 active torsions:
REMARK  status: ('A' for Active; 'I' for Inactive)
ROOT
HETATM    1  C1  UNL     1      46.331  72.610 -25.705  1.00  0.00     0.012 C 
HETATM    2  C2  UNL     1      47.522  72.823 -25.753  1.00  0.00    -0.113 C 
HETATM    3  C3  UNL     1      48.939  73.101 -25.805  1.00  0.00     0.066 C 
HETATM    4  C4  UNL     1      49.585  72.487 -27.021  1.00  0.00     0.019 C 
HETATM    5  C5  UNL     1      50.643  73.379 -27.566  1.00  0.00     0.029 C 
HETATM    6  C6  UNL     1      51.527  74.015 -26.565  1.00  0.00     0.232 C 
HETATM    7  N1  UNL     1      51.815  73.238 -25.403  1.00  0.00    -0.075 N 
ATOM      8  H11 UNL     1      52.765  73.408 -25.074  1.00  0.00     0.277 HD
ATOM      9  H12 UNL     1      51.895  72.248 -25.634  1.00  0.00     0.277 HD
HETATM   10  C7  UNL     1      50.845  73.448 -24.334  1.00  0.00     0.233 C 
HETATM   11  C8  UNL     1      49.675  72.534 -24.591  1.00  0.00     0.044 C 
ENDROOT
TORSDOF 0
ENDMDL
MODEL 4
REMARK VINA RESULT: -4.270316115      1.456      2.545
REMARK  0 active torsions:
REMARK  status: ('A' for Active; 'I' for Inactive)
ROOT
HETATM    1  C1  UNL     1      54.915  71.427 -27.969  1.00  0.00     0.012 C 
HETATM    2  C2  UNL     1      54.332  70.507 -28.499  1.00  0.00    -0.113 C 
HETATM    3  C3  UNL     1      53.656  69.406 -29.146  1.00  0.00     0.066 C 
HETATM    4  C4  UNL     1      52.257  69.778 -29.566  1.00  0.00     0.019 C 
HETATM    5  C5  UNL     1      51.908  69.143 -30.865  1.00  0.00     0.029 C 
HETATM    6  C6  UNL     1      52.322  67.731 -31.023  1.00  0.00     0.232 C 
HETATM    7  N1  UNL     1      52.290  66.935 -29.839  1.00  0.00    -0.075 N 
ATOM      8  H11 UNL     1      52.020  65.975 -30.049  1.00  0.00     0.277 HD
ATOM      9  H12 UNL     1      51.508  67.199 -29.240  1.00  0.00     0.277 HD
HETATM   10  C7  UNL     1      53.549  66.976 -29.103  1.00  0.00     0.233 C 
HETATM   11  C8  UNL     1      53.524  68.197 -28.220  1.00  0.00     0.044 C 
ENDROOT
TORSDOF 0
ENDMDL
MODEL 5
REMARK VINA RESULT: -4.266454733      1.023      1.127
REMARK  0 active torsions:
REMARK  status: ('A' for Active; 'I' for Inactive)
ROOT
HETATM    1  C1  UNL     1      53.624  71.049 -28.449  1.00  0.00     0.012 C 
HETATM    2  C2  UNL     1      53.389  69.884 -28.682  1.00  0.00    -0.113 C 
HETATM    3  C3  UNL     1      53.087  68.497 -28.954  1.00  0.00     0.066 C 
HETATM    4  C4  UNL     1      54.105  67.572 -28.338  1.00  0.00     0.019 C 
HETATM    5  C5  UNL     1      53.456  66.333 -27.830  1.00  0.00     0.029 C 
HETATM    6  C6  UNL     1      52.428  65.737 -28.713  1.00  0.00     0.232 C 
HETATM    7  N1  UNL     1      52.659  65.867 -30.115  1.00  0.00    -0.075 N 
ATOM      8  H11 UNL     1      52.324  65.046 -30.619  1.00  0.00     0.277 HD
ATOM      9  H12 UNL     1      53.653  65.800 -30.331  1.00  0.00     0.277 HD
HETATM   10  C7  UNL     1      52.085  67.089 -30.666  1.00  0.00     0.233 C 
HETATM   11  C8  UNL     1      53.081  68.200 -30.454  1.00  0.00     0.044 C 
ENDROOT
TORSDOF 0
ENDMDL
