MODEL 1
REMARK VINA RESULT: -3.495990288      0.000      0.000
REMARK  0 active torsions:
REMARK  status: ('A' for Active; 'I' for Inactive)
ROOT
HETATM    1  C1  UNL     1      54.177  69.611 -29.413  1.00  0.00     0.274 C 
HETATM    2  N1  UNL     1      52.874  69.878 -29.894  1.00  0.00    -0.045 N 
HETATM    3  C2  UNL     1      52.094  70.772 -29.058  1.00  0.00     0.241 C 
HETATM    4  C3  UNL     1      50.878  71.019 -29.951  1.00  0.00     0.062 C 
HETATM    5  C4  UNL     1      51.364  70.638 -31.306  1.00  0.00     0.215 C 
HETATM    6  C5  UNL     1      52.891  70.715 -31.114  1.00  0.00     0.272 C 
HETATM    7  N2  UNL     1      51.259  69.197 -31.433  1.00  0.00    -0.045 N 
ATOM      8  H21 UNL     1      51.480  68.823 -32.356  1.00  0.00     0.279 HD
ATOM      9  H22 UNL     1      50.310  68.824 -31.410  1.00  0.00     0.279 HD
HETATM   10  C6  UNL     1      52.131  68.752 -30.354  1.00  0.00     0.467 C 
ENDROOT
TORSDOF 0
ENDMDL
MODEL 2
REMARK VINA RESULT: -3.402659035      0.918      2.860
REMARK  0 active torsions:
REMARK  status: ('A' for Active; 'I' for Inactive)
ROOT
HETATM    1  C1  UNL     1      51.222  70.698 -31.425  1.00  0.00     0.274 C 
HETATM    2  N1  UNL     1      51.973  69.963 -30.479  1.00  0.00    -0.045 N 
HETATM    3  C2  UNL     1      51.943  68.524 -30.671  1.00  0.00     0.241 C 
HETATM    4  C3  UNL     1      52.999  68.074 -29.662  1.00  0.00     0.062 C 
HETATM    5  C4  UNL     1      53.788  69.312 -29.413  1.00  0.00     0.215 C 
HETATM    6  C5  UNL     1      53.429  70.155 -30.653  1.00  0.00     0.272 C 
HETATM    7  N2  UNL     1      53.077  70.108 -28.430  1.00  0.00    -0.045 N 
ATOM      8  H21 UNL     1      53.566  70.944 -28.109  1.00  0.00     0.279 HD
ATOM      9  H22 UNL     1      52.998  69.688 -27.503  1.00  0.00     0.279 HD
HETATM   10  C6  UNL     1      51.814  70.347 -29.115  1.00  0.00     0.467 C 
ENDROOT
TORSDOF 0
ENDMDL
MODEL 3
REMARK VINA RESULT: -3.182470508      1.086      2.351
REMARK  0 active torsions:
REMARK  status: ('A' for Active; 'I' for Inactive)
ROOT
HETATM    1  C1  UNL     1      53.081  72.046 -29.932  1.00  0.00     0.274 C 
HETATM    2  N1  UNL     1      53.124  70.637 -30.052  1.00  0.00    -0.045 N 
HETATM    3  C2  UNL     1      54.123  69.992 -29.220  1.00  0.00     0.241 C 
HETATM    4  C3  UNL     1      53.756  68.521 -29.412  1.00  0.00     0.062 C 
HETATM    5  C4  UNL     1      52.353  68.578 -29.910  1.00  0.00     0.215 C 
HETATM    6  C5  UNL     1      51.931  69.992 -29.462  1.00  0.00     0.272 C 
HETATM    7  N2  UNL     1      52.393  68.833 -31.337  1.00  0.00    -0.045 N 
ATOM      8  H21 UNL     1      51.490  68.807 -31.811  1.00  0.00     0.279 HD
ATOM      9  H22 UNL     1      52.813  68.095 -31.901  1.00  0.00     0.279 HD
HETATM   10  C6  UNL     1      53.081  70.117 -31.379  1.00  0.00     0.467 C 
ENDROOT
TORSDOF 0
ENDMDL
MODEL 4
REMARK VINA RESULT: -3.132172937      1.395      2.425
REMARK  0 active torsions:
REMARK  status: ('A' for Active; 'I' for Inactive)
ROOT
HETATM    1  C1  UNL     1      50.949  72.095 -28.566  1.00  0.00     0.274 C 
HETATM    2  N1  UNL     1      51.391  71.486 -29.764  1.00  0.00    -0.045 N 
HETATM    3  C2  UNL     1      52.564  72.103 -30.356  1.00  0.00     0.241 C 
HETATM    4  C3  UNL     1      52.895  71.098 -31.459  1.00  0.00     0.062 C 
HETATM    5  C4  UNL     1      52.183  69.864 -31.026  1.00  0.00     0.215 C 
HETATM    6  C5  UNL     1      51.972  70.147 -29.525  1.00  0.00     0.272 C 
HETATM    7  N2  UNL     1      50.797  69.976 -31.439  1.00  0.00    -0.045 N 
ATOM      8  H21 UNL     1      50.224  69.147 -31.275  1.00  0.00     0.279 HD
ATOM      9  H22 UNL     1      50.642  69.996 -32.446  1.00  0.00     0.279 HD
HETATM   10  C6  UNL     1      50.381  71.173 -30.720  1.00  0.00     0.467 C 
ENDROOT
TORSDOF 0
ENDMDL
MODEL 5
REMARK VINA RESULT: -3.084244213      1.211      2.429
REMARK  0 active torsions:
REMARK  status: ('A' for Active; 'I' for Inactive)
ROOT
HETATM    1  C1  UNL     1      52.540  67.827 -30.972  1.00  0.00     0.274 C 
HETATM    2  N1  UNL     1      52.750  69.106 -30.407  1.00  0.00    -0.045 N 
HETATM    3  C2  UNL     1      53.074  70.144 -31.369  1.00  0.00     0.241 C 
HETATM    4  C3  UNL     1      53.009  71.390 -30.485  1.00  0.00     0.062 C 
HETATM    5  C4  UNL     1      52.206  70.940 -29.314  1.00  0.00     0.215 C 
HETATM    6  C5  UNL     1      51.497  69.699 -29.892  1.00  0.00     0.272 C 
HETATM    7  N2  UNL     1      53.094  70.245 -28.401  1.00  0.00    -0.045 N 
ATOM      8  H21 UNL     1      52.675  69.966 -27.513  1.00  0.00     0.279 HD
ATOM      9  H22 UNL     1      53.823  70.820 -27.979  1.00  0.00     0.279 HD
HETATM   10  C6  UNL     1      53.567  69.152 -29.239  1.00  0.00     0.467 C 
ENDROOT
TORSDOF 0
ENDMDL
