MODEL 1
REMARK VINA RESULT: -3.884053775      0.000      0.000
REMARK  1 active torsions:
REMARK  status: ('A' for Active; 'I' for Inactive)
REMARK    1  A    between atoms: C2_2  and  N1_3 
ROOT
HETATM    1  N1  UNL     1      52.202  69.475 -29.864  1.00  0.00     0.018 N 
HETATM    2  C3  UNL     1      53.091  69.330 -31.062  1.00  0.00     0.296 A 
HETATM    3  C4  UNL     1      52.067  68.327 -30.700  1.00  0.00     0.240 A 
HETATM    4  C5  UNL     1      52.584  67.130 -29.941  1.00  0.00     0.055 C 
HETATM    5  C6  UNL     1      53.276  67.783 -28.765  1.00  0.00     0.145 C 
HETATM    6  N2  UNL     1      52.801  69.126 -28.686  1.00  0.00    -0.046 NA
ENDROOT
BRANCH   1   7
HETATM    7  C2  UNL     1      51.226  70.504 -29.976  1.00  0.00     0.256 C 
HETATM    8  C1  UNL     1      51.068  71.417 -28.836  1.00  0.00     0.036 C 
ENDBRANCH   1   7
TORSDOF 1
ENDMDL
MODEL 2
REMARK VINA RESULT: -3.857424000      1.790      3.373
REMARK  1 active torsions:
REMARK  status: ('A' for Active; 'I' for Inactive)
REMARK    1  A    between atoms: C2_2  and  N1_3 
ROOT
HETATM    1  N1  UNL     1      53.332  67.654 -29.145  1.00  0.00     0.018 N 
HETATM    2  C3  UNL     1      54.153  68.887 -29.373  1.00  0.00     0.296 A 
HETATM    3  C4  UNL     1      52.687  68.926 -29.181  1.00  0.00     0.240 A 
HETATM    4  C5  UNL     1      51.877  69.007 -30.451  1.00  0.00     0.055 C 
HETATM    5  C6  UNL     1      52.383  67.806 -31.219  1.00  0.00     0.145 C 
HETATM    6  N2  UNL     1      53.051  66.957 -30.286  1.00  0.00    -0.046 NA
ENDROOT
BRANCH   1   7
HETATM    7  C2  UNL     1      53.531  67.040 -27.877  1.00  0.00     0.256 C 
HETATM    8  C1  UNL     1      53.080  65.652 -27.716  1.00  0.00     0.036 C 
ENDBRANCH   1   7
TORSDOF 1
ENDMDL
MODEL 3
REMARK VINA RESULT: -3.819223192      1.075      3.025
REMARK  1 active torsions:
REMARK  status: ('A' for Active; 'I' for Inactive)
REMARK    1  A    between atoms: C2_2  and  N1_3 
ROOT
HETATM    1  N1  UNL     1      52.803  68.152 -29.590  1.00  0.00     0.018 N 
HETATM    2  C3  UNL     1      51.827  67.978 -30.714  1.00  0.00     0.296 A 
HETATM    3  C4  UNL     1      53.125  68.668 -30.880  1.00  0.00     0.240 A 
HETATM    4  C5  UNL     1      53.063  70.174 -30.813  1.00  0.00     0.055 C 
HETATM    5  C6  UNL     1      52.392  70.397 -29.476  1.00  0.00     0.145 C 
HETATM    6  N2  UNL     1      52.493  69.178 -28.742  1.00  0.00    -0.046 NA
ENDROOT
BRANCH   1   7
HETATM    7  C2  UNL     1      53.439  66.951 -29.171  1.00  0.00     0.256 C 
HETATM    8  C1  UNL     1      53.639  66.755 -27.729  1.00  0.00     0.036 C 
ENDBRANCH   1   7
TORSDOF 1
ENDMDL
MODEL 4
REMARK VINA RESULT: -3.799750476      1.183      3.266
REMARK  1 active torsions:
REMARK  status: ('A' for Active; 'I' for Inactive)
REMARK    1  A    between atoms: C2_2  and  N1_3 
ROOT
HETATM    1  N1  UNL     1      52.726  68.685 -29.922  1.00  0.00     0.018 N 
HETATM    2  C3  UNL     1      53.838  69.678 -29.773  1.00  0.00     0.296 A 
HETATM    3  C4  UNL     1      52.573  69.773 -29.012  1.00  0.00     0.240 A 
HETATM    4  C5  UNL     1      51.552  70.724 -29.584  1.00  0.00     0.055 C 
HETATM    5  C6  UNL     1      51.404  70.207 -30.998  1.00  0.00     0.145 C 
HETATM    6  N2  UNL     1      51.946  68.888 -31.026  1.00  0.00    -0.046 NA
ENDROOT
BRANCH   1   7
HETATM    7  C2  UNL     1      53.010  67.398 -29.386  1.00  0.00     0.256 C 
HETATM    8  C1  UNL     1      52.222  66.264 -29.887  1.00  0.00     0.036 C 
ENDBRANCH   1   7
TORSDOF 1
ENDMDL
MODEL 5
REMARK VINA RESULT: -3.617762392      1.312      2.899
REMARK  1 active torsions:
REMARK  status: ('A' for Active; 'I' for Inactive)
REMARK    1  A    between atoms: C2_2  and  N1_3 
ROOT
HETATM    1  N1  UNL     1      52.435  68.692 -30.038  1.00  0.00     0.018 N 
HETATM    2  C3  UNL     1      51.582  69.762 -30.647  1.00  0.00     0.296 A 
HETATM    3  C4  UNL     1      53.051  69.716 -30.817  1.00  0.00     0.240 A 
HETATM    4  C5  UNL     1      53.831  70.610 -29.886  1.00  0.00     0.055 C 
HETATM    5  C6  UNL     1      53.334  70.156 -28.531  1.00  0.00     0.145 C 
HETATM    6  N2  UNL     1      52.706  68.888 -28.712  1.00  0.00    -0.046 NA
ENDROOT
BRANCH   1   7
HETATM    7  C2  UNL     1      52.276  67.406 -30.626  1.00  0.00     0.256 C 
HETATM    8  C1  UNL     1      52.704  66.242 -29.840  1.00  0.00     0.036 C 
ENDBRANCH   1   7
TORSDOF 1
ENDMDL
