MODEL 1
REMARK VINA RESULT: -6.485277927      0.000      0.000
REMARK  11 active torsions:
REMARK  status: ('A' for Active; 'I' for Inactive)
REMARK    1  A    between atoms: C5_6  and  S1_7 
REMARK    2  A    between atoms: S1_7  and  C6_8 
REMARK    3  A    between atoms: C6_8  and  C7_10 
REMARK    4  A    between atoms: C7_10  and  N2_11 
REMARK    5  A    between atoms: N2_11  and  C8_12 
REMARK    6  A    between atoms: C8_12  and  C9_13 
REMARK    7  A    between atoms: C9_13  and  O2_14 
REMARK    8  A    between atoms: C13_22  and  C14_23 
REMARK    9  A    between atoms: C14_23  and  C15_24 
REMARK   10  A    between atoms: C15_24  and  C16_25 
REMARK   11  A    between atoms: C16_25  and  N4_26 
ROOT
HETATM    1  N2  UNL     1      -1.610  16.918  19.690  1.00  0.00     0.001 N 
HETATM    2  C10 UNL     1      -0.866  17.782  18.719  1.00  0.00     0.260 C 
HETATM    3  C11 UNL     1       0.439  18.261  19.283  1.00  0.00     0.132 C 
HETATM    4  C12 UNL     1       1.231  17.067  19.762  1.00  0.00     0.224 C 
HETATM    5  O3  UNL     1       2.424  17.149  20.114  1.00  0.00    -0.273 OA
HETATM    6  N3  UNL     1       0.472  15.860  19.765  1.00  0.00    -0.310 N 
ATOM      7  H3  UNL     1       1.001  14.989  19.795  1.00  0.00     0.170 HD
HETATM    8  C13 UNL     1      -0.804  15.756  19.734  1.00  0.00     0.192 C 
ENDROOT
BRANCH   1   9
HETATM    9  C7  UNL     1      -2.870  16.741  19.031  1.00  0.00     0.272 C 
BRANCH   9  10
HETATM   10  C6  UNL     1      -2.927  16.750  17.585  1.00  0.00     0.233 C 
HETATM   11  O1  UNL     1      -2.354  16.041  16.780  1.00  0.00    -0.279 OA
BRANCH  10  12
HETATM   12  S1  UNL     1      -4.003  17.994  16.805  1.00  0.00    -0.082 SA
BRANCH  12  13
HETATM   13  C5  UNL     1      -5.631  18.013  17.554  1.00  0.00     0.059 C 
HETATM   14  C4  UNL     1      -5.799  19.073  18.619  1.00  0.00     0.043 C 
HETATM   15  C3  UNL     1      -7.268  19.117  18.981  1.00  0.00     0.237 C 
HETATM   16  N1  UNL     1      -8.047  19.588  17.859  1.00  0.00    -0.075 N 
HETATM   17  C1  UNL     1      -9.379  18.976  17.847  1.00  0.00     0.272 C 
HETATM   18  C2  UNL     1      -8.247  21.011  18.030  1.00  0.00     0.272 C 
HETATM   19  C19 UNL     1      -7.402  19.371  16.589  1.00  0.00     0.237 C 
HETATM   20  C18 UNL     1      -6.741  18.012  16.550  1.00  0.00     0.043 C 
ENDBRANCH  12  13
ENDBRANCH  10  12
ENDBRANCH   9  10
ENDBRANCH   1   9
BRANCH   1  21
HETATM   21  C8  UNL     1      -1.721  17.591  20.948  1.00  0.00     0.277 C 
BRANCH  21  22
HETATM   22  C9  UNL     1      -1.716  16.698  22.140  1.00  0.00     0.193 C 
BRANCH  22  23
HETATM   23  O2  UNL     1      -0.443  16.678  22.766  1.00  0.00    -0.399 OA
ATOM     24  H2  UNL     1      -0.102  15.794  22.831  1.00  0.00     0.209 HD
ENDBRANCH  22  23
ENDBRANCH  21  22
ENDBRANCH   1  21
BRANCH   8  25
HETATM   25  C14 UNL     1      -1.380  14.391  19.749  1.00  0.00     0.086 C 
BRANCH  25  26
HETATM   26  C15 UNL     1      -0.693  13.526  18.676  1.00  0.00     0.027 C 
BRANCH  26  27
HETATM   27  C16 UNL     1      -1.793  12.595  18.151  1.00  0.00     0.122 C 
BRANCH  27  28
HETATM   28  N4  UNL     1      -2.210  12.977  16.817  1.00  0.00    -0.367 N 
HETATM   29  C17 UNL     1      -1.838  12.270  15.826  1.00  0.00     0.196 C 
HETATM   30  N5  UNL     1      -1.031  11.124  15.982  1.00  0.00    -0.067 NA
HETATM   31  N6  UNL     1      -2.246  12.644  14.526  1.00  0.00    -0.067 NA
ATOM     32  H4  UNL     1      -2.793  13.802  16.674  1.00  0.00     0.161 HD
ENDBRANCH  27  28
ENDBRANCH  26  27
ENDBRANCH  25  26
ENDBRANCH   8  25
TORSDOF 11
ENDMDL
MODEL 2
REMARK VINA RESULT: -6.444159002      1.122      1.556
REMARK  11 active torsions:
REMARK  status: ('A' for Active; 'I' for Inactive)
REMARK    1  A    between atoms: C5_6  and  S1_7 
REMARK    2  A    between atoms: S1_7  and  C6_8 
REMARK    3  A    between atoms: C6_8  and  C7_10 
REMARK    4  A    between atoms: C7_10  and  N2_11 
REMARK    5  A    between atoms: N2_11  and  C8_12 
REMARK    6  A    between atoms: C8_12  and  C9_13 
REMARK    7  A    between atoms: C9_13  and  O2_14 
REMARK    8  A    between atoms: C13_22  and  C14_23 
REMARK    9  A    between atoms: C14_23  and  C15_24 
REMARK   10  A    between atoms: C15_24  and  C16_25 
REMARK   11  A    between atoms: C16_25  and  N4_26 
ROOT
HETATM    1  N2  UNL     1      -1.630  17.103  19.809  1.00  0.00     0.001 N 
HETATM    2  C10 UNL     1      -0.876  17.983  18.862  1.00  0.00     0.260 C 
HETATM    3  C11 UNL     1       0.463  18.379  19.411  1.00  0.00     0.132 C 
HETATM    4  C12 UNL     1       1.215  17.130  19.808  1.00  0.00     0.224 C 
HETATM    5  O3  UNL     1       2.420  17.144  20.129  1.00  0.00    -0.273 OA
HETATM    6  N3  UNL     1       0.406  15.957  19.772  1.00  0.00    -0.310 N 
ATOM      7  H3  UNL     1       0.898  15.065  19.743  1.00  0.00     0.170 HD
HETATM    8  C13 UNL     1      -0.874  15.908  19.772  1.00  0.00     0.192 C 
ENDROOT
BRANCH   1   9
HETATM    9  C7  UNL     1      -2.914  17.012  19.178  1.00  0.00     0.272 C 
BRANCH   9  10
HETATM   10  C6  UNL     1      -3.586  18.220  18.752  1.00  0.00     0.233 C 
HETATM   11  O1  UNL     1      -3.678  19.297  19.310  1.00  0.00    -0.279 OA
BRANCH  10  12
HETATM   12  S1  UNL     1      -4.442  18.170  17.146  1.00  0.00    -0.082 SA
BRANCH  12  13
HETATM   13  C5  UNL     1      -6.049  18.955  17.235  1.00  0.00     0.059 C 
HETATM   14  C4  UNL     1      -6.861  18.827  15.967  1.00  0.00     0.043 C 
HETATM   15  C3  UNL     1      -8.257  19.325  16.274  1.00  0.00     0.237 C 
HETATM   16  N1  UNL     1      -8.904  18.447  17.222  1.00  0.00    -0.075 N 
HETATM   17  C1  UNL     1      -9.829  19.191  18.084  1.00  0.00     0.272 C 
HETATM   18  C2  UNL     1      -9.706  17.505  16.471  1.00  0.00     0.272 C 
HETATM   19  C19 UNL     1      -7.975  17.705  18.035  1.00  0.00     0.237 C 
HETATM   20  C18 UNL     1      -6.820  18.580  18.463  1.00  0.00     0.043 C 
ENDBRANCH  12  13
ENDBRANCH  10  12
ENDBRANCH   9  10
ENDBRANCH   1   9
BRANCH   1  21
HETATM   21  C8  UNL     1      -1.679  17.715  21.102  1.00  0.00     0.277 C 
BRANCH  21  22
HETATM   22  C9  UNL     1      -1.699  16.762  22.246  1.00  0.00     0.193 C 
BRANCH  22  23
HETATM   23  O2  UNL     1      -0.417  16.646  22.845  1.00  0.00    -0.399 OA
ATOM     24  H2  UNL     1      -0.455  16.144  23.650  1.00  0.00     0.209 HD
ENDBRANCH  22  23
ENDBRANCH  21  22
ENDBRANCH   1  21
BRANCH   8  25
HETATM   25  C14 UNL     1      -1.507  14.569  19.735  1.00  0.00     0.086 C 
BRANCH  25  26
HETATM   26  C15 UNL     1      -0.698  13.637  18.815  1.00  0.00     0.027 C 
BRANCH  26  27
HETATM   27  C16 UNL     1      -1.707  12.594  18.319  1.00  0.00     0.122 C 
BRANCH  27  28
HETATM   28  N4  UNL     1      -2.185  12.917  16.990  1.00  0.00    -0.367 N 
HETATM   29  C17 UNL     1      -1.781  12.226  16.001  1.00  0.00     0.196 C 
HETATM   30  N5  UNL     1      -0.880  11.151  16.154  1.00  0.00    -0.067 NA
HETATM   31  N6  UNL     1      -2.249  12.543  14.706  1.00  0.00    -0.067 NA
ATOM     32  H4  UNL     1      -2.836  13.690  16.849  1.00  0.00     0.161 HD
ENDBRANCH  27  28
ENDBRANCH  26  27
ENDBRANCH  25  26
ENDBRANCH   8  25
TORSDOF 11
ENDMDL
MODEL 3
REMARK VINA RESULT: -6.425065161      1.471      1.785
REMARK  11 active torsions:
REMARK  status: ('A' for Active; 'I' for Inactive)
REMARK    1  A    between atoms: C5_6  and  S1_7 
REMARK    2  A    between atoms: S1_7  and  C6_8 
REMARK    3  A    between atoms: C6_8  and  C7_10 
REMARK    4  A    between atoms: C7_10  and  N2_11 
REMARK    5  A    between atoms: N2_11  and  C8_12 
REMARK    6  A    between atoms: C8_12  and  C9_13 
REMARK    7  A    between atoms: C9_13  and  O2_14 
REMARK    8  A    between atoms: C13_22  and  C14_23 
REMARK    9  A    between atoms: C14_23  and  C15_24 
REMARK   10  A    between atoms: C15_24  and  C16_25 
REMARK   11  A    between atoms: C16_25  and  N4_26 
ROOT
HETATM    1  N2  UNL     1      -0.891  17.488  20.515  1.00  0.00     0.001 N 
HETATM    2  C10 UNL     1      -0.228  18.702  19.941  1.00  0.00     0.260 C 
HETATM    3  C11 UNL     1       1.198  18.824  20.387  1.00  0.00     0.132 C 
HETATM    4  C12 UNL     1       1.919  17.533  20.073  1.00  0.00     0.224 C 
HETATM    5  O3  UNL     1       3.156  17.413  20.173  1.00  0.00    -0.273 OA
HETATM    6  N3  UNL     1       1.040  16.491  19.658  1.00  0.00    -0.310 N 
ATOM      7  H3  UNL     1       1.465  15.706  19.165  1.00  0.00     0.170 HD
HETATM    8  C13 UNL     1      -0.227  16.438  19.840  1.00  0.00     0.192 C 
ENDROOT
BRANCH   1   9
HETATM    9  C7  UNL     1      -2.256  17.677  20.121  1.00  0.00     0.272 C 
BRANCH   9  10
HETATM   10  C6  UNL     1      -2.560  18.504  18.974  1.00  0.00     0.233 C 
HETATM   11  O1  UNL     1      -2.140  18.439  17.834  1.00  0.00    -0.279 OA
BRANCH  10  12
HETATM   12  S1  UNL     1      -3.743  19.865  19.224  1.00  0.00    -0.082 SA
BRANCH  12  13
HETATM   13  C5  UNL     1      -5.414  19.362  18.819  1.00  0.00     0.059 C 
HETATM   14  C4  UNL     1      -6.223  20.436  18.128  1.00  0.00     0.043 C 
HETATM   15  C3  UNL     1      -7.507  19.794  17.649  1.00  0.00     0.237 C 
HETATM   16  N1  UNL     1      -7.225  18.818  16.621  1.00  0.00    -0.075 N 
HETATM   17  C1  UNL     1      -8.188  17.713  16.664  1.00  0.00     0.272 C 
HETATM   18  C2  UNL     1      -7.399  19.469  15.339  1.00  0.00     0.272 C 
HETATM   19  C19 UNL     1      -5.885  18.296  16.685  1.00  0.00     0.237 C 
HETATM   20  C18 UNL     1      -5.478  18.041  18.119  1.00  0.00     0.043 C 
ENDBRANCH  12  13
ENDBRANCH  10  12
ENDBRANCH   9  10
ENDBRANCH   1   9
BRANCH   1  21
HETATM   21  C8  UNL     1      -0.712  17.467  21.934  1.00  0.00     0.277 C 
BRANCH  21  22
HETATM   22  C9  UNL     1      -1.914  17.057  22.712  1.00  0.00     0.193 C 
BRANCH  22  23
HETATM   23  O2  UNL     1      -1.922  15.659  22.954  1.00  0.00    -0.399 OA
ATOM     24  H2  UNL     1      -1.448  15.188  22.278  1.00  0.00     0.209 HD
ENDBRANCH  22  23
ENDBRANCH  21  22
ENDBRANCH   1  21
BRANCH   8  25
HETATM   25  C14 UNL     1      -0.942  15.248  19.324  1.00  0.00     0.086 C 
BRANCH  25  26
HETATM   26  C15 UNL     1      -0.956  15.278  17.784  1.00  0.00     0.027 C 
BRANCH  26  27
HETATM   27  C16 UNL     1      -2.265  14.584  17.385  1.00  0.00     0.122 C 
BRANCH  27  28
HETATM   28  N4  UNL     1      -2.036  13.585  16.361  1.00  0.00    -0.367 N 
HETATM   29  C17 UNL     1      -1.871  12.371  16.706  1.00  0.00     0.196 C 
HETATM   30  N5  UNL     1      -1.901  11.964  18.057  1.00  0.00    -0.067 NA
HETATM   31  N6  UNL     1      -1.650  11.398  15.706  1.00  0.00    -0.067 NA
ATOM     32  H4  UNL     1      -2.009  13.851  15.376  1.00  0.00     0.161 HD
ENDBRANCH  27  28
ENDBRANCH  26  27
ENDBRANCH  25  26
ENDBRANCH   8  25
TORSDOF 11
ENDMDL
MODEL 4
REMARK VINA RESULT: -6.386065063      1.068      1.599
REMARK  11 active torsions:
REMARK  status: ('A' for Active; 'I' for Inactive)
REMARK    1  A    between atoms: C5_6  and  S1_7 
REMARK    2  A    between atoms: S1_7  and  C6_8 
REMARK    3  A    between atoms: C6_8  and  C7_10 
REMARK    4  A    between atoms: C7_10  and  N2_11 
REMARK    5  A    between atoms: N2_11  and  C8_12 
REMARK    6  A    between atoms: C8_12  and  C9_13 
REMARK    7  A    between atoms: C9_13  and  O2_14 
REMARK    8  A    between atoms: C13_22  and  C14_23 
REMARK    9  A    between atoms: C14_23  and  C15_24 
REMARK   10  A    between atoms: C15_24  and  C16_25 
REMARK   11  A    between atoms: C16_25  and  N4_26 
ROOT
HETATM    1  N2  UNL     1      -1.057  16.896  18.205  1.00  0.00     0.001 N 
HETATM    2  C10 UNL     1       0.180  17.243  17.436  1.00  0.00     0.260 C 
HETATM    3  C11 UNL     1       1.209  17.908  18.302  1.00  0.00     0.132 C 
HETATM    4  C12 UNL     1       1.469  17.035  19.507  1.00  0.00     0.224 C 
HETATM    5  O3  UNL     1       2.402  17.251  20.305  1.00  0.00    -0.273 OA
HETATM    6  N3  UNL     1       0.544  15.958  19.625  1.00  0.00    -0.310 N 
ATOM      7  H3  UNL     1       0.821  15.182  20.225  1.00  0.00     0.170 HD
HETATM    8  C13 UNL     1      -0.600  15.862  19.055  1.00  0.00     0.192 C 
ENDROOT
BRANCH   1   9
HETATM    9  C7  UNL     1      -1.944  16.461  17.166  1.00  0.00     0.272 C 
BRANCH   9  10
HETATM   10  C6  UNL     1      -3.053  17.304  16.776  1.00  0.00     0.233 C 
HETATM   11  O1  UNL     1      -3.126  18.130  15.887  1.00  0.00    -0.279 OA
BRANCH  10  12
HETATM   12  S1  UNL     1      -4.595  17.140  17.730  1.00  0.00    -0.082 SA
BRANCH  12  13
HETATM   13  C5  UNL     1      -5.728  18.482  17.379  1.00  0.00     0.059 C 
HETATM   14  C4  UNL     1      -6.661  18.205  16.223  1.00  0.00     0.043 C 
HETATM   15  C3  UNL     1      -7.692  19.313  16.202  1.00  0.00     0.237 C 
HETATM   16  N1  UNL     1      -8.526  19.242  17.381  1.00  0.00    -0.075 N 
HETATM   17  C1  UNL     1      -8.968  20.577  17.795  1.00  0.00     0.272 C 
HETATM   18  C2  UNL     1      -9.720  18.502  17.030  1.00  0.00     0.272 C 
HETATM   19  C19 UNL     1      -7.890  18.576  18.488  1.00  0.00     0.237 C 
HETATM   20  C18 UNL     1      -6.439  18.986  18.597  1.00  0.00     0.043 C 
ENDBRANCH  12  13
ENDBRANCH  10  12
ENDBRANCH   9  10
ENDBRANCH   1   9
BRANCH   1  21
HETATM   21  C8  UNL     1      -1.531  18.051  18.904  1.00  0.00     0.277 C 
BRANCH  21  22
HETATM   22  C9  UNL     1      -2.085  17.781  20.259  1.00  0.00     0.193 C 
BRANCH  22  23
HETATM   23  O2  UNL     1      -1.219  18.260  21.277  1.00  0.00    -0.399 OA
ATOM     24  H2  UNL     1      -1.490  17.954  22.135  1.00  0.00     0.209 HD
ENDBRANCH  22  23
ENDBRANCH  21  22
ENDBRANCH   1  21
BRANCH   8  25
HETATM   25  C14 UNL     1      -1.400  14.646  19.327  1.00  0.00     0.086 C 
BRANCH  25  26
HETATM   26  C15 UNL     1      -0.626  13.399  18.861  1.00  0.00     0.027 C 
BRANCH  26  27
HETATM   27  C16 UNL     1      -1.702  12.420  18.376  1.00  0.00     0.122 C 
BRANCH  27  28
HETATM   28  N4  UNL     1      -2.238  12.824  17.092  1.00  0.00    -0.367 N 
HETATM   29  C17 UNL     1      -1.864  12.209  16.043  1.00  0.00     0.196 C 
HETATM   30  N5  UNL     1      -0.940  11.143  16.087  1.00  0.00    -0.067 NA
HETATM   31  N6  UNL     1      -2.388  12.604  14.792  1.00  0.00    -0.067 NA
ATOM     32  H4  UNL     1      -2.907  13.593  17.030  1.00  0.00     0.161 HD
ENDBRANCH  27  28
ENDBRANCH  26  27
ENDBRANCH  25  26
ENDBRANCH   8  25
TORSDOF 11
ENDMDL
MODEL 5
REMARK VINA RESULT: -6.350684749      3.412      6.621
REMARK  11 active torsions:
REMARK  status: ('A' for Active; 'I' for Inactive)
REMARK    1  A    between atoms: C5_6  and  S1_7 
REMARK    2  A    between atoms: S1_7  and  C6_8 
REMARK    3  A    between atoms: C6_8  and  C7_10 
REMARK    4  A    between atoms: C7_10  and  N2_11 
REMARK    5  A    between atoms: N2_11  and  C8_12 
REMARK    6  A    between atoms: C8_12  and  C9_13 
REMARK    7  A    between atoms: C9_13  and  O2_14 
REMARK    8  A    between atoms: C13_22  and  C14_23 
REMARK    9  A    between atoms: C14_23  and  C15_24 
REMARK   10  A    between atoms: C15_24  and  C16_25 
REMARK   11  A    between atoms: C16_25  and  N4_26 
ROOT
HETATM    1  N2  UNL     1      -1.538  17.098  18.600  1.00  0.00     0.001 N 
HETATM    2  C10 UNL     1      -0.846  17.908  19.653  1.00  0.00     0.260 C 
HETATM    3  C11 UNL     1      -1.541  17.813  20.978  1.00  0.00     0.132 C 
HETATM    4  C12 UNL     1      -1.701  16.355  21.341  1.00  0.00     0.224 C 
HETATM    5  O3  UNL     1      -2.085  15.981  22.467  1.00  0.00    -0.273 OA
HETATM    6  N3  UNL     1      -1.369  15.475  20.271  1.00  0.00    -0.310 N 
ATOM      7  H3  UNL     1      -1.176  14.505  20.522  1.00  0.00     0.170 HD
HETATM    8  C13 UNL     1      -1.287  15.774  19.028  1.00  0.00     0.192 C 
ENDROOT
BRANCH   1   9
HETATM    9  C7  UNL     1      -0.831  17.482  17.413  1.00  0.00     0.272 C 
BRANCH   9  10
HETATM   10  C6  UNL     1      -0.999  18.817  16.883  1.00  0.00     0.233 C 
HETATM   11  O1  UNL     1      -1.985  19.346  16.406  1.00  0.00    -0.279 OA
BRANCH  10  12
HETATM   12  S1  UNL     1       0.458  19.908  16.908  1.00  0.00    -0.082 SA
BRANCH  12  13
HETATM   13  C5  UNL     1       1.774  19.268  15.874  1.00  0.00     0.059 C 
HETATM   14  C4  UNL     1       1.931  20.005  14.563  1.00  0.00     0.043 C 
HETATM   15  C3  UNL     1       3.208  19.509  13.920  1.00  0.00     0.237 C 
HETATM   16  N1  UNL     1       4.352  19.903  14.710  1.00  0.00    -0.075 N 
HETATM   17  C1  UNL     1       5.427  18.909  14.613  1.00  0.00     0.272 C 
HETATM   18  C2  UNL     1       4.874  21.131  14.146  1.00  0.00     0.272 C 
HETATM   19  C19 UNL     1       4.033  20.139  16.094  1.00  0.00     0.237 C 
HETATM   20  C18 UNL     1       3.067  19.095  16.607  1.00  0.00     0.043 C 
ENDBRANCH  12  13
ENDBRANCH  10  12
ENDBRANCH   9  10
ENDBRANCH   1   9
BRANCH   1  21
HETATM   21  C8  UNL     1      -2.927  17.440  18.564  1.00  0.00     0.277 C 
BRANCH  21  22
HETATM   22  C9  UNL     1      -3.778  16.523  17.755  1.00  0.00     0.193 C 
BRANCH  22  23
HETATM   23  O2  UNL     1      -4.028  17.055  16.463  1.00  0.00    -0.399 OA
ATOM     24  H2  UNL     1      -3.669  16.496  15.783  1.00  0.00     0.209 HD
ENDBRANCH  22  23
ENDBRANCH  21  22
ENDBRANCH   1  21
BRANCH   8  25
HETATM   25  C14 UNL     1      -0.928  14.689  18.086  1.00  0.00     0.086 C 
BRANCH  25  26
HETATM   26  C15 UNL     1      -0.674  13.386  18.866  1.00  0.00     0.027 C 
BRANCH  26  27
HETATM   27  C16 UNL     1      -1.720  12.396  18.339  1.00  0.00     0.122 C 
BRANCH  27  28
HETATM   28  N4  UNL     1      -2.228  12.810  17.046  1.00  0.00    -0.367 N 
HETATM   29  C17 UNL     1      -1.840  12.194  16.003  1.00  0.00     0.196 C 
HETATM   30  N5  UNL     1      -0.927  11.119  16.060  1.00  0.00    -0.067 NA
HETATM   31  N6  UNL     1      -2.337  12.598  14.744  1.00  0.00    -0.067 NA
ATOM     32  H4  UNL     1      -2.888  13.584  16.975  1.00  0.00     0.161 HD
ENDBRANCH  27  28
ENDBRANCH  26  27
ENDBRANCH  25  26
ENDBRANCH   8  25
TORSDOF 11
ENDMDL
