MODEL 1
REMARK VINA RESULT: -6.328725385      0.000      0.000
REMARK  12 active torsions:
REMARK  status: ('A' for Active; 'I' for Inactive)
REMARK    1  A    between atoms: C1_2  and  C2_4 
REMARK    2  A    between atoms: C2_4  and  C3_5 
REMARK    3  A    between atoms: C5_7  and  C6_8 
REMARK    4  A    between atoms: N1_11  and  C7_12 
REMARK    5  A    between atoms: C7_12  and  O5_13 
REMARK    6  A    between atoms: C7_12  and  C8_15 
REMARK    7  A    between atoms: C7_12  and  C18_29 
REMARK    8  A    between atoms: C8_15  and  N2_16 
REMARK    9  A    between atoms: N3_19  and  C11_20 
REMARK   10  A    between atoms: C11_20  and  C12_21 
REMARK   11  A    between atoms: C12_21  and  C13_22 
REMARK   12  A    between atoms: C13_22  and  O6_23 
ROOT
HETATM    1  C7  UNL     1      -1.333  18.161  17.829  1.00  0.00     0.158 C 
ENDROOT
BRANCH   1   2
HETATM    2  N1  UNL     1      -1.265  16.848  18.261  1.00  0.00    -0.366 N 
HETATM    3  C5  UNL     1      -0.475  16.262  19.188  1.00  0.00     0.183 C 
HETATM    4  C4  UNL     1      -0.378  14.793  18.810  1.00  0.00     0.042 C 
HETATM    5  C3  UNL     1      -1.269  14.640  17.622  1.00  0.00     0.015 C 
HETATM    6  C21 UNL     1      -2.136  15.874  17.650  1.00  0.00     0.126 C 
BRANCH   3   7
HETATM    7  C6  UNL     1      -0.709  16.352  20.629  1.00  0.00     0.196 C 
HETATM    8  O3  UNL     1      -1.778  16.033  21.166  1.00  0.00    -0.646 OA
HETATM    9  O4  UNL     1       0.300  16.814  21.460  1.00  0.00    -0.646 OA
ENDBRANCH   3   7
BRANCH   5  10
HETATM   10  C2  UNL     1      -2.046  13.353  17.577  1.00  0.00     0.119 C 
BRANCH  10  11
HETATM   11  C1  UNL     1      -1.582  12.347  16.644  1.00  0.00     0.172 C 
HETATM   12  O1  UNL     1      -1.974  12.167  15.484  1.00  0.00    -0.648 OA
HETATM   13  O2  UNL     1      -0.573  11.466  17.085  1.00  0.00    -0.648 OA
ENDBRANCH  10  11
ENDBRANCH   5  10
ENDBRANCH   1   2
BRANCH   1  14
HETATM   14  O5  UNL     1      -1.438  18.081  16.403  1.00  0.00    -0.369 OA
ATOM     15  H5  UNL     1      -0.556  17.905  16.099  1.00  0.00     0.212 HD
ENDBRANCH   1  14
BRANCH   1  16
HETATM   16  C8  UNL     1      -0.255  19.108  18.151  1.00  0.00     0.298 C 
BRANCH  16  17
HETATM   17  N2  UNL     1       0.852  19.303  17.294  1.00  0.00    -0.058 N 
HETATM   18  C9  UNL     1       0.662  20.312  16.267  1.00  0.00     0.265 C 
HETATM   19  C10 UNL     1       1.985  20.946  15.837  1.00  0.00     0.265 C 
HETATM   20  N3  UNL     1       3.013  19.971  16.124  1.00  0.00    -0.062 N 
HETATM   21  C14 UNL     1       3.206  20.018  17.570  1.00  0.00     0.265 C 
HETATM   22  C16 UNL     1       2.601  18.637  15.798  1.00  0.00     0.265 C 
HETATM   23  C15 UNL     1       1.856  19.959  18.194  1.00  0.00     0.265 C 
HETATM   24  C17 UNL     1       1.570  18.173  16.830  1.00  0.00     0.265 C 
BRANCH  20  25
HETATM   25  C11 UNL     1       4.188  20.316  15.385  1.00  0.00     0.239 C 
BRANCH  25  26
HETATM   26  C12 UNL     1       4.809  19.150  14.649  1.00  0.00     0.054 C 
BRANCH  26  27
HETATM   27  C13 UNL     1       6.311  19.209  14.958  1.00  0.00     0.165 C 
BRANCH  27  28
HETATM   28  O6  UNL     1       6.895  17.987  14.620  1.00  0.00    -0.401 OA
ATOM     29  H6  UNL     1       7.070  17.496  15.415  1.00  0.00     0.209 HD
ENDBRANCH  27  28
ENDBRANCH  26  27
ENDBRANCH  25  26
ENDBRANCH  20  25
ENDBRANCH  16  17
ENDBRANCH   1  16
BRANCH   1  30
HETATM   30  C18 UNL     1      -2.680  18.838  18.144  1.00  0.00     0.043 A 
HETATM   31  C19 UNL     1      -2.899  19.464  19.484  1.00  0.00     0.010 A 
HETATM   32  C20 UNL     1      -3.628  18.265  19.078  1.00  0.00     0.010 A 
ENDBRANCH   1  30
TORSDOF 12
ENDMDL
MODEL 2
REMARK VINA RESULT: -6.253241481      2.556      3.253
REMARK  12 active torsions:
REMARK  status: ('A' for Active; 'I' for Inactive)
REMARK    1  A    between atoms: C1_2  and  C2_4 
REMARK    2  A    between atoms: C2_4  and  C3_5 
REMARK    3  A    between atoms: C5_7  and  C6_8 
REMARK    4  A    between atoms: N1_11  and  C7_12 
REMARK    5  A    between atoms: C7_12  and  O5_13 
REMARK    6  A    between atoms: C7_12  and  C8_15 
REMARK    7  A    between atoms: C7_12  and  C18_29 
REMARK    8  A    between atoms: C8_15  and  N2_16 
REMARK    9  A    between atoms: N3_19  and  C11_20 
REMARK   10  A    between atoms: C11_20  and  C12_21 
REMARK   11  A    between atoms: C12_21  and  C13_22 
REMARK   12  A    between atoms: C13_22  and  O6_23 
ROOT
HETATM    1  C7  UNL     1      -0.714  17.514  17.653  1.00  0.00     0.158 C 
ENDROOT
BRANCH   1   2
HETATM    2  N1  UNL     1      -1.101  16.266  18.110  1.00  0.00    -0.366 N 
HETATM    3  C5  UNL     1      -0.958  15.685  19.322  1.00  0.00     0.183 C 
HETATM    4  C4  UNL     1      -0.973  14.184  19.087  1.00  0.00     0.042 C 
HETATM    5  C3  UNL     1      -1.221  14.024  17.624  1.00  0.00     0.015 C 
HETATM    6  C21 UNL     1      -1.754  15.367  17.191  1.00  0.00     0.126 C 
BRANCH   3   7
HETATM    7  C6  UNL     1      -1.813  15.980  20.471  1.00  0.00     0.196 C 
HETATM    8  O3  UNL     1      -2.344  17.082  20.658  1.00  0.00    -0.646 OA
HETATM    9  O4  UNL     1      -2.059  14.994  21.414  1.00  0.00    -0.646 OA
ENDBRANCH   3   7
BRANCH   5  10
HETATM   10  C2  UNL     1      -2.114  12.870  17.257  1.00  0.00     0.119 C 
BRANCH  10  11
HETATM   11  C1  UNL     1      -1.776  12.147  16.048  1.00  0.00     0.172 C 
HETATM   12  O1  UNL     1      -1.068  11.136  15.956  1.00  0.00    -0.648 OA
HETATM   13  O2  UNL     1      -2.302  12.631  14.832  1.00  0.00    -0.648 OA
ENDBRANCH  10  11
ENDBRANCH   5  10
ENDBRANCH   1   2
BRANCH   1  14
HETATM   14  O5  UNL     1       0.421  17.270  16.815  1.00  0.00    -0.369 OA
ATOM     15  H5  UNL     1       0.643  18.117  16.445  1.00  0.00     0.212 HD
ENDBRANCH   1  14
BRANCH   1  16
HETATM   16  C8  UNL     1      -0.353  18.577  18.605  1.00  0.00     0.298 C 
BRANCH  16  17
HETATM   17  N2  UNL     1       0.954  18.706  19.125  1.00  0.00    -0.058 N 
HETATM   18  C9  UNL     1       1.865  19.488  18.307  1.00  0.00     0.265 C 
HETATM   19  C10 UNL     1       2.963  20.144  19.144  1.00  0.00     0.265 C 
HETATM   20  N3  UNL     1       3.109  19.331  20.330  1.00  0.00    -0.062 N 
HETATM   21  C14 UNL     1       1.964  19.659  21.174  1.00  0.00     0.265 C 
HETATM   22  C16 UNL     1       3.028  17.929  20.040  1.00  0.00     0.265 C 
HETATM   23  C15 UNL     1       0.752  19.600  20.311  1.00  0.00     0.265 C 
HETATM   24  C17 UNL     1       1.574  17.575  19.713  1.00  0.00     0.265 C 
BRANCH  20  25
HETATM   25  C11 UNL     1       4.366  19.633  20.940  1.00  0.00     0.239 C 
BRANCH  25  26
HETATM   26  C12 UNL     1       5.069  20.825  20.330  1.00  0.00     0.054 C 
BRANCH  26  27
HETATM   27  C13 UNL     1       5.770  21.541  21.492  1.00  0.00     0.165 C 
BRANCH  27  28
HETATM   28  O6  UNL     1       6.901  20.813  21.862  1.00  0.00    -0.401 OA
ATOM     29  H6  UNL     1       7.109  21.003  22.770  1.00  0.00     0.209 HD
ENDBRANCH  27  28
ENDBRANCH  26  27
ENDBRANCH  25  26
ENDBRANCH  20  25
ENDBRANCH  16  17
ENDBRANCH   1  16
BRANCH   1  30
HETATM   30  C18 UNL     1      -1.677  18.109  16.609  1.00  0.00     0.043 A 
HETATM   31  C19 UNL     1      -1.653  19.577  16.330  1.00  0.00     0.010 A 
HETATM   32  C20 UNL     1      -2.796  18.948  16.986  1.00  0.00     0.010 A 
ENDBRANCH   1  30
TORSDOF 12
ENDMDL
MODEL 3
REMARK VINA RESULT: -6.185550392      1.523      1.660
REMARK  12 active torsions:
REMARK  status: ('A' for Active; 'I' for Inactive)
REMARK    1  A    between atoms: C1_2  and  C2_4 
REMARK    2  A    between atoms: C2_4  and  C3_5 
REMARK    3  A    between atoms: C5_7  and  C6_8 
REMARK    4  A    between atoms: N1_11  and  C7_12 
REMARK    5  A    between atoms: C7_12  and  O5_13 
REMARK    6  A    between atoms: C7_12  and  C8_15 
REMARK    7  A    between atoms: C7_12  and  C18_29 
REMARK    8  A    between atoms: C8_15  and  N2_16 
REMARK    9  A    between atoms: N3_19  and  C11_20 
REMARK   10  A    between atoms: C11_20  and  C12_21 
REMARK   11  A    between atoms: C12_21  and  C13_22 
REMARK   12  A    between atoms: C13_22  and  O6_23 
ROOT
HETATM    1  C7  UNL     1      -2.050  17.717  17.544  1.00  0.00     0.158 C 
ENDROOT
BRANCH   1   2
HETATM    2  N1  UNL     1      -1.862  16.453  18.076  1.00  0.00    -0.366 N 
HETATM    3  C5  UNL     1      -1.221  16.052  19.196  1.00  0.00     0.183 C 
HETATM    4  C4  UNL     1      -0.791  14.614  18.958  1.00  0.00     0.042 C 
HETATM    5  C3  UNL     1      -1.345  14.261  17.618  1.00  0.00     0.015 C 
HETATM    6  C21 UNL     1      -2.391  15.317  17.362  1.00  0.00     0.126 C 
BRANCH   3   7
HETATM    7  C6  UNL     1      -1.792  16.146  20.538  1.00  0.00     0.196 C 
HETATM    8  O3  UNL     1      -2.080  17.220  21.081  1.00  0.00    -0.646 OA
HETATM    9  O4  UNL     1      -2.035  14.989  21.264  1.00  0.00    -0.646 OA
ENDBRANCH   3   7
BRANCH   5  10
HETATM   10  C2  UNL     1      -1.861  12.853  17.497  1.00  0.00     0.119 C 
BRANCH  10  11
HETATM   11  C1  UNL     1      -1.703  12.213  16.208  1.00  0.00     0.172 C 
HETATM   12  O1  UNL     1      -2.222  12.553  15.137  1.00  0.00    -0.648 OA
HETATM   13  O2  UNL     1      -0.872  11.075  16.144  1.00  0.00    -0.648 OA
ENDBRANCH  10  11
ENDBRANCH   5  10
ENDBRANCH   1   2
BRANCH   1  14
HETATM   14  O5  UNL     1      -1.821  17.569  16.139  1.00  0.00    -0.369 OA
ATOM     15  H5  UNL     1      -0.987  17.119  16.069  1.00  0.00     0.212 HD
ENDBRANCH   1  14
BRANCH   1  16
HETATM   16  C8  UNL     1      -1.243  18.852  18.017  1.00  0.00     0.298 C 
BRANCH  16  17
HETATM   17  N2  UNL     1       0.041  19.128  17.495  1.00  0.00    -0.058 N 
HETATM   18  C9  UNL     1       0.101  20.253  16.579  1.00  0.00     0.265 C 
HETATM   19  C10 UNL     1       1.481  20.911  16.573  1.00  0.00     0.265 C 
HETATM   20  N3  UNL     1       2.417  19.893  16.993  1.00  0.00    -0.062 N 
HETATM   21  C14 UNL     1       2.239  19.767  18.436  1.00  0.00     0.265 C 
HETATM   22  C16 UNL     1       2.119  18.613  16.420  1.00  0.00     0.265 C 
HETATM   23  C15 UNL     1       0.776  19.658  18.689  1.00  0.00     0.265 C 
HETATM   24  C17 UNL     1       0.868  18.048  17.098  1.00  0.00     0.265 C 
BRANCH  20  25
HETATM   25  C11 UNL     1       3.735  20.303  16.619  1.00  0.00     0.239 C 
BRANCH  25  26
HETATM   26  C12 UNL     1       4.518  20.943  17.743  1.00  0.00     0.054 C 
BRANCH  26  27
HETATM   27  C13 UNL     1       5.962  21.061  17.238  1.00  0.00     0.165 C 
BRANCH  27  28
HETATM   28  O6  UNL     1       6.484  22.294  17.630  1.00  0.00    -0.401 OA
ATOM     29  H6  UNL     1       7.000  22.177  18.419  1.00  0.00     0.209 HD
ENDBRANCH  27  28
ENDBRANCH  26  27
ENDBRANCH  25  26
ENDBRANCH  20  25
ENDBRANCH  16  17
ENDBRANCH   1  16
BRANCH   1  30
HETATM   30  C18 UNL     1      -3.527  18.154  17.515  1.00  0.00     0.043 A 
HETATM   31  C19 UNL     1      -4.133  18.799  18.719  1.00  0.00     0.010 A 
HETATM   32  C20 UNL     1      -4.546  17.468  18.283  1.00  0.00     0.010 A 
ENDBRANCH   1  30
TORSDOF 12
ENDMDL
MODEL 4
REMARK VINA RESULT: -6.118896585      3.225      7.506
REMARK  12 active torsions:
REMARK  status: ('A' for Active; 'I' for Inactive)
REMARK    1  A    between atoms: C1_2  and  C2_4 
REMARK    2  A    between atoms: C2_4  and  C3_5 
REMARK    3  A    between atoms: C5_7  and  C6_8 
REMARK    4  A    between atoms: N1_11  and  C7_12 
REMARK    5  A    between atoms: C7_12  and  O5_13 
REMARK    6  A    between atoms: C7_12  and  C8_15 
REMARK    7  A    between atoms: C7_12  and  C18_29 
REMARK    8  A    between atoms: C8_15  and  N2_16 
REMARK    9  A    between atoms: N3_19  and  C11_20 
REMARK   10  A    between atoms: C11_20  and  C12_21 
REMARK   11  A    between atoms: C12_21  and  C13_22 
REMARK   12  A    between atoms: C13_22  and  O6_23 
ROOT
HETATM    1  C7  UNL     1       0.428  18.181  21.071  1.00  0.00     0.158 C 
ENDROOT
BRANCH   1   2
HETATM    2  N1  UNL     1       1.624  18.855  20.891  1.00  0.00    -0.366 N 
HETATM    3  C5  UNL     1       2.630  18.650  20.012  1.00  0.00     0.183 C 
HETATM    4  C4  UNL     1       3.885  19.223  20.648  1.00  0.00     0.042 C 
HETATM    5  C3  UNL     1       3.425  19.831  21.932  1.00  0.00     0.015 C 
HETATM    6  C21 UNL     1       1.931  19.961  21.764  1.00  0.00     0.126 C 
BRANCH   3   7
HETATM    7  C6  UNL     1       2.587  19.076  18.614  1.00  0.00     0.196 C 
HETATM    8  O3  UNL     1       2.147  18.366  17.700  1.00  0.00    -0.646 OA
HETATM    9  O4  UNL     1       3.056  20.333  18.264  1.00  0.00    -0.646 OA
ENDBRANCH   3   7
BRANCH   5  10
HETATM   10  C2  UNL     1       4.108  21.119  22.302  1.00  0.00     0.119 C 
BRANCH  10  11
HETATM   11  C1  UNL     1       5.469  21.289  21.836  1.00  0.00     0.172 C 
HETATM   12  O1  UNL     1       6.473  20.678  22.224  1.00  0.00    -0.648 OA
HETATM   13  O2  UNL     1       5.697  22.251  20.830  1.00  0.00    -0.648 OA
ENDBRANCH  10  11
ENDBRANCH   5  10
ENDBRANCH   1   2
BRANCH   1  14
HETATM   14  O5  UNL     1       0.800  16.822  21.326  1.00  0.00    -0.369 OA
ATOM     15  H5  UNL     1       0.020  16.312  21.140  1.00  0.00     0.212 HD
ENDBRANCH   1  14
BRANCH   1  16
HETATM   16  C8  UNL     1      -0.593  18.179  20.013  1.00  0.00     0.298 C 
BRANCH  16  17
HETATM   17  N2  UNL     1      -0.945  17.004  19.311  1.00  0.00    -0.058 N 
HETATM   18  C9  UNL     1      -2.229  16.433  19.678  1.00  0.00     0.265 C 
HETATM   19  C10 UNL     1      -2.851  15.641  18.528  1.00  0.00     0.265 C 
HETATM   20  N3  UNL     1      -1.753  15.215  17.689  1.00  0.00    -0.062 N 
HETATM   21  C14 UNL     1      -1.345  16.402  16.944  1.00  0.00     0.265 C 
HETATM   22  C16 UNL     1      -0.619  14.789  18.456  1.00  0.00     0.265 C 
HETATM   23  C15 UNL     1      -1.213  17.512  17.927  1.00  0.00     0.265 C 
HETATM   24  C17 UNL     1       0.048  16.021  19.075  1.00  0.00     0.265 C 
BRANCH  20  25
HETATM   25  C11 UNL     1      -2.206  14.148  16.851  1.00  0.00     0.239 C 
BRANCH  25  26
HETATM   26  C12 UNL     1      -1.923  12.772  17.410  1.00  0.00     0.054 C 
BRANCH  26  27
HETATM   27  C13 UNL     1      -1.341  11.957  16.248  1.00  0.00     0.165 C 
BRANCH  27  28
HETATM   28  O6  UNL     1      -2.387  11.459  15.470  1.00  0.00    -0.401 OA
ATOM     29  H6  UNL     1      -2.659  10.617  15.817  1.00  0.00     0.209 HD
ENDBRANCH  27  28
ENDBRANCH  26  27
ENDBRANCH  25  26
ENDBRANCH  20  25
ENDBRANCH  16  17
ENDBRANCH   1  16
BRANCH   1  30
HETATM   30  C18 UNL     1      -0.262  18.508  22.408  1.00  0.00     0.043 A 
HETATM   31  C19 UNL     1      -1.023  17.443  23.130  1.00  0.00     0.010 A 
HETATM   32  C20 UNL     1      -1.704  18.587  22.528  1.00  0.00     0.010 A 
ENDBRANCH   1  30
TORSDOF 12
ENDMDL
MODEL 5
REMARK VINA RESULT: -6.073895482      3.431      7.288
REMARK  12 active torsions:
REMARK  status: ('A' for Active; 'I' for Inactive)
REMARK    1  A    between atoms: C1_2  and  C2_4 
REMARK    2  A    between atoms: C2_4  and  C3_5 
REMARK    3  A    between atoms: C5_7  and  C6_8 
REMARK    4  A    between atoms: N1_11  and  C7_12 
REMARK    5  A    between atoms: C7_12  and  O5_13 
REMARK    6  A    between atoms: C7_12  and  C8_15 
REMARK    7  A    between atoms: C7_12  and  C18_29 
REMARK    8  A    between atoms: C8_15  and  N2_16 
REMARK    9  A    between atoms: N3_19  and  C11_20 
REMARK   10  A    between atoms: C11_20  and  C12_21 
REMARK   11  A    between atoms: C12_21  and  C13_22 
REMARK   12  A    between atoms: C13_22  and  O6_23 
ROOT
HETATM    1  C7  UNL     1      -2.456  17.973  18.252  1.00  0.00     0.158 C 
ENDROOT
BRANCH   1   2
HETATM    2  N1  UNL     1      -1.943  16.726  18.565  1.00  0.00    -0.366 N 
HETATM    3  C5  UNL     1      -0.846  16.374  19.273  1.00  0.00     0.183 C 
HETATM    4  C4  UNL     1      -0.434  14.998  18.777  1.00  0.00     0.042 C 
HETATM    5  C3  UNL     1      -1.479  14.616  17.782  1.00  0.00     0.015 C 
HETATM    6  C21 UNL     1      -2.624  15.555  18.071  1.00  0.00     0.126 C 
BRANCH   3   7
HETATM    7  C6  UNL     1      -0.786  16.374  20.734  1.00  0.00     0.196 C 
HETATM    8  O3  UNL     1      -1.784  16.247  21.455  1.00  0.00    -0.646 OA
HETATM    9  O4  UNL     1       0.437  16.522  21.371  1.00  0.00    -0.646 OA
ENDBRANCH   3   7
BRANCH   5  10
HETATM   10  C2  UNL     1      -1.867  13.163  17.799  1.00  0.00     0.119 C 
BRANCH  10  11
HETATM   11  C1  UNL     1      -1.799  12.458  16.535  1.00  0.00     0.172 C 
HETATM   12  O1  UNL     1      -1.138  11.443  16.282  1.00  0.00    -0.648 OA
HETATM   13  O2  UNL     1      -2.561  12.968  15.463  1.00  0.00    -0.648 OA
ENDBRANCH  10  11
ENDBRANCH   5  10
ENDBRANCH   1   2
BRANCH   1  14
HETATM   14  O5  UNL     1      -3.072  18.437  19.458  1.00  0.00    -0.369 OA
ATOM     15  H5  UNL     1      -3.979  18.601  19.227  1.00  0.00     0.212 HD
ENDBRANCH   1  14
BRANCH   1  16
HETATM   16  C8  UNL     1      -3.429  18.125  17.159  1.00  0.00     0.298 C 
BRANCH  16  17
HETATM   17  N2  UNL     1      -4.765  18.521  17.395  1.00  0.00    -0.058 N 
HETATM   18  C9  UNL     1      -4.921  19.855  17.947  1.00  0.00     0.265 C 
HETATM   19  C10 UNL     1      -6.267  20.474  17.572  1.00  0.00     0.265 C 
HETATM   20  N3  UNL     1      -7.165  19.370  17.320  1.00  0.00    -0.062 N 
HETATM   21  C14 UNL     1      -6.789  18.850  16.008  1.00  0.00     0.265 C 
HETATM   22  C16 UNL     1      -6.988  18.302  18.261  1.00  0.00     0.265 C 
HETATM   23  C15 UNL     1      -5.309  18.691  16.008  1.00  0.00     0.265 C 
HETATM   24  C17 UNL     1      -5.672  17.584  17.951  1.00  0.00     0.265 C 
BRANCH  20  25
HETATM   25  C11 UNL     1      -8.510  19.852  17.373  1.00  0.00     0.239 C 
BRANCH  25  26
HETATM   26  C12 UNL     1      -9.524  18.793  17.743  1.00  0.00     0.054 C 
BRANCH  26  27
HETATM   27  C13 UNL     1     -10.248  18.430  16.440  1.00  0.00     0.165 C 
BRANCH  27  28
HETATM   28  O6  UNL     1     -10.725  17.122  16.531  1.00  0.00    -0.401 OA
ATOM     29  H6  UNL     1     -11.043  16.846  15.679  1.00  0.00     0.209 HD
ENDBRANCH  27  28
ENDBRANCH  26  27
ENDBRANCH  25  26
ENDBRANCH  20  25
ENDBRANCH  16  17
ENDBRANCH   1  16
BRANCH   1  30
HETATM   30  C18 UNL     1      -1.373  19.056  18.089  1.00  0.00     0.043 A 
HETATM   31  C19 UNL     1      -1.368  19.919  16.868  1.00  0.00     0.010 A 
HETATM   32  C20 UNL     1      -0.312  18.939  17.108  1.00  0.00     0.010 A 
ENDBRANCH   1  30
TORSDOF 12
ENDMDL
