MODEL 1
REMARK VINA RESULT: -5.967691975      0.000      0.000
REMARK  12 active torsions:
REMARK  status: ('A' for Active; 'I' for Inactive)
REMARK    1  A    between atoms: C3_3  and  C4_4 
REMARK    2  A    between atoms: C4_4  and  N1_5 
REMARK    3  A    between atoms: N1_5  and  C5_6 
REMARK    4  A    between atoms: C5_6  and  C6_7 
REMARK    5  A    between atoms: C6_7  and  N2_8 
REMARK       I    between atoms: N2_8  and  C7_10 
REMARK    6  A    between atoms: C7_10  and  C8_12 
REMARK    7  A    between atoms: C12_16  and  C14_18 
REMARK       I    between atoms: C14_18  and  N3_20 
REMARK    8  A    between atoms: N3_20  and  C15_22 
REMARK    9  A    between atoms: C15_22  and  C16_23 
REMARK   10  A    between atoms: C16_23  and  N4_24 
REMARK   11  A    between atoms: C20_29  and  N5_30 
REMARK   12  A    between atoms: C22_35  and  O4_36 
ROOT
HETATM    1  C1  UNL     1      -1.133  19.894  16.579  1.00  0.00     0.112 C 
HETATM    2  C2  UNL     1      -0.967  18.503  16.961  1.00  0.00    -0.109 C 
HETATM    3  C3  UNL     1      -0.821  17.356  17.289  1.00  0.00    -0.079 C 
ENDROOT
BRANCH   3   4
HETATM    4  C4  UNL     1      -0.634  15.984  17.656  1.00  0.00     0.336 C 
BRANCH   4   5
HETATM    5  N1  UNL     1      -1.786  15.393  18.280  1.00  0.00    -0.001 N 
HETATM    6  C20 UNL     1      -1.429  14.198  19.037  1.00  0.00     0.393 C 
HETATM    7  C21 UNL     1      -2.151  13.291  18.095  1.00  0.00     0.124 C 
HETATM    8  C22 UNL     1      -2.631  14.585  17.470  1.00  0.00     0.330 C 
BRANCH   5   9
HETATM    9  C5  UNL     1      -2.385  16.356  19.159  1.00  0.00     0.263 C 
BRANCH   9  10
HETATM   10  C6  UNL     1      -1.834  16.374  20.548  1.00  0.00     0.151 C 
BRANCH  10  11
HETATM   11  N2  UNL     1      -0.936  17.496  20.721  1.00  0.00    -0.357 N 
HETATM   12  C7  UNL     1       0.474  17.361  20.779  1.00  0.00     0.246 C 
HETATM   13  O1  UNL     1       0.934  16.185  20.670  1.00  0.00    -0.271 OA
ATOM     14  H2  UNL     1      -1.338  18.430  20.805  1.00  0.00     0.162 HD
BRANCH  12  15
HETATM   15  C8  UNL     1       1.390  18.505  20.955  1.00  0.00     0.215 C 
HETATM   16  C9  UNL     1       0.779  19.639  21.740  1.00  0.00     0.042 C 
HETATM   17  C10 UNL     1       0.782  20.937  20.999  1.00  0.00     0.006 C 
HETATM   18  C11 UNL     1       2.012  21.201  20.201  1.00  0.00     0.048 C 
HETATM   19  C12 UNL     1       2.747  19.968  19.798  1.00  0.00     0.138 C 
HETATM   20  C13 UNL     1       3.943  19.686  20.672  1.00  0.00     0.056 C 
HETATM   21  O3  UNL     1       1.871  18.909  19.721  1.00  0.00    -0.356 OA
BRANCH  19  22
HETATM   22  C14 UNL     1       3.275  20.203  18.406  1.00  0.00     0.252 C 
HETATM   23  O2  UNL     1       4.412  20.752  18.379  1.00  0.00    -0.270 OA
HETATM   24  N3  UNL     1       2.563  19.842  17.261  1.00  0.00    -0.357 N 
ATOM     25  H3  UNL     1       1.650  19.399  17.358  1.00  0.00     0.162 HD
BRANCH  24  26
HETATM   26  C15 UNL     1       3.094  20.082  15.946  1.00  0.00     0.150 C 
BRANCH  26  27
HETATM   27  C16 UNL     1       3.891  18.929  15.407  1.00  0.00     0.255 C 
BRANCH  27  28
HETATM   28  N4  UNL     1       4.989  19.417  14.574  1.00  0.00    -0.077 N 
HETATM   29  C17 UNL     1       4.561  19.538  13.202  1.00  0.00     0.271 C 
HETATM   30  C18 UNL     1       5.416  20.748  15.000  1.00  0.00     0.271 C 
HETATM   31  C19 UNL     1       6.116  18.527  14.643  1.00  0.00     0.271 C 
ENDBRANCH  27  28
ENDBRANCH  26  27
ENDBRANCH  24  26
ENDBRANCH  19  22
ENDBRANCH  12  15
ENDBRANCH  10  11
ENDBRANCH   9  10
ENDBRANCH   5   9
BRANCH   6  32
HETATM   32  N5  UNL     1      -0.003  13.974  19.175  1.00  0.00    -0.050 N 
ATOM     33  H53 UNL     1       0.285  13.168  18.620  1.00  0.00     0.276 HD
ATOM     34  H52 UNL     1       0.520  14.710  18.701  1.00  0.00     0.276 HD
ATOM     35  H51 UNL     1       0.320  13.874  20.138  1.00  0.00     0.276 HD
ENDBRANCH   6  32
BRANCH   8  36
HETATM   36  O4  UNL     1      -2.428  14.663  16.094  1.00  0.00    -0.369 OA
ATOM     37  H4  UNL     1      -3.206  14.759  15.558  1.00  0.00     0.212 HD
ENDBRANCH   8  36
ENDBRANCH   4   5
ENDBRANCH   3   4
TORSDOF 12
ENDMDL
MODEL 2
REMARK VINA RESULT: -5.815126258      1.972      2.786
REMARK  12 active torsions:
REMARK  status: ('A' for Active; 'I' for Inactive)
REMARK    1  A    between atoms: C3_3  and  C4_4 
REMARK    2  A    between atoms: C4_4  and  N1_5 
REMARK    3  A    between atoms: N1_5  and  C5_6 
REMARK    4  A    between atoms: C5_6  and  C6_7 
REMARK    5  A    between atoms: C6_7  and  N2_8 
REMARK       I    between atoms: N2_8  and  C7_10 
REMARK    6  A    between atoms: C7_10  and  C8_12 
REMARK    7  A    between atoms: C12_16  and  C14_18 
REMARK       I    between atoms: C14_18  and  N3_20 
REMARK    8  A    between atoms: N3_20  and  C15_22 
REMARK    9  A    between atoms: C15_22  and  C16_23 
REMARK   10  A    between atoms: C16_23  and  N4_24 
REMARK   11  A    between atoms: C20_29  and  N5_30 
REMARK   12  A    between atoms: C22_35  and  O4_36 
ROOT
HETATM    1  C1  UNL     1      -3.245  19.385  19.639  1.00  0.00     0.112 C 
HETATM    2  C2  UNL     1      -3.135  18.042  19.100  1.00  0.00    -0.109 C 
HETATM    3  C3  UNL     1      -3.040  16.936  18.640  1.00  0.00    -0.079 C 
ENDROOT
BRANCH   3   4
HETATM    4  C4  UNL     1      -2.952  15.614  18.093  1.00  0.00     0.336 C 
BRANCH   4   5
HETATM    5  N1  UNL     1      -1.616  15.085  18.078  1.00  0.00    -0.001 N 
HETATM    6  C20 UNL     1      -1.490  13.979  17.134  1.00  0.00     0.393 C 
HETATM    7  C21 UNL     1      -1.293  12.973  18.220  1.00  0.00     0.124 C 
HETATM    8  C22 UNL     1      -1.251  14.190  19.121  1.00  0.00     0.330 C 
BRANCH   5   9
HETATM    9  C5  UNL     1      -0.704  16.132  17.714  1.00  0.00     0.263 C 
BRANCH   9  10
HETATM   10  C6  UNL     1       0.437  16.332  18.657  1.00  0.00     0.151 C 
BRANCH  10  11
HETATM   11  N2  UNL     1       1.079  17.606  18.410  1.00  0.00    -0.357 N 
HETATM   12  C7  UNL     1       2.140  18.108  19.206  1.00  0.00     0.246 C 
HETATM   13  O1  UNL     1       2.517  17.378  20.171  1.00  0.00    -0.271 OA
ATOM     14  H2  UNL     1       0.753  18.169  17.626  1.00  0.00     0.162 HD
BRANCH  12  15
HETATM   15  C8  UNL     1       2.796  19.407  18.955  1.00  0.00     0.215 C 
HETATM   16  C9  UNL     1       1.919  20.588  19.289  1.00  0.00     0.042 C 
HETATM   17  C10 UNL     1       1.714  21.514  18.134  1.00  0.00     0.006 C 
HETATM   18  C11 UNL     1       2.916  21.734  17.284  1.00  0.00     0.048 C 
HETATM   19  C12 UNL     1       3.908  20.622  17.341  1.00  0.00     0.138 C 
HETATM   20  C13 UNL     1       5.075  20.922  18.248  1.00  0.00     0.056 C 
HETATM   21  O3  UNL     1       3.268  19.444  17.654  1.00  0.00    -0.356 OA
BRANCH  19  22
HETATM   22  C14 UNL     1       4.471  20.460  15.953  1.00  0.00     0.252 C 
HETATM   23  O2  UNL     1       5.028  21.501  15.505  1.00  0.00    -0.270 OA
HETATM   24  N3  UNL     1       4.380  19.264  15.239  1.00  0.00    -0.357 N 
ATOM     25  H3  UNL     1       3.918  18.461  15.665  1.00  0.00     0.162 HD
BRANCH  24  26
HETATM   26  C15 UNL     1       4.926  19.143  13.914  1.00  0.00     0.150 C 
BRANCH  26  27
HETATM   27  C16 UNL     1       6.284  18.503  13.887  1.00  0.00     0.255 C 
BRANCH  27  28
HETATM   28  N4  UNL     1       7.063  19.014  12.760  1.00  0.00    -0.077 N 
HETATM   29  C17 UNL     1       6.215  19.202  11.609  1.00  0.00     0.271 C 
HETATM   30  C18 UNL     1       7.641  20.320  13.075  1.00  0.00     0.271 C 
HETATM   31  C19 UNL     1       8.127  18.108  12.424  1.00  0.00     0.271 C 
ENDBRANCH  27  28
ENDBRANCH  26  27
ENDBRANCH  24  26
ENDBRANCH  19  22
ENDBRANCH  12  15
ENDBRANCH  10  11
ENDBRANCH   9  10
ENDBRANCH   5   9
BRANCH   6  32
HETATM   32  N5  UNL     1      -2.645  13.782  16.278  1.00  0.00    -0.050 N 
ATOM     33  H53 UNL     1      -3.452  14.281  16.652  1.00  0.00     0.276 HD
ATOM     34  H52 UNL     1      -2.523  14.279  15.397  1.00  0.00     0.276 HD
ATOM     35  H51 UNL     1      -2.882  12.805  16.104  1.00  0.00     0.276 HD
ENDBRANCH   6  32
BRANCH   8  36
HETATM   36  O4  UNL     1      -2.118  14.123  20.210  1.00  0.00    -0.369 OA
ATOM     37  H4  UNL     1      -2.546  14.934  20.458  1.00  0.00     0.212 HD
ENDBRANCH   8  36
ENDBRANCH   4   5
ENDBRANCH   3   4
TORSDOF 12
ENDMDL
MODEL 3
REMARK VINA RESULT: -5.789174861      4.638      7.928
REMARK  12 active torsions:
REMARK  status: ('A' for Active; 'I' for Inactive)
REMARK    1  A    between atoms: C3_3  and  C4_4 
REMARK    2  A    between atoms: C4_4  and  N1_5 
REMARK    3  A    between atoms: N1_5  and  C5_6 
REMARK    4  A    between atoms: C5_6  and  C6_7 
REMARK    5  A    between atoms: C6_7  and  N2_8 
REMARK       I    between atoms: N2_8  and  C7_10 
REMARK    6  A    between atoms: C7_10  and  C8_12 
REMARK    7  A    between atoms: C12_16  and  C14_18 
REMARK       I    between atoms: C14_18  and  N3_20 
REMARK    8  A    between atoms: N3_20  and  C15_22 
REMARK    9  A    between atoms: C15_22  and  C16_23 
REMARK   10  A    between atoms: C16_23  and  N4_24 
REMARK   11  A    between atoms: C20_29  and  N5_30 
REMARK   12  A    between atoms: C22_35  and  O4_36 
ROOT
HETATM    1  C1  UNL     1      -8.176  19.920  21.624  1.00  0.00     0.112 C 
HETATM    2  C2  UNL     1      -8.271  19.767  20.184  1.00  0.00    -0.109 C 
HETATM    3  C3  UNL     1      -8.347  19.625  18.992  1.00  0.00    -0.079 C 
ENDROOT
BRANCH   3   4
HETATM    4  C4  UNL     1      -8.416  19.471  17.569  1.00  0.00     0.336 C 
BRANCH   4   5
HETATM    5  N1  UNL     1      -7.860  18.233  17.096  1.00  0.00    -0.001 N 
HETATM    6  C20 UNL     1      -7.520  18.308  15.679  1.00  0.00     0.393 C 
HETATM    7  C21 UNL     1      -8.594  17.344  15.291  1.00  0.00     0.124 C 
HETATM    8  C22 UNL     1      -8.766  17.181  16.787  1.00  0.00     0.330 C 
BRANCH   5   9
HETATM    9  C5  UNL     1      -6.681  17.931  17.857  1.00  0.00     0.263 C 
BRANCH   9  10
HETATM   10  C6  UNL     1      -5.436  18.611  17.391  1.00  0.00     0.151 C 
BRANCH  10  11
HETATM   11  N2  UNL     1      -4.268  17.847  17.774  1.00  0.00    -0.357 N 
HETATM   12  C7  UNL     1      -3.201  17.561  16.886  1.00  0.00     0.246 C 
HETATM   13  O1  UNL     1      -3.310  18.014  15.707  1.00  0.00    -0.271 OA
ATOM     14  H2  UNL     1      -4.211  17.497  18.730  1.00  0.00     0.162 HD
BRANCH  12  15
HETATM   15  C8  UNL     1      -2.009  16.781  17.276  1.00  0.00     0.215 C 
HETATM   16  C9  UNL     1      -2.015  15.376  16.729  1.00  0.00     0.042 C 
HETATM   17  C10 UNL     1      -1.908  14.330  17.790  1.00  0.00     0.006 C 
HETATM   18  C11 UNL     1      -0.976  14.660  18.904  1.00  0.00     0.048 C 
HETATM   19  C12 UNL     1      -0.761  16.122  19.100  1.00  0.00     0.138 C 
HETATM   20  C13 UNL     1       0.533  16.611  18.499  1.00  0.00     0.056 C 
HETATM   21  O3  UNL     1      -1.862  16.817  18.652  1.00  0.00    -0.356 OA
BRANCH  19  22
HETATM   22  C14 UNL     1      -0.665  16.361  20.584  1.00  0.00     0.252 C 
HETATM   23  O2  UNL     1       0.515  16.541  20.995  1.00  0.00    -0.270 OA
HETATM   24  N3  UNL     1      -1.785  16.379  21.417  1.00  0.00    -0.357 N 
ATOM     25  H3  UNL     1      -2.710  16.228  21.015  1.00  0.00     0.162 HD
BRANCH  24  26
HETATM   26  C15 UNL     1      -1.659  16.607  22.831  1.00  0.00     0.150 C 
BRANCH  26  27
HETATM   27  C16 UNL     1      -1.625  18.063  23.198  1.00  0.00     0.255 C 
BRANCH  27  28
HETATM   28  N4  UNL     1      -0.679  18.290  24.290  1.00  0.00    -0.077 N 
HETATM   29  C17 UNL     1      -0.163  17.033  24.774  1.00  0.00     0.271 C 
HETATM   30  C18 UNL     1       0.471  19.067  23.830  1.00  0.00     0.271 C 
HETATM   31  C19 UNL     1      -1.309  18.994  25.372  1.00  0.00     0.271 C 
ENDBRANCH  27  28
ENDBRANCH  26  27
ENDBRANCH  24  26
ENDBRANCH  19  22
ENDBRANCH  12  15
ENDBRANCH  10  11
ENDBRANCH   9  10
ENDBRANCH   5   9
BRANCH   6  32
HETATM   32  N5  UNL     1      -7.613  19.636  15.105  1.00  0.00    -0.050 N 
ATOM     33  H53 UNL     1      -6.683  19.999  14.898  1.00  0.00     0.276 HD
ATOM     34  H52 UNL     1      -7.997  19.589  14.161  1.00  0.00     0.276 HD
ATOM     35  H51 UNL     1      -8.138  20.306  15.667  1.00  0.00     0.276 HD
ENDBRANCH   6  32
BRANCH   8  36
HETATM   36  O4  UNL     1     -10.076  17.343  17.232  1.00  0.00    -0.369 OA
ATOM     37  H4  UNL     1     -10.757  17.265  16.574  1.00  0.00     0.212 HD
ENDBRANCH   8  36
ENDBRANCH   4   5
ENDBRANCH   3   4
TORSDOF 12
ENDMDL
MODEL 4
REMARK VINA RESULT: -5.731357244      2.767      4.576
REMARK  12 active torsions:
REMARK  status: ('A' for Active; 'I' for Inactive)
REMARK    1  A    between atoms: C3_3  and  C4_4 
REMARK    2  A    between atoms: C4_4  and  N1_5 
REMARK    3  A    between atoms: N1_5  and  C5_6 
REMARK    4  A    between atoms: C5_6  and  C6_7 
REMARK    5  A    between atoms: C6_7  and  N2_8 
REMARK       I    between atoms: N2_8  and  C7_10 
REMARK    6  A    between atoms: C7_10  and  C8_12 
REMARK    7  A    between atoms: C12_16  and  C14_18 
REMARK       I    between atoms: C14_18  and  N3_20 
REMARK    8  A    between atoms: N3_20  and  C15_22 
REMARK    9  A    between atoms: C15_22  and  C16_23 
REMARK   10  A    between atoms: C16_23  and  N4_24 
REMARK   11  A    between atoms: C20_29  and  N5_30 
REMARK   12  A    between atoms: C22_35  and  O4_36 
ROOT
HETATM    1  C1  UNL     1      -1.408  17.225  22.806  1.00  0.00     0.112 C 
HETATM    2  C2  UNL     1      -1.737  16.645  21.517  1.00  0.00    -0.109 C 
HETATM    3  C3  UNL     1      -2.019  16.156  20.455  1.00  0.00    -0.079 C 
ENDROOT
BRANCH   3   4
HETATM    4  C4  UNL     1      -2.331  15.563  19.189  1.00  0.00     0.336 C 
BRANCH   4   5
HETATM    5  N1  UNL     1      -1.198  14.964  18.538  1.00  0.00    -0.001 N 
HETATM    6  C20 UNL     1      -1.547  14.463  17.213  1.00  0.00     0.393 C 
HETATM    7  C21 UNL     1      -1.378  13.037  17.623  1.00  0.00     0.124 C 
HETATM    8  C22 UNL     1      -0.852  13.636  18.911  1.00  0.00     0.330 C 
BRANCH   5   9
HETATM    9  C5  UNL     1      -0.156  15.944  18.421  1.00  0.00     0.263 C 
BRANCH   9  10
HETATM   10  C6  UNL     1      -0.455  17.077  17.494  1.00  0.00     0.151 C 
BRANCH  10  11
HETATM   11  N2  UNL     1       0.758  17.541  16.855  1.00  0.00    -0.357 N 
HETATM   12  C7  UNL     1       1.482  18.677  17.295  1.00  0.00     0.246 C 
HETATM   13  O1  UNL     1       1.015  19.291  18.300  1.00  0.00    -0.271 OA
ATOM     14  H2  UNL     1       1.109  17.024  16.049  1.00  0.00     0.162 HD
BRANCH  12  15
HETATM   15  C8  UNL     1       2.721  19.150  16.645  1.00  0.00     0.215 C 
HETATM   16  C9  UNL     1       3.438  20.213  17.439  1.00  0.00     0.042 C 
HETATM   17  C10 UNL     1       3.649  21.479  16.674  1.00  0.00     0.006 C 
HETATM   18  C11 UNL     1       4.007  21.294  15.240  1.00  0.00     0.048 C 
HETATM   19  C12 UNL     1       3.549  19.996  14.665  1.00  0.00     0.138 C 
HETATM   20  C13 UNL     1       4.649  18.968  14.586  1.00  0.00     0.056 C 
HETATM   21  O3  UNL     1       2.440  19.551  15.349  1.00  0.00    -0.356 OA
BRANCH  19  22
HETATM   22  C14 UNL     1       3.111  20.269  13.250  1.00  0.00     0.252 C 
HETATM   23  O2  UNL     1       3.508  21.380  12.800  1.00  0.00    -0.270 OA
HETATM   24  N3  UNL     1       2.338  19.369  12.515  1.00  0.00    -0.357 N 
ATOM     25  H3  UNL     1       2.056  18.487  12.942  1.00  0.00     0.162 HD
BRANCH  24  26
HETATM   26  C15 UNL     1       1.934  19.661  11.166  1.00  0.00     0.150 C 
BRANCH  26  27
HETATM   27  C16 UNL     1       2.781  18.978  10.130  1.00  0.00     0.255 C 
BRANCH  27  28
HETATM   28  N4  UNL     1       3.468  19.969   9.302  1.00  0.00    -0.077 N 
HETATM   29  C17 UNL     1       3.510  19.531   7.928  1.00  0.00     0.271 C 
HETATM   30  C18 UNL     1       2.753  21.244   9.315  1.00  0.00     0.271 C 
HETATM   31  C19 UNL     1       4.808  20.186   9.773  1.00  0.00     0.271 C 
ENDBRANCH  27  28
ENDBRANCH  26  27
ENDBRANCH  24  26
ENDBRANCH  19  22
ENDBRANCH  12  15
ENDBRANCH  10  11
ENDBRANCH   9  10
ENDBRANCH   5   9
BRANCH   6  32
HETATM   32  N5  UNL     1      -2.868  14.845  16.752  1.00  0.00    -0.050 N 
ATOM     33  H53 UNL     1      -3.585  14.328  17.262  1.00  0.00     0.276 HD
ATOM     34  H52 UNL     1      -3.089  15.794  17.052  1.00  0.00     0.276 HD
ATOM     35  H51 UNL     1      -3.011  14.749  15.746  1.00  0.00     0.276 HD
ENDBRANCH   6  32
BRANCH   8  36
HETATM   36  O4  UNL     1      -1.459  13.138  20.061  1.00  0.00    -0.369 OA
ATOM     37  H4  UNL     1      -1.590  13.757  20.770  1.00  0.00     0.212 HD
ENDBRANCH   8  36
ENDBRANCH   4   5
ENDBRANCH   3   4
TORSDOF 12
ENDMDL
MODEL 5
REMARK VINA RESULT: -5.642666225      2.689      5.013
REMARK  12 active torsions:
REMARK  status: ('A' for Active; 'I' for Inactive)
REMARK    1  A    between atoms: C3_3  and  C4_4 
REMARK    2  A    between atoms: C4_4  and  N1_5 
REMARK    3  A    between atoms: N1_5  and  C5_6 
REMARK    4  A    between atoms: C5_6  and  C6_7 
REMARK    5  A    between atoms: C6_7  and  N2_8 
REMARK       I    between atoms: N2_8  and  C7_10 
REMARK    6  A    between atoms: C7_10  and  C8_12 
REMARK    7  A    between atoms: C12_16  and  C14_18 
REMARK       I    between atoms: C14_18  and  N3_20 
REMARK    8  A    between atoms: N3_20  and  C15_22 
REMARK    9  A    between atoms: C15_22  and  C16_23 
REMARK   10  A    between atoms: C16_23  and  N4_24 
REMARK   11  A    between atoms: C20_29  and  N5_30 
REMARK   12  A    between atoms: C22_35  and  O4_36 
ROOT
HETATM    1  C1  UNL     1      -1.748  12.186  15.951  1.00  0.00     0.112 C 
HETATM    2  C2  UNL     1      -1.775  13.123  17.059  1.00  0.00    -0.109 C 
HETATM    3  C3  UNL     1      -1.801  13.889  17.986  1.00  0.00    -0.079 C 
ENDROOT
BRANCH   3   4
HETATM    4  C4  UNL     1      -1.853  14.811  19.081  1.00  0.00     0.336 C 
BRANCH   4   5
HETATM    5  N1  UNL     1      -1.673  16.182  18.688  1.00  0.00    -0.001 N 
HETATM    6  C20 UNL     1      -1.422  17.040  19.841  1.00  0.00     0.393 C 
HETATM    7  C21 UNL     1      -2.733  17.741  19.702  1.00  0.00     0.124 C 
HETATM    8  C22 UNL     1      -2.840  16.948  18.416  1.00  0.00     0.330 C 
BRANCH   5   9
HETATM    9  C5  UNL     1      -0.564  16.264  17.779  1.00  0.00     0.263 C 
BRANCH   9  10
HETATM   10  C6  UNL     1      -0.322  17.619  17.198  1.00  0.00     0.151 C 
BRANCH  10  11
HETATM   11  N2  UNL     1       1.096  17.853  17.036  1.00  0.00    -0.357 N 
HETATM   12  C7  UNL     1       1.624  18.933  16.285  1.00  0.00     0.246 C 
HETATM   13  O1  UNL     1       0.782  19.711  15.745  1.00  0.00    -0.271 OA
ATOM     14  H2  UNL     1       1.748  17.210  17.484  1.00  0.00     0.162 HD
BRANCH  12  15
HETATM   15  C8  UNL     1       3.072  19.174  16.119  1.00  0.00     0.215 C 
HETATM   16  C9  UNL     1       3.649  20.072  17.184  1.00  0.00     0.042 C 
HETATM   17  C10 UNL     1       4.322  21.286  16.630  1.00  0.00     0.006 C 
HETATM   18  C11 UNL     1       5.108  21.055  15.387  1.00  0.00     0.048 C 
HETATM   19  C12 UNL     1       4.657  19.874  14.596  1.00  0.00     0.138 C 
HETATM   20  C13 UNL     1       5.523  18.659  14.809  1.00  0.00     0.056 C 
HETATM   21  O3  UNL     1       3.322  19.637  14.838  1.00  0.00    -0.356 OA
BRANCH  19  22
HETATM   22  C14 UNL     1       4.779  20.243  13.141  1.00  0.00     0.252 C 
HETATM   23  O2  UNL     1       3.811  20.925  12.705  1.00  0.00    -0.270 OA
HETATM   24  N3  UNL     1       5.869  19.859  12.357  1.00  0.00    -0.357 N 
ATOM     25  H3  UNL     1       6.619  19.310  12.777  1.00  0.00     0.162 HD
BRANCH  24  26
HETATM   26  C15 UNL     1       5.955  20.225  10.969  1.00  0.00     0.150 C 
BRANCH  26  27
HETATM   27  C16 UNL     1       5.519  19.130  10.038  1.00  0.00     0.255 C 
BRANCH  27  28
HETATM   28  N4  UNL     1       4.394  19.580   9.218  1.00  0.00    -0.077 N 
HETATM   29  C17 UNL     1       4.333  21.021   9.198  1.00  0.00     0.271 C 
HETATM   30  C18 UNL     1       4.555  19.147   7.831  1.00  0.00     0.271 C 
HETATM   31  C19 UNL     1       3.154  19.058   9.723  1.00  0.00     0.271 C 
ENDBRANCH  27  28
ENDBRANCH  26  27
ENDBRANCH  24  26
ENDBRANCH  19  22
ENDBRANCH  12  15
ENDBRANCH  10  11
ENDBRANCH   9  10
ENDBRANCH   5   9
BRANCH   6  32
HETATM   32  N5  UNL     1      -1.204  16.328  21.086  1.00  0.00    -0.050 N 
ATOM     33  H53 UNL     1      -1.704  15.439  21.079  1.00  0.00     0.276 HD
ATOM     34  H52 UNL     1      -0.244  15.990  21.139  1.00  0.00     0.276 HD
ATOM     35  H51 UNL     1      -1.439  16.859  21.925  1.00  0.00     0.276 HD
ENDBRANCH   6  32
BRANCH   8  36
HETATM   36  O4  UNL     1      -4.030  16.235  18.283  1.00  0.00    -0.369 OA
ATOM     37  H4  UNL     1      -4.211  15.876  17.423  1.00  0.00     0.212 HD
ENDBRANCH   8  36
ENDBRANCH   4   5
ENDBRANCH   3   4
TORSDOF 12
ENDMDL
