MODEL 1
REMARK VINA RESULT: -3.170637953      0.000      0.000
REMARK  0 active torsions:
REMARK  status: ('A' for Active; 'I' for Inactive)
ROOT
HETATM    1  C1  UNL     1      51.991  67.093 -30.571  1.00  0.00     0.081 C 
HETATM    2  S1  UNL     1      53.405  66.541 -29.649  1.00  0.00    -0.173 SA
HETATM    3  C2  UNL     1      53.092  65.697 -28.126  1.00  0.00     0.298 C 
HETATM    4  N1  UNL     1      54.231  66.422 -27.537  1.00  0.00    -0.060 N 
ATOM      5  H11 UNL     1      55.189  66.098 -27.670  1.00  0.00     0.278 HD
ATOM      6  H12 UNL     1      54.397  66.419 -26.531  1.00  0.00     0.278 HD
HETATM    7  C3  UNL     1      53.740  67.598 -28.212  1.00  0.00     0.298 C 
ENDROOT
TORSDOF 0
ENDMDL
MODEL 2
REMARK VINA RESULT: -3.119685463      1.789      2.060
REMARK  0 active torsions:
REMARK  status: ('A' for Active; 'I' for Inactive)
ROOT
HETATM    1  C1  UNL     1      52.381  69.663 -29.519  1.00  0.00     0.081 C 
HETATM    2  S1  UNL     1      53.287  68.192 -29.927  1.00  0.00    -0.173 SA
HETATM    3  C2  UNL     1      52.350  66.706 -30.142  1.00  0.00     0.298 C 
HETATM    4  N1  UNL     1      53.421  65.978 -29.438  1.00  0.00    -0.060 N 
ATOM      5  H11 UNL     1      54.262  65.672 -29.928  1.00  0.00     0.278 HD
ATOM      6  H12 UNL     1      53.287  65.018 -29.121  1.00  0.00     0.278 HD
HETATM    7  C3  UNL     1      53.457  67.077 -28.504  1.00  0.00     0.298 C 
ENDROOT
TORSDOF 0
ENDMDL
MODEL 3
REMARK VINA RESULT: -3.020400556      1.722      2.236
REMARK  0 active torsions:
REMARK  status: ('A' for Active; 'I' for Inactive)
ROOT
HETATM    1  C1  UNL     1      54.290  69.171 -29.442  1.00  0.00     0.081 C 
HETATM    2  S1  UNL     1      53.033  67.968 -29.089  1.00  0.00    -0.173 SA
HETATM    3  C2  UNL     1      53.533  66.518 -28.208  1.00  0.00     0.298 C 
HETATM    4  N1  UNL     1      52.648  65.730 -29.082  1.00  0.00    -0.060 N 
ATOM      5  H11 UNL     1      51.648  65.656 -28.894  1.00  0.00     0.278 HD
ATOM      6  H12 UNL     1      52.693  64.711 -29.101  1.00  0.00     0.278 HD
HETATM    7  C3  UNL     1      53.145  66.521 -30.181  1.00  0.00     0.298 C 
ENDROOT
TORSDOF 0
ENDMDL
MODEL 4
REMARK VINA RESULT: -2.995294240      1.686      2.120
REMARK  0 active torsions:
REMARK  status: ('A' for Active; 'I' for Inactive)
ROOT
HETATM    1  C1  UNL     1      53.104  69.238 -31.061  1.00  0.00     0.081 C 
HETATM    2  S1  UNL     1      52.665  68.028 -29.839  1.00  0.00    -0.173 SA
HETATM    3  C2  UNL     1      53.977  67.370 -28.852  1.00  0.00     0.298 C 
HETATM    4  N1  UNL     1      53.338  66.047 -28.957  1.00  0.00    -0.060 N 
ATOM      5  H11 UNL     1      52.569  65.781 -28.342  1.00  0.00     0.278 HD
ATOM      6  H12 UNL     1      53.826  65.199 -28.670  1.00  0.00     0.278 HD
HETATM    7  C3  UNL     1      53.112  66.345 -30.350  1.00  0.00     0.298 C 
ENDROOT
TORSDOF 0
ENDMDL
MODEL 5
REMARK VINA RESULT: -2.820120635      2.621      3.556
REMARK  0 active torsions:
REMARK  status: ('A' for Active; 'I' for Inactive)
ROOT
HETATM    1  C1  UNL     1      53.790  67.225 -28.468  1.00  0.00     0.081 C 
HETATM    2  S1  UNL     1      53.467  68.157 -29.944  1.00  0.00    -0.173 SA
HETATM    3  C2  UNL     1      52.086  69.262 -29.909  1.00  0.00     0.298 C 
HETATM    4  N1  UNL     1      51.774  68.851 -31.289  1.00  0.00    -0.060 N 
ATOM      5  H11 UNL     1      52.253  69.269 -32.086  1.00  0.00     0.278 HD
ATOM      6  H12 UNL     1      50.886  69.097 -31.726  1.00  0.00     0.278 HD
HETATM    7  C3  UNL     1      52.053  67.498 -30.874  1.00  0.00     0.298 C 
ENDROOT
TORSDOF 0
ENDMDL
