MODEL 1
REMARK VINA RESULT: -4.356614980      0.000      0.000
REMARK  1 active torsions:
REMARK  status: ('A' for Active; 'I' for Inactive)
REMARK    1  A    between atoms: C2_2  and  N1_3 
ROOT
HETATM    1  N1  UNL     1      52.827  69.033 -30.087  1.00  0.00    -0.055 N 
HETATM    2  C3  UNL     1      52.166  70.028 -29.224  1.00  0.00     0.273 C 
HETATM    3  C4  UNL     1      53.747  68.246 -29.474  1.00  0.00     0.248 A 
HETATM    4  C5  UNL     1      53.714  67.271 -28.370  1.00  0.00     0.268 C 
HETATM    5  N2  UNL     1      53.477  66.019 -29.118  1.00  0.00    -0.071 N 
ATOM      6  H21 UNL     1      52.856  65.367 -28.639  1.00  0.00     0.277 HD
ATOM      7  H22 UNL     1      54.290  65.406 -29.157  1.00  0.00     0.277 HD
HETATM    8  C6  UNL     1      52.985  66.440 -30.447  1.00  0.00     0.268 C 
HETATM    9  C7  UNL     1      52.398  67.749 -30.085  1.00  0.00     0.248 A 
ENDROOT
BRANCH   1  10
HETATM   10  C2  UNL     1      53.128  69.625 -31.389  1.00  0.00     0.234 C 
HETATM   11  C1  UNL     1      52.419  70.924 -31.611  1.00  0.00     0.035 C 
ENDBRANCH   1  10
TORSDOF 1
ENDMDL
MODEL 2
REMARK VINA RESULT: -4.306760042      0.519      1.885
REMARK  1 active torsions:
REMARK  status: ('A' for Active; 'I' for Inactive)
REMARK    1  A    between atoms: C2_2  and  N1_3 
ROOT
HETATM    1  N1  UNL     1      52.864  69.054 -29.977  1.00  0.00    -0.055 N 
HETATM    2  C3  UNL     1      53.123  69.605 -31.319  1.00  0.00     0.273 C 
HETATM    3  C4  UNL     1      52.378  67.788 -29.948  1.00  0.00     0.248 A 
HETATM    4  C5  UNL     1      52.869  66.472 -30.397  1.00  0.00     0.268 C 
HETATM    5  N2  UNL     1      53.540  65.999 -29.169  1.00  0.00    -0.071 N 
ATOM      6  H21 UNL     1      54.399  65.479 -29.345  1.00  0.00     0.277 HD
ATOM      7  H22 UNL     1      53.041  65.248 -28.693  1.00  0.00     0.277 HD
HETATM    8  C6  UNL     1      53.737  67.205 -28.335  1.00  0.00     0.268 C 
HETATM    9  C7  UNL     1      53.771  68.231 -29.400  1.00  0.00     0.248 A 
ENDROOT
BRANCH   1  10
HETATM   10  C2  UNL     1      52.269  70.082 -29.125  1.00  0.00     0.234 C 
HETATM   11  C1  UNL     1      51.265  70.922 -29.847  1.00  0.00     0.035 C 
ENDBRANCH   1  10
TORSDOF 1
ENDMDL
MODEL 3
REMARK VINA RESULT: -3.807772858      1.122      3.813
REMARK  1 active torsions:
REMARK  status: ('A' for Active; 'I' for Inactive)
REMARK    1  A    between atoms: C2_2  and  N1_3 
ROOT
HETATM    1  N1  UNL     1      52.929  68.254 -29.917  1.00  0.00    -0.055 N 
HETATM    2  C3  UNL     1      52.130  67.225 -30.607  1.00  0.00     0.273 C 
HETATM    3  C4  UNL     1      53.351  69.283 -30.693  1.00  0.00     0.248 A 
HETATM    4  C5  UNL     1      52.685  70.330 -31.489  1.00  0.00     0.268 C 
HETATM    5  N2  UNL     1      52.597  71.417 -30.492  1.00  0.00    -0.071 N 
ATOM      6  H21 UNL     1      51.734  71.957 -30.548  1.00  0.00     0.277 HD
ATOM      7  H22 UNL     1      53.236  72.191 -30.672  1.00  0.00     0.277 HD
HETATM    8  C6  UNL     1      52.806  70.767 -29.179  1.00  0.00     0.268 C 
HETATM    9  C7  UNL     1      52.340  69.402 -29.509  1.00  0.00     0.248 A 
ENDROOT
BRANCH   1  10
HETATM   10  C2  UNL     1      53.856  67.619 -28.982  1.00  0.00     0.234 C 
HETATM   11  C1  UNL     1      53.340  66.320 -28.450  1.00  0.00     0.035 C 
ENDBRANCH   1  10
TORSDOF 1
ENDMDL
MODEL 4
REMARK VINA RESULT: -3.767674213      1.046      2.084
REMARK  1 active torsions:
REMARK  status: ('A' for Active; 'I' for Inactive)
REMARK    1  A    between atoms: C2_2  and  N1_3 
ROOT
HETATM    1  N1  UNL     1      52.639  69.758 -30.251  1.00  0.00    -0.055 N 
HETATM    2  C3  UNL     1      52.683  70.478 -31.537  1.00  0.00     0.273 C 
HETATM    3  C4  UNL     1      52.105  68.512 -30.297  1.00  0.00     0.248 A 
HETATM    4  C5  UNL     1      52.445  67.257 -30.992  1.00  0.00     0.268 C 
HETATM    5  N2  UNL     1      53.299  66.606 -29.977  1.00  0.00    -0.071 N 
ATOM      6  H21 UNL     1      54.087  66.093 -30.372  1.00  0.00     0.277 HD
ATOM      7  H22 UNL     1      52.856  65.811 -29.518  1.00  0.00     0.277 HD
HETATM    8  C6  UNL     1      53.698  67.684 -29.046  1.00  0.00     0.268 C 
HETATM    9  C7  UNL     1      53.593  68.843 -29.959  1.00  0.00     0.248 A 
ENDROOT
BRANCH   1  10
HETATM   10  C2  UNL     1      52.255  70.676 -29.181  1.00  0.00     0.234 C 
HETATM   11  C1  UNL     1      52.738  72.072 -29.415  1.00  0.00     0.035 C 
ENDBRANCH   1  10
TORSDOF 1
ENDMDL
MODEL 5
REMARK VINA RESULT: -3.636044753      1.129      3.662
REMARK  1 active torsions:
REMARK  status: ('A' for Active; 'I' for Inactive)
REMARK    1  A    between atoms: C2_2  and  N1_3 
ROOT
HETATM    1  N1  UNL     1      52.912  68.653 -30.046  1.00  0.00    -0.055 N 
HETATM    2  C3  UNL     1      53.909  68.164 -29.077  1.00  0.00     0.273 C 
HETATM    3  C4  UNL     1      52.217  69.754 -29.666  1.00  0.00     0.248 A 
HETATM    4  C5  UNL     1      52.571  71.143 -29.325  1.00  0.00     0.268 C 
HETATM    5  N2  UNL     1      52.432  71.792 -30.645  1.00  0.00    -0.071 N 
ATOM      6  H21 UNL     1      53.133  72.511 -30.825  1.00  0.00     0.277 HD
ATOM      7  H22 UNL     1      51.616  72.398 -30.720  1.00  0.00     0.277 HD
HETATM    8  C6  UNL     1      52.446  70.689 -31.631  1.00  0.00     0.268 C 
HETATM    9  C7  UNL     1      53.218  69.688 -30.863  1.00  0.00     0.248 A 
ENDROOT
BRANCH   1  10
HETATM   10  C2  UNL     1      52.211  67.521 -30.650  1.00  0.00     0.234 C 
HETATM   11  C1  UNL     1      52.449  66.238 -29.921  1.00  0.00     0.035 C 
ENDBRANCH   1  10
TORSDOF 1
ENDMDL
