MODEL 1
REMARK VINA RESULT: -3.549051466      0.000      0.000
REMARK  0 active torsions:
REMARK  status: ('A' for Active; 'I' for Inactive)
ROOT
HETATM    1  C1  UNL     1      52.688  66.487 -30.154  1.00  0.00     0.030 C 
HETATM    2  C2  UNL     1      53.038  67.912 -30.389  1.00  0.00     0.104 C 
HETATM    3  C3  UNL     1      53.199  68.702 -29.082  1.00  0.00     0.052 C 
HETATM    4  C4  UNL     1      53.153  70.115 -29.680  1.00  0.00     0.261 C 
HETATM    5  N1  UNL     1      52.215  70.011 -30.774  1.00  0.00     0.003 N 
HETATM    6  C5  UNL     1      52.788  70.617 -31.965  1.00  0.00     0.296 C 
HETATM    7  C6  UNL     1      50.973  70.664 -30.382  1.00  0.00     0.296 C 
HETATM    8  N2  UNL     1      51.934  68.676 -30.977  1.00  0.00    -0.043 NA
ENDROOT
TORSDOF 0
ENDMDL
MODEL 2
REMARK VINA RESULT: -3.544102085      1.457      2.177
REMARK  0 active torsions:
REMARK  status: ('A' for Active; 'I' for Inactive)
ROOT
HETATM    1  C1  UNL     1      52.841  66.865 -29.920  1.00  0.00     0.030 C 
HETATM    2  C2  UNL     1      52.386  68.276 -30.022  1.00  0.00     0.104 C 
HETATM    3  C3  UNL     1      53.166  69.071 -31.079  1.00  0.00     0.052 C 
HETATM    4  C4  UNL     1      52.740  70.480 -30.645  1.00  0.00     0.261 C 
HETATM    5  N1  UNL     1      52.642  70.398 -29.206  1.00  0.00     0.003 N 
HETATM    6  C5  UNL     1      51.381  70.976 -28.771  1.00  0.00     0.296 C 
HETATM    7  C6  UNL     1      53.782  71.094 -28.625  1.00  0.00     0.296 C 
HETATM    8  N2  UNL     1      52.737  69.071 -28.842  1.00  0.00    -0.043 NA
ENDROOT
TORSDOF 0
ENDMDL
MODEL 3
REMARK VINA RESULT: -3.283956788      1.443      3.271
REMARK  0 active torsions:
REMARK  status: ('A' for Active; 'I' for Inactive)
ROOT
HETATM    1  C1  UNL     1      50.750  71.497 -29.090  1.00  0.00     0.030 C 
HETATM    2  C2  UNL     1      51.978  70.854 -29.627  1.00  0.00     0.104 C 
HETATM    3  C3  UNL     1      51.784  70.314 -31.052  1.00  0.00     0.052 C 
HETATM    4  C4  UNL     1      53.032  69.421 -31.113  1.00  0.00     0.261 C 
HETATM    5  N1  UNL     1      53.172  68.908 -29.770  1.00  0.00     0.003 N 
HETATM    6  C5  UNL     1      54.547  69.072 -29.327  1.00  0.00     0.296 C 
HETATM    7  C6  UNL     1      52.769  67.508 -29.766  1.00  0.00     0.296 C 
HETATM    8  N2  UNL     1      52.297  69.593 -28.952  1.00  0.00    -0.043 NA
ENDROOT
TORSDOF 0
ENDMDL
MODEL 4
REMARK VINA RESULT: -3.178314479      1.132      3.190
REMARK  0 active torsions:
REMARK  status: ('A' for Active; 'I' for Inactive)
ROOT
HETATM    1  C1  UNL     1      52.685  71.452 -32.688  1.00  0.00     0.030 C 
HETATM    2  C2  UNL     1      52.281  70.487 -31.634  1.00  0.00     0.104 C 
HETATM    3  C3  UNL     1      52.144  71.146 -30.253  1.00  0.00     0.052 C 
HETATM    4  C4  UNL     1      52.123  69.866 -29.406  1.00  0.00     0.261 C 
HETATM    5  N1  UNL     1      53.021  68.966 -30.093  1.00  0.00     0.003 N 
HETATM    6  C5  UNL     1      52.384  67.669 -30.250  1.00  0.00     0.296 C 
HETATM    7  C6  UNL     1      54.255  68.871 -29.325  1.00  0.00     0.296 C 
HETATM    8  N2  UNL     1      53.336  69.521 -31.316  1.00  0.00    -0.043 NA
ENDROOT
TORSDOF 0
ENDMDL
MODEL 5
REMARK VINA RESULT: -3.119761803      1.517      1.885
REMARK  0 active torsions:
REMARK  status: ('A' for Active; 'I' for Inactive)
ROOT
HETATM    1  C1  UNL     1      52.357  68.076 -30.789  1.00  0.00     0.030 C 
HETATM    2  C2  UNL     1      52.363  69.561 -30.844  1.00  0.00     0.104 C 
HETATM    3  C3  UNL     1      52.004  70.202 -29.496  1.00  0.00     0.052 C 
HETATM    4  C4  UNL     1      51.725  71.624 -30.003  1.00  0.00     0.261 C 
HETATM    5  N1  UNL     1      51.127  71.430 -31.303  1.00  0.00     0.003 N 
HETATM    6  C5  UNL     1      51.778  72.297 -32.272  1.00  0.00     0.296 C 
HETATM    7  C6  UNL     1      49.701  71.711 -31.202  1.00  0.00     0.296 C 
HETATM    8  N2  UNL     1      51.264  70.102 -31.648  1.00  0.00    -0.043 NA
ENDROOT
TORSDOF 0
ENDMDL
