MODEL 1
REMARK VINA RESULT: -3.769005967      0.000      0.000
REMARK  1 active torsions:
REMARK  status: ('A' for Active; 'I' for Inactive)
REMARK    1  A    between atoms: C2_2  and  N1_3 
ROOT
HETATM    1  N1  UNL     1      53.213  68.707 -29.686  1.00  0.00    -0.032 N 
HETATM    2  C3  UNL     1      52.938  67.365 -29.266  1.00  0.00     0.267 C 
HETATM    3  C4  UNL     1      53.045  66.542 -30.520  1.00  0.00     0.262 C 
HETATM    4  N2  UNL     1      52.833  67.475 -31.622  1.00  0.00    -0.042 N 
ATOM      5  H21 UNL     1      51.941  67.334 -32.096  1.00  0.00     0.279 HD
ATOM      6  H22 UNL     1      53.439  67.291 -32.422  1.00  0.00     0.279 HD
HETATM    7  C5  UNL     1      52.984  68.796 -31.100  1.00  0.00     0.413 A 
HETATM    8  C6  UNL     1      52.078  69.431 -30.167  1.00  0.00     0.303 A 
ENDROOT
BRANCH   1   9
HETATM    9  C2  UNL     1      54.345  69.431 -29.201  1.00  0.00     0.236 C 
HETATM   10  C1  UNL     1      54.003  70.536 -28.255  1.00  0.00     0.035 C 
ENDBRANCH   1   9
TORSDOF 1
ENDMDL
MODEL 2
REMARK VINA RESULT: -3.733848855      1.234      2.365
REMARK  1 active torsions:
REMARK  status: ('A' for Active; 'I' for Inactive)
REMARK    1  A    between atoms: C2_2  and  N1_3 
ROOT
HETATM    1  N1  UNL     1      52.939  68.843 -29.818  1.00  0.00    -0.032 N 
HETATM    2  C3  UNL     1      52.791  67.803 -30.793  1.00  0.00     0.267 C 
HETATM    3  C4  UNL     1      52.672  66.539 -29.989  1.00  0.00     0.262 C 
HETATM    4  N2  UNL     1      53.285  66.834 -28.698  1.00  0.00    -0.042 N 
ATOM      5  H21 UNL     1      54.174  66.352 -28.560  1.00  0.00     0.279 HD
ATOM      6  H22 UNL     1      52.784  66.416 -27.914  1.00  0.00     0.279 HD
HETATM    7  C5  UNL     1      53.399  68.254 -28.593  1.00  0.00     0.413 A 
HETATM    8  C6  UNL     1      54.282  69.079 -29.390  1.00  0.00     0.303 A 
ENDROOT
BRANCH   1   9
HETATM    9  C2  UNL     1      51.969  69.883 -29.672  1.00  0.00     0.236 C 
HETATM   10  C1  UNL     1      51.408  70.380 -30.964  1.00  0.00     0.035 C 
ENDBRANCH   1   9
TORSDOF 1
ENDMDL
MODEL 3
REMARK VINA RESULT: -3.703316238      1.090      2.986
REMARK  1 active torsions:
REMARK  status: ('A' for Active; 'I' for Inactive)
REMARK    1  A    between atoms: C2_2  and  N1_3 
ROOT
HETATM    1  N1  UNL     1      52.991  68.797 -30.425  1.00  0.00    -0.032 N 
HETATM    2  C3  UNL     1      54.024  68.967 -29.447  1.00  0.00     0.267 C 
HETATM    3  C4  UNL     1      53.370  69.727 -28.327  1.00  0.00     0.262 C 
HETATM    4  N2  UNL     1      52.225  70.403 -28.927  1.00  0.00    -0.042 N 
ATOM      5  H21 UNL     1      52.349  71.414 -28.992  1.00  0.00     0.279 HD
ATOM      6  H22 UNL     1      51.403  70.408 -28.322  1.00  0.00     0.279 HD
HETATM    7  C5  UNL     1      51.980  69.789 -30.193  1.00  0.00     0.413 A 
HETATM    8  C6  UNL     1      52.851  69.882 -31.345  1.00  0.00     0.303 A 
ENDROOT
BRANCH   1   9
HETATM    9  C2  UNL     1      52.508  67.504 -30.796  1.00  0.00     0.236 C 
HETATM   10  C1  UNL     1      53.048  66.389 -29.961  1.00  0.00     0.035 C 
ENDBRANCH   1   9
TORSDOF 1
ENDMDL
MODEL 4
REMARK VINA RESULT: -3.686342728      1.381      2.727
REMARK  1 active torsions:
REMARK  status: ('A' for Active; 'I' for Inactive)
REMARK    1  A    between atoms: C2_2  and  N1_3 
ROOT
HETATM    1  N1  UNL     1      53.290  67.636 -29.760  1.00  0.00    -0.032 N 
HETATM    2  C3  UNL     1      53.763  68.886 -30.275  1.00  0.00     0.267 C 
HETATM    3  C4  UNL     1      52.539  69.561 -30.827  1.00  0.00     0.262 C 
HETATM    4  N2  UNL     1      51.585  68.489 -31.092  1.00  0.00    -0.042 N 
ATOM      5  H21 UNL     1      51.441  68.322 -32.088  1.00  0.00     0.279 HD
ATOM      6  H22 UNL     1      50.625  68.743 -30.859  1.00  0.00     0.279 HD
HETATM    7  C5  UNL     1      52.039  67.329 -30.393  1.00  0.00     0.413 A 
HETATM    8  C6  UNL     1      53.231  66.575 -30.717  1.00  0.00     0.303 A 
ENDROOT
BRANCH   1   9
HETATM    9  C2  UNL     1      53.369  67.314 -28.370  1.00  0.00     0.236 C 
HETATM   10  C1  UNL     1      53.257  65.853 -28.075  1.00  0.00     0.035 C 
ENDBRANCH   1   9
TORSDOF 1
ENDMDL
MODEL 5
REMARK VINA RESULT: -3.476639242      1.438      2.307
REMARK  1 active torsions:
REMARK  status: ('A' for Active; 'I' for Inactive)
REMARK    1  A    between atoms: C2_2  and  N1_3 
ROOT
HETATM    1  N1  UNL     1      52.805  68.057 -30.296  1.00  0.00    -0.032 N 
HETATM    2  C3  UNL     1      52.914  68.308 -28.890  1.00  0.00     0.267 C 
HETATM    3  C4  UNL     1      53.781  67.195 -28.369  1.00  0.00     0.262 C 
HETATM    4  N2  UNL     1      53.665  66.116 -29.345  1.00  0.00    -0.042 N 
ATOM      5  H21 UNL     1      53.137  65.317 -28.994  1.00  0.00     0.279 HD
ATOM      6  H22 UNL     1      54.547  65.631 -29.509  1.00  0.00     0.279 HD
HETATM    7  C5  UNL     1      53.107  66.673 -30.535  1.00  0.00     0.413 A 
HETATM    8  C6  UNL     1      51.751  67.164 -30.668  1.00  0.00     0.303 A 
ENDROOT
BRANCH   1   9
HETATM    9  C2  UNL     1      53.316  68.972 -31.268  1.00  0.00     0.236 C 
HETATM   10  C1  UNL     1      52.596  70.280 -31.312  1.00  0.00     0.035 C 
ENDBRANCH   1   9
TORSDOF 1
ENDMDL
