MODEL 1
REMARK VINA RESULT: -3.805971316      0.000      0.000
REMARK  2 active torsions:
REMARK  status: ('A' for Active; 'I' for Inactive)
REMARK    1  A    between atoms: C2_2  and  N1_3 
REMARK    2  A    between atoms: N1_3  and  C5_6 
ROOT
HETATM    1  C5  UNL     1      52.572  67.882 -29.397  1.00  0.00     0.240 A 
HETATM    2  C6  UNL     1      53.571  66.911 -28.833  1.00  0.00     0.267 A 
HETATM    3  N2  UNL     1      53.387  65.980 -29.926  1.00  0.00    -0.071 N 
ATOM      4  H21 UNL     1      53.210  64.991 -29.746  1.00  0.00     0.277 HD
ATOM      5  H22 UNL     1      54.172  65.714 -30.522  1.00  0.00     0.277 HD
HETATM    6  C7  UNL     1      52.340  66.837 -30.424  1.00  0.00     0.267 A 
ENDROOT
BRANCH   1   7
HETATM    7  N1  UNL     1      53.061  69.150 -29.816  1.00  0.00    -0.068 N 
HETATM    8  C3  UNL     1      53.127  69.346 -31.229  1.00  0.00     0.272 C 
HETATM    9  C4  UNL     1      54.381  69.465 -29.259  1.00  0.00     0.272 C 
BRANCH   7  10
HETATM   10  C2  UNL     1      52.164  70.183 -29.282  1.00  0.00     0.232 C 
HETATM   11  C1  UNL     1      51.194  70.685 -30.287  1.00  0.00     0.035 C 
ENDBRANCH   7  10
ENDBRANCH   1   7
TORSDOF 2
ENDMDL
MODEL 2
REMARK VINA RESULT: -3.784154616      0.526      1.480
REMARK  2 active torsions:
REMARK  status: ('A' for Active; 'I' for Inactive)
REMARK    1  A    between atoms: C2_2  and  N1_3 
REMARK    2  A    between atoms: N1_3  and  C5_6 
ROOT
HETATM    1  C5  UNL     1      52.492  67.873 -29.526  1.00  0.00     0.240 A 
HETATM    2  C6  UNL     1      53.376  66.853 -28.864  1.00  0.00     0.267 A 
HETATM    3  N2  UNL     1      53.399  66.008 -30.040  1.00  0.00    -0.071 N 
ATOM      4  H21 UNL     1      53.196  65.011 -29.969  1.00  0.00     0.277 HD
ATOM      5  H22 UNL     1      54.280  65.781 -30.501  1.00  0.00     0.277 HD
HETATM    6  C7  UNL     1      52.456  66.910 -30.654  1.00  0.00     0.267 A 
ENDROOT
BRANCH   1   7
HETATM    7  N1  UNL     1      53.043  69.164 -29.753  1.00  0.00    -0.068 N 
HETATM    8  C3  UNL     1      54.363  69.366 -29.246  1.00  0.00     0.272 C 
HETATM    9  C4  UNL     1      52.196  70.245 -29.235  1.00  0.00     0.272 C 
BRANCH   7  10
HETATM   10  C2  UNL     1      53.103  69.387 -31.203  1.00  0.00     0.232 C 
HETATM   11  C1  UNL     1      52.518  70.687 -31.615  1.00  0.00     0.035 C 
ENDBRANCH   7  10
ENDBRANCH   1   7
TORSDOF 2
ENDMDL
MODEL 3
REMARK VINA RESULT: -3.704009241      0.491      1.823
REMARK  2 active torsions:
REMARK  status: ('A' for Active; 'I' for Inactive)
REMARK    1  A    between atoms: C2_2  and  N1_3 
REMARK    2  A    between atoms: N1_3  and  C5_6 
ROOT
HETATM    1  C5  UNL     1      52.537  67.880 -29.397  1.00  0.00     0.240 A 
HETATM    2  C6  UNL     1      53.598  66.940 -28.895  1.00  0.00     0.267 A 
HETATM    3  N2  UNL     1      53.419  66.033 -30.010  1.00  0.00    -0.071 N 
ATOM      4  H21 UNL     1      53.292  65.033 -29.854  1.00  0.00     0.277 HD
ATOM      5  H22 UNL     1      54.194  65.822 -30.639  1.00  0.00     0.277 HD
HETATM    6  C7  UNL     1      52.318  66.856 -30.447  1.00  0.00     0.267 A 
ENDROOT
BRANCH   1   7
HETATM    7  N1  UNL     1      52.954  69.180 -29.792  1.00  0.00    -0.068 N 
HETATM    8  C3  UNL     1      52.126  70.254 -29.343  1.00  0.00     0.272 C 
HETATM    9  C4  UNL     1      53.109  69.314 -31.245  1.00  0.00     0.272 C 
BRANCH   7  10
HETATM   10  C2  UNL     1      54.295  69.417 -29.241  1.00  0.00     0.232 C 
HETATM   11  C1  UNL     1      54.354  70.596 -28.342  1.00  0.00     0.035 C 
ENDBRANCH   7  10
ENDBRANCH   1   7
TORSDOF 2
ENDMDL
MODEL 4
REMARK VINA RESULT: -3.250144016      1.471      2.524
REMARK  2 active torsions:
REMARK  status: ('A' for Active; 'I' for Inactive)
REMARK    1  A    between atoms: C2_2  and  N1_3 
REMARK    2  A    between atoms: N1_3  and  C5_6 
ROOT
HETATM    1  C5  UNL     1      53.678  69.219 -29.775  1.00  0.00     0.240 A 
HETATM    2  C6  UNL     1      53.956  67.876 -29.158  1.00  0.00     0.267 A 
HETATM    3  N2  UNL     1      53.710  68.364 -27.818  1.00  0.00    -0.071 N 
ATOM      4  H21 UNL     1      54.378  68.188 -27.068  1.00  0.00     0.277 HD
ATOM      5  H22 UNL     1      52.977  67.952 -27.240  1.00  0.00     0.277 HD
HETATM    6  C7  UNL     1      53.555  69.685 -28.372  1.00  0.00     0.267 A 
ENDROOT
BRANCH   1   7
HETATM    7  N1  UNL     1      52.544  69.322 -30.627  1.00  0.00    -0.068 N 
HETATM    8  C3  UNL     1      51.462  70.101 -30.117  1.00  0.00     0.272 C 
HETATM    9  C4  UNL     1      52.006  68.015 -31.022  1.00  0.00     0.272 C 
BRANCH   7  10
HETATM   10  C2  UNL     1      52.972  69.954 -31.881  1.00  0.00     0.232 C 
HETATM   11  C1  UNL     1      52.456  71.337 -32.040  1.00  0.00     0.035 C 
ENDBRANCH   7  10
ENDBRANCH   1   7
TORSDOF 2
ENDMDL
MODEL 5
REMARK VINA RESULT: -3.224921845      1.520      2.359
REMARK  2 active torsions:
REMARK  status: ('A' for Active; 'I' for Inactive)
REMARK    1  A    between atoms: C2_2  and  N1_3 
REMARK    2  A    between atoms: N1_3  and  C5_6 
ROOT
HETATM    1  C5  UNL     1      53.086  69.415 -31.061  1.00  0.00     0.240 A 
HETATM    2  C6  UNL     1      52.266  68.196 -30.743  1.00  0.00     0.267 A 
HETATM    3  N2  UNL     1      52.919  68.005 -29.465  1.00  0.00    -0.071 N 
ATOM      4  H21 UNL     1      53.296  67.094 -29.203  1.00  0.00     0.277 HD
ATOM      5  H22 UNL     1      52.380  68.014 -28.599  1.00  0.00     0.277 HD
HETATM    6  C7  UNL     1      53.797  69.098 -29.799  1.00  0.00     0.267 A 
ENDROOT
BRANCH   1   7
HETATM    7  N1  UNL     1      52.397  70.655 -31.160  1.00  0.00    -0.068 N 
HETATM    8  C3  UNL     1      52.589  71.368 -32.382  1.00  0.00     0.272 C 
HETATM    9  C4  UNL     1      52.707  71.570 -30.055  1.00  0.00     0.272 C 
BRANCH   7  10
HETATM   10  C2  UNL     1      50.958  70.388 -31.043  1.00  0.00     0.232 C 
HETATM   11  C1  UNL     1      50.126  71.606 -31.209  1.00  0.00     0.035 C 
ENDBRANCH   7  10
ENDBRANCH   1   7
TORSDOF 2
ENDMDL
