MODEL 1
REMARK VINA RESULT: -7.061823522      0.000      0.000
REMARK  9 active torsions:
REMARK  status: ('A' for Active; 'I' for Inactive)
REMARK    1  A    between atoms: C6_6  and  C7_7 
REMARK    2  A    between atoms: C7_7  and  C8_8 
REMARK    3  A    between atoms: C8_8  and  N1_9 
REMARK       I    between atoms: N1_9  and  C9_10 
REMARK    4  A    between atoms: C9_10  and  C10_12 
REMARK    5  A    between atoms: C10_12  and  N2_13 
REMARK    6  A    between atoms: C17_21  and  O3_22 
REMARK    7  A    between atoms: C18_24  and  C19_25 
REMARK    8  A    between atoms: C19_25  and  N3_26 
REMARK    9  A    between atoms: N3_26  and  C20_28 
ROOT
HETATM    1  C1  UNL     1      -1.414  18.271  20.493  1.00  0.00     0.020 C 
HETATM    2  C2  UNL     1      -0.516  18.568  19.303  1.00  0.00     0.011 C 
HETATM    3  C3  UNL     1       0.704  17.713  19.423  1.00  0.00     0.095 C 
HETATM    4  C4  UNL     1       1.679  18.300  20.462  1.00  0.00     0.026 C 
HETATM    5  C5  UNL     1       2.211  19.563  19.824  1.00  0.00     0.009 C 
HETATM    6  C6  UNL     1       1.086  20.515  19.687  1.00  0.00     0.021 C 
HETATM    7  C14 UNL     1      -0.238  20.037  19.297  1.00  0.00     0.136 C 
HETATM    8  O2  UNL     1      -0.603  20.536  18.048  1.00  0.00    -0.384 OA
HETATM    9  C15 UNL     1      -1.681  19.749  17.664  1.00  0.00     0.176 C 
HETATM   10  C16 UNL     1      -1.142  18.351  17.978  1.00  0.00     0.051 C 
HETATM   11  C17 UNL     1      -2.213  17.317  17.926  1.00  0.00     0.131 C 
HETATM   12  C18 UNL     1      -1.622  16.034  17.427  1.00  0.00     0.041 C 
HETATM   13  C21 UNL     1      -1.614  15.060  18.560  1.00  0.00     0.111 C 
HETATM   14  C22 UNL     1      -0.409  15.281  19.380  1.00  0.00     0.218 C 
HETATM   15  O5  UNL     1      -0.065  14.214  19.945  1.00  0.00    -0.274 OA
HETATM   16  N4  UNL     1       0.465  16.342  19.712  1.00  0.00    -0.356 N 
ATOM     17  H4  UNL     1       1.157  16.012  20.385  1.00  0.00     0.162 HD
ENDROOT
BRANCH   6  18
HETATM   18  C7  UNL     1       1.493  21.739  18.916  1.00  0.00     0.067 C 
BRANCH  18  19
HETATM   19  C8  UNL     1       2.681  22.487  19.440  1.00  0.00     0.159 C 
BRANCH  19  20
HETATM   20  N1  UNL     1       3.779  22.356  18.626  1.00  0.00    -0.386 NA
HETATM   21  C9  UNL     1       4.876  22.225  17.812  1.00  0.00     0.317 C 
HETATM   22  O1  UNL     1       6.073  21.996  18.070  1.00  0.00    -0.255 OA
BRANCH  21  23
HETATM   23  C10 UNL     1       4.592  22.388  16.324  1.00  0.00     0.354 C 
BRANCH  23  24
HETATM   24  N2  UNL     1       4.444  21.131  15.662  1.00  0.00    -0.069 N 
HETATM   25  C11 UNL     1       3.910  21.432  14.322  1.00  0.00     0.272 C 
HETATM   26  C12 UNL     1       3.506  20.252  16.308  1.00  0.00     0.272 C 
HETATM   27  C13 UNL     1       5.731  20.478  15.451  1.00  0.00     0.272 C 
ENDBRANCH  23  24
ENDBRANCH  21  23
ENDBRANCH  19  20
ENDBRANCH  18  19
ENDBRANCH   6  18
BRANCH  11  28
HETATM   28  O3  UNL     1      -3.172  17.746  17.009  1.00  0.00    -0.395 OA
ATOM     29  H3  UNL     1      -3.758  17.018  16.842  1.00  0.00     0.210 HD
ENDBRANCH  11  28
BRANCH  12  30
HETATM   30  C19 UNL     1      -2.373  15.441  16.274  1.00  0.00     0.129 C 
BRANCH  30  31
HETATM   31  N3  UNL     1      -2.442  14.002  16.323  1.00  0.00    -0.368 N 
ATOM     32  H3  UNL     1      -3.163  13.534  16.873  1.00  0.00     0.161 HD
BRANCH  31  33
HETATM   33  C20 UNL     1      -1.490  13.249  15.592  1.00  0.00     0.348 C 
HETATM   34  O4  UNL     1      -0.727  12.443  16.183  1.00  0.00    -0.284 OA
ENDBRANCH  31  33
ENDBRANCH  30  31
ENDBRANCH  12  30
TORSDOF 9
ENDMDL
MODEL 2
REMARK VINA RESULT: -6.995624210      1.092      1.400
REMARK  9 active torsions:
REMARK  status: ('A' for Active; 'I' for Inactive)
REMARK    1  A    between atoms: C6_6  and  C7_7 
REMARK    2  A    between atoms: C7_7  and  C8_8 
REMARK    3  A    between atoms: C8_8  and  N1_9 
REMARK       I    between atoms: N1_9  and  C9_10 
REMARK    4  A    between atoms: C9_10  and  C10_12 
REMARK    5  A    between atoms: C10_12  and  N2_13 
REMARK    6  A    between atoms: C17_21  and  O3_22 
REMARK    7  A    between atoms: C18_24  and  C19_25 
REMARK    8  A    between atoms: C19_25  and  N3_26 
REMARK    9  A    between atoms: N3_26  and  C20_28 
ROOT
HETATM    1  C1  UNL     1      -1.441  18.140  20.665  1.00  0.00     0.020 C 
HETATM    2  C2  UNL     1      -0.585  18.512  19.465  1.00  0.00     0.011 C 
HETATM    3  C3  UNL     1       0.668  17.698  19.525  1.00  0.00     0.095 C 
HETATM    4  C4  UNL     1       1.647  18.282  20.561  1.00  0.00     0.026 C 
HETATM    5  C5  UNL     1       2.117  19.586  19.959  1.00  0.00     0.009 C 
HETATM    6  C6  UNL     1       0.957  20.501  19.883  1.00  0.00     0.021 C 
HETATM    7  C14 UNL     1      -0.359  19.990  19.508  1.00  0.00     0.136 C 
HETATM    8  O2  UNL     1      -0.772  20.520  18.287  1.00  0.00    -0.384 OA
HETATM    9  C15 UNL     1      -1.832  19.708  17.900  1.00  0.00     0.176 C 
HETATM   10  C16 UNL     1      -1.235  18.321  18.148  1.00  0.00     0.051 C 
HETATM   11  C17 UNL     1      -2.270  17.251  18.084  1.00  0.00     0.131 C 
HETATM   12  C18 UNL     1      -1.647  16.009  17.523  1.00  0.00     0.041 C 
HETATM   13  C21 UNL     1      -1.575  14.996  18.619  1.00  0.00     0.111 C 
HETATM   14  C22 UNL     1      -0.359  15.231  19.418  1.00  0.00     0.218 C 
HETATM   15  O5  UNL     1       0.037  14.157  19.934  1.00  0.00    -0.274 OA
HETATM   16  N4  UNL     1       0.485  16.310  19.768  1.00  0.00    -0.356 N 
ATOM     17  H4  UNL     1       1.205  15.981  20.412  1.00  0.00     0.162 HD
ENDROOT
BRANCH   6  18
HETATM   18  C7  UNL     1       1.300  21.766  19.149  1.00  0.00     0.067 C 
BRANCH  18  19
HETATM   19  C8  UNL     1       2.731  21.922  18.732  1.00  0.00     0.159 C 
BRANCH  19  20
HETATM   20  N1  UNL     1       2.909  21.704  17.389  1.00  0.00    -0.386 NA
HETATM   21  C9  UNL     1       3.086  21.487  16.045  1.00  0.00     0.317 C 
HETATM   22  O1  UNL     1       2.505  21.956  15.049  1.00  0.00    -0.255 OA
BRANCH  21  23
HETATM   23  C10 UNL     1       4.190  20.495  15.697  1.00  0.00     0.354 C 
BRANCH  23  24
HETATM   24  N2  UNL     1       5.338  21.138  15.142  1.00  0.00    -0.069 N 
HETATM   25  C11 UNL     1       6.469  20.219  15.360  1.00  0.00     0.272 C 
HETATM   26  C12 UNL     1       5.666  22.381  15.788  1.00  0.00     0.272 C 
HETATM   27  C13 UNL     1       5.217  21.301  13.697  1.00  0.00     0.272 C 
ENDBRANCH  23  24
ENDBRANCH  21  23
ENDBRANCH  19  20
ENDBRANCH  18  19
ENDBRANCH   6  18
BRANCH  11  28
HETATM   28  O3  UNL     1      -3.267  17.678  17.206  1.00  0.00    -0.395 OA
ATOM     29  H3  UNL     1      -3.456  16.960  16.614  1.00  0.00     0.210 HD
ENDBRANCH  11  28
BRANCH  12  30
HETATM   30  C19 UNL     1      -2.405  15.432  16.367  1.00  0.00     0.129 C 
BRANCH  30  31
HETATM   31  N3  UNL     1      -2.449  13.991  16.382  1.00  0.00    -0.368 N 
ATOM     32  H3  UNL     1      -3.186  13.498  16.887  1.00  0.00     0.161 HD
BRANCH  31  33
HETATM   33  C20 UNL     1      -1.449  13.272  15.681  1.00  0.00     0.348 C 
HETATM   34  O4  UNL     1      -0.704  12.463  16.290  1.00  0.00    -0.284 OA
ENDBRANCH  31  33
ENDBRANCH  30  31
ENDBRANCH  12  30
TORSDOF 9
ENDMDL
MODEL 3
REMARK VINA RESULT: -6.961631130      1.135      1.554
REMARK  9 active torsions:
REMARK  status: ('A' for Active; 'I' for Inactive)
REMARK    1  A    between atoms: C6_6  and  C7_7 
REMARK    2  A    between atoms: C7_7  and  C8_8 
REMARK    3  A    between atoms: C8_8  and  N1_9 
REMARK       I    between atoms: N1_9  and  C9_10 
REMARK    4  A    between atoms: C9_10  and  C10_12 
REMARK    5  A    between atoms: C10_12  and  N2_13 
REMARK    6  A    between atoms: C17_21  and  O3_22 
REMARK    7  A    between atoms: C18_24  and  C19_25 
REMARK    8  A    between atoms: C19_25  and  N3_26 
REMARK    9  A    between atoms: N3_26  and  C20_28 
ROOT
HETATM    1  C1  UNL     1      -1.502  18.287  20.475  1.00  0.00     0.020 C 
HETATM    2  C2  UNL     1      -0.507  18.502  19.347  1.00  0.00     0.011 C 
HETATM    3  C3  UNL     1       0.635  17.560  19.556  1.00  0.00     0.095 C 
HETATM    4  C4  UNL     1       1.579  18.085  20.653  1.00  0.00     0.026 C 
HETATM    5  C5  UNL     1       2.246  19.298  20.045  1.00  0.00     0.009 C 
HETATM    6  C6  UNL     1       1.208  20.329  19.826  1.00  0.00     0.021 C 
HETATM    7  C14 UNL     1      -0.119  19.946  19.351  1.00  0.00     0.136 C 
HETATM    8  O2  UNL     1      -0.361  20.456  18.076  1.00  0.00    -0.384 OA
HETATM    9  C15 UNL     1      -1.468  19.747  17.626  1.00  0.00     0.176 C 
HETATM   10  C16 UNL     1      -1.057  18.317  17.984  1.00  0.00     0.051 C 
HETATM   11  C17 UNL     1      -2.197  17.365  17.867  1.00  0.00     0.131 C 
HETATM   12  C18 UNL     1      -1.671  16.035  17.417  1.00  0.00     0.041 C 
HETATM   13  C21 UNL     1      -1.812  15.077  18.555  1.00  0.00     0.111 C 
HETATM   14  C22 UNL     1      -0.652  15.218  19.453  1.00  0.00     0.218 C 
HETATM   15  O5  UNL     1      -0.427  14.134  20.047  1.00  0.00    -0.274 OA
HETATM   16  N4  UNL     1       0.275  16.214  19.836  1.00  0.00    -0.356 N 
ATOM     17  H4  UNL     1       0.894  15.842  20.557  1.00  0.00     0.162 HD
ENDROOT
BRANCH   6  18
HETATM   18  C7  UNL     1       1.756  21.510  19.076  1.00  0.00     0.067 C 
BRANCH  18  19
HETATM   19  C8  UNL     1       3.231  21.499  18.810  1.00  0.00     0.159 C 
BRANCH  19  20
HETATM   20  N1  UNL     1       3.529  21.037  17.553  1.00  0.00    -0.386 NA
HETATM   21  C9  UNL     1       3.828  20.574  16.295  1.00  0.00     0.317 C 
HETATM   22  O1  UNL     1       4.916  20.332  15.742  1.00  0.00    -0.255 OA
BRANCH  21  23
HETATM   23  C10 UNL     1       2.618  20.308  15.408  1.00  0.00     0.354 C 
BRANCH  23  24
HETATM   24  N2  UNL     1       2.195  21.479  14.708  1.00  0.00    -0.069 N 
HETATM   25  C11 UNL     1       1.939  21.058  13.319  1.00  0.00     0.272 C 
HETATM   26  C12 UNL     1       3.195  22.512  14.663  1.00  0.00     0.272 C 
HETATM   27  C13 UNL     1       0.926  21.984  15.221  1.00  0.00     0.272 C 
ENDBRANCH  23  24
ENDBRANCH  21  23
ENDBRANCH  19  20
ENDBRANCH  18  19
ENDBRANCH   6  18
BRANCH  11  28
HETATM   28  O3  UNL     1      -3.057  17.853  16.884  1.00  0.00    -0.395 OA
ATOM     29  H3  UNL     1      -2.562  17.926  16.077  1.00  0.00     0.210 HD
ENDBRANCH  11  28
BRANCH  12  30
HETATM   30  C19 UNL     1      -2.386  15.487  16.220  1.00  0.00     0.129 C 
BRANCH  30  31
HETATM   31  N3  UNL     1      -2.486  14.049  16.230  1.00  0.00    -0.368 N 
ATOM     32  H3  UNL     1      -3.271  13.586  16.689  1.00  0.00     0.161 HD
BRANCH  31  33
HETATM   33  C20 UNL     1      -1.474  13.291  15.591  1.00  0.00     0.348 C 
HETATM   34  O4  UNL     1      -0.754  12.505  16.256  1.00  0.00    -0.284 OA
ENDBRANCH  31  33
ENDBRANCH  30  31
ENDBRANCH  12  30
TORSDOF 9
ENDMDL
MODEL 4
REMARK VINA RESULT: -6.913911788      2.124      3.011
REMARK  9 active torsions:
REMARK  status: ('A' for Active; 'I' for Inactive)
REMARK    1  A    between atoms: C6_6  and  C7_7 
REMARK    2  A    between atoms: C7_7  and  C8_8 
REMARK    3  A    between atoms: C8_8  and  N1_9 
REMARK       I    between atoms: N1_9  and  C9_10 
REMARK    4  A    between atoms: C9_10  and  C10_12 
REMARK    5  A    between atoms: C10_12  and  N2_13 
REMARK    6  A    between atoms: C17_21  and  O3_22 
REMARK    7  A    between atoms: C18_24  and  C19_25 
REMARK    8  A    between atoms: C19_25  and  N3_26 
REMARK    9  A    between atoms: N3_26  and  C20_28 
ROOT
HETATM    1  C1  UNL     1       0.411  20.988  20.020  1.00  0.00     0.020 C 
HETATM    2  C2  UNL     1       1.609  20.158  19.589  1.00  0.00     0.011 C 
HETATM    3  C3  UNL     1       2.212  19.549  20.815  1.00  0.00     0.095 C 
HETATM    4  C4  UNL     1       3.051  20.588  21.580  1.00  0.00     0.026 C 
HETATM    5  C5  UNL     1       4.254  20.840  20.700  1.00  0.00     0.009 C 
HETATM    6  C6  UNL     1       3.783  21.485  19.454  1.00  0.00     0.021 C 
HETATM    7  C14 UNL     1       2.535  21.054  18.830  1.00  0.00     0.136 C 
HETATM    8  O2  UNL     1       2.773  20.467  17.588  1.00  0.00    -0.384 OA
HETATM    9  C15 UNL     1       1.587  19.812  17.283  1.00  0.00     0.176 C 
HETATM   10  C16 UNL     1       1.309  19.091  18.605  1.00  0.00     0.051 C 
HETATM   11  C17 UNL     1      -0.070  18.530  18.654  1.00  0.00     0.131 C 
HETATM   12  C18 UNL     1      -0.046  17.258  19.446  1.00  0.00     0.041 C 
HETATM   13  C21 UNL     1      -0.779  17.499  20.725  1.00  0.00     0.111 C 
HETATM   14  C22 UNL     1       0.139  18.110  21.702  1.00  0.00     0.218 C 
HETATM   15  O5  UNL     1      -0.211  17.815  22.872  1.00  0.00    -0.274 OA
HETATM   16  N4  UNL     1       1.294  18.926  21.703  1.00  0.00    -0.356 N 
ATOM     17  H4  UNL     1       1.557  19.140  22.666  1.00  0.00     0.162 HD
ENDROOT
BRANCH   6  18
HETATM   18  C7  UNL     1       4.894  21.626  18.453  1.00  0.00     0.067 C 
BRANCH  18  19
HETATM   19  C8  UNL     1       5.281  23.027  18.086  1.00  0.00     0.159 C 
BRANCH  19  20
HETATM   20  N1  UNL     1       5.164  23.264  16.740  1.00  0.00    -0.386 NA
HETATM   21  C9  UNL     1       5.047  23.500  15.392  1.00  0.00     0.317 C 
HETATM   22  O1  UNL     1       4.279  24.237  14.747  1.00  0.00    -0.255 OA
BRANCH  21  23
HETATM   23  C10 UNL     1       6.028  22.726  14.519  1.00  0.00     0.354 C 
BRANCH  23  24
HETATM   24  N2  UNL     1       5.582  21.396  14.256  1.00  0.00    -0.069 N 
HETATM   25  C11 UNL     1       5.906  21.124  12.844  1.00  0.00     0.272 C 
HETATM   26  C12 UNL     1       4.161  21.229  14.407  1.00  0.00     0.272 C 
HETATM   27  C13 UNL     1       6.323  20.414  15.041  1.00  0.00     0.272 C 
ENDBRANCH  23  24
ENDBRANCH  21  23
ENDBRANCH  19  20
ENDBRANCH  18  19
ENDBRANCH   6  18
BRANCH  11  28
HETATM   28  O3  UNL     1      -0.451  18.228  17.347  1.00  0.00    -0.395 OA
ATOM     29  H3  UNL     1       0.246  17.716  16.955  1.00  0.00     0.210 HD
ENDBRANCH  11  28
BRANCH  12  30
HETATM   30  C19 UNL     1      -0.671  16.100  18.730  1.00  0.00     0.129 C 
BRANCH  30  31
HETATM   31  N3  UNL     1      -0.209  14.821  19.210  1.00  0.00    -0.368 N 
ATOM     32  H3  UNL     1       0.336  14.755  20.070  1.00  0.00     0.161 HD
BRANCH  31  33
HETATM   33  C20 UNL     1      -0.526  13.659  18.465  1.00  0.00     0.348 C 
HETATM   34  O4  UNL     1      -1.710  13.238  18.418  1.00  0.00    -0.284 OA
ENDBRANCH  31  33
ENDBRANCH  30  31
ENDBRANCH  12  30
TORSDOF 9
ENDMDL
MODEL 5
REMARK VINA RESULT: -6.847784115      1.296      2.513
REMARK  9 active torsions:
REMARK  status: ('A' for Active; 'I' for Inactive)
REMARK    1  A    between atoms: C6_6  and  C7_7 
REMARK    2  A    between atoms: C7_7  and  C8_8 
REMARK    3  A    between atoms: C8_8  and  N1_9 
REMARK       I    between atoms: N1_9  and  C9_10 
REMARK    4  A    between atoms: C9_10  and  C10_12 
REMARK    5  A    between atoms: C10_12  and  N2_13 
REMARK    6  A    between atoms: C17_21  and  O3_22 
REMARK    7  A    between atoms: C18_24  and  C19_25 
REMARK    8  A    between atoms: C19_25  and  N3_26 
REMARK    9  A    between atoms: N3_26  and  C20_28 
ROOT
HETATM    1  C1  UNL     1      -1.527  18.223  20.444  1.00  0.00     0.020 C 
HETATM    2  C2  UNL     1      -0.573  18.465  19.285  1.00  0.00     0.011 C 
HETATM    3  C3  UNL     1       0.608  17.565  19.467  1.00  0.00     0.095 C 
HETATM    4  C4  UNL     1       1.564  18.132  20.533  1.00  0.00     0.026 C 
HETATM    5  C5  UNL     1       2.169  19.363  19.897  1.00  0.00     0.009 C 
HETATM    6  C6  UNL     1       1.088  20.355  19.700  1.00  0.00     0.021 C 
HETATM    7  C14 UNL     1      -0.237  19.922  19.267  1.00  0.00     0.136 C 
HETATM    8  O2  UNL     1      -0.534  20.412  17.997  1.00  0.00    -0.384 OA
HETATM    9  C15 UNL     1      -1.627  19.660  17.584  1.00  0.00     0.176 C 
HETATM   10  C16 UNL     1      -1.155  18.248  17.940  1.00  0.00     0.051 C 
HETATM   11  C17 UNL     1      -2.263  17.255  17.864  1.00  0.00     0.131 C 
HETATM   12  C18 UNL     1      -1.704  15.942  17.408  1.00  0.00     0.041 C 
HETATM   13  C21 UNL     1      -1.777  14.989  18.556  1.00  0.00     0.111 C 
HETATM   14  C22 UNL     1      -0.597  15.178  19.419  1.00  0.00     0.218 C 
HETATM   15  O5  UNL     1      -0.316  14.108  20.014  1.00  0.00    -0.274 OA
HETATM   16  N4  UNL     1       0.305  16.210  19.768  1.00  0.00    -0.356 N 
ATOM     17  H4  UNL     1       0.957  15.865  20.473  1.00  0.00     0.162 HD
ENDROOT
BRANCH   6  18
HETATM   18  C7  UNL     1       1.572  21.549  18.927  1.00  0.00     0.067 C 
BRANCH  18  19
HETATM   19  C8  UNL     1       2.643  21.289  17.911  1.00  0.00     0.159 C 
BRANCH  19  20
HETATM   20  N1  UNL     1       3.881  21.691  18.346  1.00  0.00    -0.386 NA
HETATM   21  C9  UNL     1       5.119  22.094  18.782  1.00  0.00     0.317 C 
HETATM   22  O1  UNL     1       6.084  22.598  18.178  1.00  0.00    -0.255 OA
BRANCH  21  23
HETATM   23  C10 UNL     1       5.371  21.890  20.271  1.00  0.00     0.354 C 
BRANCH  23  24
HETATM   24  N2  UNL     1       4.862  22.969  21.057  1.00  0.00    -0.069 N 
HETATM   25  C11 UNL     1       3.777  22.404  21.878  1.00  0.00     0.272 C 
HETATM   26  C12 UNL     1       4.294  24.031  20.270  1.00  0.00     0.272 C 
HETATM   27  C13 UNL     1       5.862  23.472  21.992  1.00  0.00     0.272 C 
ENDBRANCH  23  24
ENDBRANCH  21  23
ENDBRANCH  19  20
ENDBRANCH  18  19
ENDBRANCH   6  18
BRANCH  11  28
HETATM   28  O3  UNL     1      -3.169  17.705  16.903  1.00  0.00    -0.395 OA
ATOM     29  H3  UNL     1      -2.961  17.270  16.085  1.00  0.00     0.210 HD
ENDBRANCH  11  28
BRANCH  12  30
HETATM   30  C19 UNL     1      -2.433  15.358  16.237  1.00  0.00     0.129 C 
BRANCH  30  31
HETATM   31  N3  UNL     1      -2.457  13.917  16.245  1.00  0.00    -0.368 N 
ATOM     32  H3  UNL     1      -3.220  13.413  16.699  1.00  0.00     0.161 HD
BRANCH  31  33
HETATM   33  C20 UNL     1      -1.403  13.214  15.613  1.00  0.00     0.348 C 
HETATM   34  O4  UNL     1      -0.660  12.449  16.279  1.00  0.00    -0.284 OA
ENDBRANCH  31  33
ENDBRANCH  30  31
ENDBRANCH  12  30
TORSDOF 9
ENDMDL
