MODEL 1
REMARK VINA RESULT: -7.534644443      0.000      0.000
REMARK  9 active torsions:
REMARK  status: ('A' for Active; 'I' for Inactive)
REMARK       I    between atoms: N3_4  and  C2_6 
REMARK    1  A    between atoms: C2_6  and  C3_8 
REMARK       I    between atoms: N4_12  and  C7_13 
REMARK    2  A    between atoms: C7_13  and  C8_15 
REMARK    3  A    between atoms: C8_15  and  N5_16 
REMARK       I    between atoms: N5_16  and  C9_18 
REMARK    4  A    between atoms: C9_18  and  C10_20 
REMARK       I    between atoms: N6_24  and  C14_25 
REMARK    5  A    between atoms: C14_25  and  C15_27 
REMARK    6  A    between atoms: C15_27  and  C16_28 
REMARK    7  A    between atoms: C16_28  and  C17_29 
REMARK    8  A    between atoms: C17_29  and  C18_30 
REMARK    9  A    between atoms: C18_30  and  C19_31 
ROOT
HETATM    1  N5  UNL     1       1.179  19.511  21.092  1.00  0.00    -0.351 N 
ATOM      2  H5  UNL     1       1.295  19.012  20.211  1.00  0.00     0.163 HD
HETATM    3  C9  UNL     1       2.305  20.192  21.610  1.00  0.00     0.241 C 
HETATM    4  O3  UNL     1       2.193  20.811  22.695  1.00  0.00    -0.271 OA
ENDROOT
BRANCH   1   5
HETATM    5  C8  UNL     1      -0.116  19.466  21.711  1.00  0.00     0.225 C 
BRANCH   5   6
HETATM    6  C7  UNL     1      -0.876  18.224  21.377  1.00  0.00     0.238 C 
HETATM    7  N4  UNL     1      -1.376  18.005  20.070  1.00  0.00    -0.337 N 
HETATM    8  C3  UNL     1      -2.116  16.851  19.637  1.00  0.00     0.179 C 
HETATM    9  C6  UNL     1      -1.231  18.893  18.965  1.00  0.00     0.127 C 
HETATM   10  C4  UNL     1      -3.093  17.396  18.641  1.00  0.00     0.037 C 
HETATM   11  C5  UNL     1      -2.446  18.643  18.130  1.00  0.00     0.022 C 
HETATM   12  O2  UNL     1      -1.083  17.355  22.255  1.00  0.00    -0.272 OA
BRANCH   8  13
HETATM   13  C2  UNL     1      -1.249  15.836  18.980  1.00  0.00     0.246 C 
HETATM   14  N3  UNL     1      -1.420  15.323  17.690  1.00  0.00    -0.302 N 
HETATM   15  C1  UNL     1      -1.589  14.116  17.338  1.00  0.00     0.203 C 
ATOM     16  H3  UNL     1      -1.408  16.008  16.936  1.00  0.00     0.171 HD
HETATM   17  N1  UNL     1      -1.630  13.044  18.259  1.00  0.00    -0.066 NA
HETATM   18  N2  UNL     1      -1.736  13.864  15.926  1.00  0.00    -0.066 NA
HETATM   19  O1  UNL     1      -0.267  15.408  19.666  1.00  0.00    -0.271 OA
ENDBRANCH   8  13
ENDBRANCH   5   6
ENDBRANCH   1   5
BRANCH   3  20
HETATM   20  C10 UNL     1       3.587  20.165  20.870  1.00  0.00     0.179 C 
HETATM   21  C11 UNL     1       4.658  20.721  21.818  1.00  0.00     0.037 C 
HETATM   22  C12 UNL     1       5.209  21.935  21.088  1.00  0.00     0.022 C 
HETATM   23  C13 UNL     1       4.003  22.333  20.238  1.00  0.00     0.127 C 
HETATM   24  N6  UNL     1       3.590  21.050  19.737  1.00  0.00    -0.339 N 
HETATM   25  C14 UNL     1       3.259  20.736  18.399  1.00  0.00     0.220 C 
HETATM   26  O4  UNL     1       2.906  19.567  18.073  1.00  0.00    -0.273 OA
BRANCH  25  27
HETATM   27  C15 UNL     1       3.308  21.750  17.326  1.00  0.00     0.103 C 
BRANCH  27  28
HETATM   28  C16 UNL     1       4.566  21.801  16.542  1.00  0.00     0.010 C 
BRANCH  28  29
HETATM   29  C17 UNL     1       4.770  20.702  15.552  1.00  0.00     0.011 C 
BRANCH  29  30
HETATM   30  C18 UNL     1       6.219  20.265  15.436  1.00  0.00     0.113 C 
BRANCH  30  31
HETATM   31  C19 UNL     1       6.627  20.337  14.021  1.00  0.00     0.172 C 
HETATM   32  O5  UNL     1       7.662  19.828  13.552  1.00  0.00    -0.648 OA
HETATM   33  O6  UNL     1       5.785  21.032  13.136  1.00  0.00    -0.648 OA
ENDBRANCH  30  31
ENDBRANCH  29  30
ENDBRANCH  28  29
ENDBRANCH  27  28
ENDBRANCH  25  27
ENDBRANCH   3  20
TORSDOF 9
ENDMDL
MODEL 2
REMARK VINA RESULT: -7.391690077      1.787      2.588
REMARK  9 active torsions:
REMARK  status: ('A' for Active; 'I' for Inactive)
REMARK       I    between atoms: N3_4  and  C2_6 
REMARK    1  A    between atoms: C2_6  and  C3_8 
REMARK       I    between atoms: N4_12  and  C7_13 
REMARK    2  A    between atoms: C7_13  and  C8_15 
REMARK    3  A    between atoms: C8_15  and  N5_16 
REMARK       I    between atoms: N5_16  and  C9_18 
REMARK    4  A    between atoms: C9_18  and  C10_20 
REMARK       I    between atoms: N6_24  and  C14_25 
REMARK    5  A    between atoms: C14_25  and  C15_27 
REMARK    6  A    between atoms: C15_27  and  C16_28 
REMARK    7  A    between atoms: C16_28  and  C17_29 
REMARK    8  A    between atoms: C17_29  and  C18_30 
REMARK    9  A    between atoms: C18_30  and  C19_31 
ROOT
HETATM    1  N5  UNL     1       2.273  19.780  19.822  1.00  0.00    -0.351 N 
ATOM      2  H5  UNL     1       1.531  20.054  19.178  1.00  0.00     0.163 HD
HETATM    3  C9  UNL     1       3.375  20.656  19.958  1.00  0.00     0.241 C 
HETATM    4  O3  UNL     1       4.304  20.344  20.741  1.00  0.00    -0.271 OA
ENDROOT
BRANCH   1   5
HETATM    5  C8  UNL     1       2.116  18.535  20.520  1.00  0.00     0.225 C 
BRANCH   5   6
HETATM    6  C7  UNL     1       0.692  18.233  20.856  1.00  0.00     0.238 C 
HETATM    7  N4  UNL     1      -0.354  18.562  19.959  1.00  0.00    -0.337 N 
HETATM    8  C3  UNL     1      -1.754  18.317  20.176  1.00  0.00     0.179 C 
HETATM    9  C6  UNL     1      -0.194  19.193  18.692  1.00  0.00     0.127 C 
HETATM   10  C4  UNL     1      -2.433  19.488  19.536  1.00  0.00     0.037 C 
HETATM   11  C5  UNL     1      -1.465  19.958  18.499  1.00  0.00     0.022 C 
HETATM   12  O2  UNL     1       0.403  17.680  21.942  1.00  0.00    -0.272 OA
BRANCH   8  13
HETATM   13  C2  UNL     1      -2.215  17.058  19.530  1.00  0.00     0.246 C 
HETATM   14  N3  UNL     1      -1.482  15.872  19.430  1.00  0.00    -0.302 N 
HETATM   15  C1  UNL     1      -1.138  15.243  18.383  1.00  0.00     0.203 C 
ATOM     16  H3  UNL     1      -1.185  15.459  20.313  1.00  0.00     0.171 HD
HETATM   17  N1  UNL     1      -1.469  15.678  17.079  1.00  0.00    -0.066 NA
HETATM   18  N2  UNL     1      -0.382  14.029  18.571  1.00  0.00    -0.066 NA
HETATM   19  O1  UNL     1      -3.383  17.081  19.028  1.00  0.00    -0.271 OA
ENDBRANCH   8  13
ENDBRANCH   5   6
ENDBRANCH   1   5
BRANCH   3  20
HETATM   20  C10 UNL     1       3.414  21.917  19.183  1.00  0.00     0.179 C 
HETATM   21  C11 UNL     1       1.959  22.371  19.001  1.00  0.00     0.037 C 
HETATM   22  C12 UNL     1       1.766  22.413  17.495  1.00  0.00     0.022 C 
HETATM   23  C13 UNL     1       2.786  21.368  17.043  1.00  0.00     0.127 C 
HETATM   24  N6  UNL     1       3.919  21.731  17.850  1.00  0.00    -0.339 N 
HETATM   25  C14 UNL     1       5.254  21.874  17.408  1.00  0.00     0.220 C 
HETATM   26  O4  UNL     1       6.175  22.197  18.212  1.00  0.00    -0.273 OA
BRANCH  25  27
HETATM   27  C15 UNL     1       5.637  21.653  15.998  1.00  0.00     0.103 C 
BRANCH  27  28
HETATM   28  C16 UNL     1       5.830  20.240  15.594  1.00  0.00     0.010 C 
BRANCH  28  29
HETATM   29  C17 UNL     1       6.911  19.982  14.598  1.00  0.00     0.011 C 
BRANCH  29  30
HETATM   30  C18 UNL     1       6.675  20.675  13.268  1.00  0.00     0.113 C 
BRANCH  30  31
HETATM   31  C19 UNL     1       7.783  20.342  12.353  1.00  0.00     0.172 C 
HETATM   32  O5  UNL     1       8.947  20.081  12.711  1.00  0.00    -0.648 OA
HETATM   33  O6  UNL     1       7.505  20.316  10.975  1.00  0.00    -0.648 OA
ENDBRANCH  30  31
ENDBRANCH  29  30
ENDBRANCH  28  29
ENDBRANCH  27  28
ENDBRANCH  25  27
ENDBRANCH   3  20
TORSDOF 9
ENDMDL
MODEL 3
REMARK VINA RESULT: -7.160789386      5.006      7.715
REMARK  9 active torsions:
REMARK  status: ('A' for Active; 'I' for Inactive)
REMARK       I    between atoms: N3_4  and  C2_6 
REMARK    1  A    between atoms: C2_6  and  C3_8 
REMARK       I    between atoms: N4_12  and  C7_13 
REMARK    2  A    between atoms: C7_13  and  C8_15 
REMARK    3  A    between atoms: C8_15  and  N5_16 
REMARK       I    between atoms: N5_16  and  C9_18 
REMARK    4  A    between atoms: C9_18  and  C10_20 
REMARK       I    between atoms: N6_24  and  C14_25 
REMARK    5  A    between atoms: C14_25  and  C15_27 
REMARK    6  A    between atoms: C15_27  and  C16_28 
REMARK    7  A    between atoms: C16_28  and  C17_29 
REMARK    8  A    between atoms: C17_29  and  C18_30 
REMARK    9  A    between atoms: C18_30  and  C19_31 
ROOT
HETATM    1  N5  UNL     1      -2.809  19.453  20.104  1.00  0.00    -0.351 N 
ATOM      2  H5  UNL     1      -2.983  18.449  20.051  1.00  0.00     0.163 HD
HETATM    3  C9  UNL     1      -1.609  19.875  20.721  1.00  0.00     0.241 C 
HETATM    4  O3  UNL     1      -1.369  21.103  20.805  1.00  0.00    -0.271 OA
ENDROOT
BRANCH   1   5
HETATM    5  C8  UNL     1      -3.802  20.326  19.546  1.00  0.00     0.225 C 
BRANCH   5   6
HETATM    6  C7  UNL     1      -5.011  19.596  19.059  1.00  0.00     0.238 C 
HETATM    7  N4  UNL     1      -6.303  19.920  19.544  1.00  0.00    -0.337 N 
HETATM    8  C3  UNL     1      -7.531  19.286  19.147  1.00  0.00     0.179 C 
HETATM    9  C6  UNL     1      -6.600  20.925  20.508  1.00  0.00     0.127 C 
HETATM   10  C4  UNL     1      -8.358  19.279  20.395  1.00  0.00     0.037 C 
HETATM   11  C5  UNL     1      -7.826  20.419  21.201  1.00  0.00     0.022 C 
HETATM   12  O2  UNL     1      -4.897  18.681  18.211  1.00  0.00    -0.272 OA
BRANCH   8  13
HETATM   13  C2  UNL     1      -8.241  20.047  18.083  1.00  0.00     0.246 C 
HETATM   14  N3  UNL     1      -9.441  20.747  18.239  1.00  0.00    -0.302 N 
HETATM   15  C1  UNL     1     -10.537  20.582  17.620  1.00  0.00     0.203 C 
ATOM     16  H3  UNL     1      -9.435  21.487  18.940  1.00  0.00     0.171 HD
HETATM   17  N1  UNL     1     -10.714  19.601  16.617  1.00  0.00    -0.066 NA
HETATM   18  N2  UNL     1     -11.626  21.456  17.979  1.00  0.00    -0.066 NA
HETATM   19  O1  UNL     1      -7.693  20.050  16.935  1.00  0.00    -0.271 OA
ENDBRANCH   8  13
ENDBRANCH   5   6
ENDBRANCH   1   5
BRANCH   3  20
HETATM   20  C10 UNL     1      -0.662  18.869  21.255  1.00  0.00     0.179 C 
HETATM   21  C11 UNL     1       0.617  19.626  21.641  1.00  0.00     0.037 C 
HETATM   22  C12 UNL     1       1.700  18.987  20.789  1.00  0.00     0.022 C 
HETATM   23  C13 UNL     1       0.880  18.503  19.593  1.00  0.00     0.127 C 
HETATM   24  N6  UNL     1      -0.250  17.916  20.261  1.00  0.00    -0.339 N 
HETATM   25  C14 UNL     1      -0.827  16.655  19.987  1.00  0.00     0.220 C 
HETATM   26  O4  UNL     1      -1.826  16.240  20.641  1.00  0.00    -0.273 OA
BRANCH  25  27
HETATM   27  C15 UNL     1      -0.297  15.768  18.931  1.00  0.00     0.103 C 
BRANCH  27  28
HETATM   28  C16 UNL     1      -0.406  14.313  19.194  1.00  0.00     0.010 C 
BRANCH  28  29
HETATM   29  C17 UNL     1      -1.477  13.588  18.448  1.00  0.00     0.011 C 
BRANCH  29  30
HETATM   30  C18 UNL     1      -1.963  14.339  17.221  1.00  0.00     0.113 C 
BRANCH  30  31
HETATM   31  C19 UNL     1      -1.592  13.574  16.017  1.00  0.00     0.172 C 
HETATM   32  O5  UNL     1      -0.967  12.498  16.021  1.00  0.00    -0.648 OA
HETATM   33  O6  UNL     1      -1.974  14.099  14.769  1.00  0.00    -0.648 OA
ENDBRANCH  30  31
ENDBRANCH  29  30
ENDBRANCH  28  29
ENDBRANCH  27  28
ENDBRANCH  25  27
ENDBRANCH   3  20
TORSDOF 9
ENDMDL
MODEL 4
REMARK VINA RESULT: -7.113054778      1.370      1.605
REMARK  9 active torsions:
REMARK  status: ('A' for Active; 'I' for Inactive)
REMARK       I    between atoms: N3_4  and  C2_6 
REMARK    1  A    between atoms: C2_6  and  C3_8 
REMARK       I    between atoms: N4_12  and  C7_13 
REMARK    2  A    between atoms: C7_13  and  C8_15 
REMARK    3  A    between atoms: C8_15  and  N5_16 
REMARK       I    between atoms: N5_16  and  C9_18 
REMARK    4  A    between atoms: C9_18  and  C10_20 
REMARK       I    between atoms: N6_24  and  C14_25 
REMARK    5  A    between atoms: C14_25  and  C15_27 
REMARK    6  A    between atoms: C15_27  and  C16_28 
REMARK    7  A    between atoms: C16_28  and  C17_29 
REMARK    8  A    between atoms: C17_29  and  C18_30 
REMARK    9  A    between atoms: C18_30  and  C19_31 
ROOT
HETATM    1  N5  UNL     1       1.288  20.012  20.321  1.00  0.00    -0.351 N 
ATOM      2  H5  UNL     1       1.852  19.353  20.857  1.00  0.00     0.163 HD
HETATM    3  C9  UNL     1       1.939  20.755  19.309  1.00  0.00     0.241 C 
HETATM    4  O3  UNL     1       1.272  21.576  18.635  1.00  0.00    -0.271 OA
ENDROOT
BRANCH   1   5
HETATM    5  C8  UNL     1      -0.105  20.112  20.652  1.00  0.00     0.225 C 
BRANCH   5   6
HETATM    6  C7  UNL     1      -0.795  18.787  20.671  1.00  0.00     0.238 C 
HETATM    7  N4  UNL     1      -1.406  18.267  19.503  1.00  0.00    -0.337 N 
HETATM    8  C3  UNL     1      -2.092  17.007  19.405  1.00  0.00     0.179 C 
HETATM    9  C6  UNL     1      -1.444  18.906  18.230  1.00  0.00     0.127 C 
HETATM   10  C4  UNL     1      -3.204  17.272  18.439  1.00  0.00     0.037 C 
HETATM   11  C5  UNL     1      -2.714  18.415  17.611  1.00  0.00     0.022 C 
HETATM   12  O2  UNL     1      -0.842  18.115  21.727  1.00  0.00    -0.272 OA
BRANCH   8  13
HETATM   13  C2  UNL     1      -1.217  15.926  18.875  1.00  0.00     0.246 C 
HETATM   14  N3  UNL     1      -1.341  15.311  17.625  1.00  0.00    -0.302 N 
HETATM   15  C1  UNL     1      -1.520  14.082  17.366  1.00  0.00     0.203 C 
ATOM     16  H3  UNL     1      -1.280  15.931  16.818  1.00  0.00     0.171 HD
HETATM   17  N1  UNL     1      -1.626  13.091  18.368  1.00  0.00    -0.066 NA
HETATM   18  N2  UNL     1      -1.608  13.716  15.973  1.00  0.00    -0.066 NA
HETATM   19  O1  UNL     1      -0.278  15.539  19.639  1.00  0.00    -0.271 OA
ENDBRANCH   8  13
ENDBRANCH   5   6
ENDBRANCH   1   5
BRANCH   3  20
HETATM   20  C10 UNL     1       3.385  20.554  19.062  1.00  0.00     0.179 C 
HETATM   21  C11 UNL     1       4.119  21.013  20.330  1.00  0.00     0.037 C 
HETATM   22  C12 UNL     1       5.031  22.129  19.850  1.00  0.00     0.022 C 
HETATM   23  C13 UNL     1       4.254  22.636  18.635  1.00  0.00     0.127 C 
HETATM   24  N6  UNL     1       3.889  21.394  18.011  1.00  0.00    -0.339 N 
HETATM   25  C14 UNL     1       4.008  21.076  16.638  1.00  0.00     0.220 C 
HETATM   26  O4  UNL     1       3.652  19.946  16.198  1.00  0.00    -0.273 OA
BRANCH  25  27
HETATM   27  C15 UNL     1       4.550  22.041  15.659  1.00  0.00     0.103 C 
BRANCH  27  28
HETATM   28  C16 UNL     1       6.008  21.955  15.406  1.00  0.00     0.010 C 
BRANCH  28  29
HETATM   29  C17 UNL     1       6.487  20.714  14.729  1.00  0.00     0.011 C 
BRANCH  29  30
HETATM   30  C18 UNL     1       6.283  20.737  13.225  1.00  0.00     0.113 C 
BRANCH  30  31
HETATM   31  C19 UNL     1       7.574  20.472  12.565  1.00  0.00     0.172 C 
HETATM   32  O5  UNL     1       8.679  20.467  13.138  1.00  0.00    -0.648 OA
HETATM   33  O6  UNL     1       7.557  20.204  11.184  1.00  0.00    -0.648 OA
ENDBRANCH  30  31
ENDBRANCH  29  30
ENDBRANCH  28  29
ENDBRANCH  27  28
ENDBRANCH  25  27
ENDBRANCH   3  20
TORSDOF 9
ENDMDL
MODEL 5
REMARK VINA RESULT: -7.038839082      3.590      6.424
REMARK  9 active torsions:
REMARK  status: ('A' for Active; 'I' for Inactive)
REMARK       I    between atoms: N3_4  and  C2_6 
REMARK    1  A    between atoms: C2_6  and  C3_8 
REMARK       I    between atoms: N4_12  and  C7_13 
REMARK    2  A    between atoms: C7_13  and  C8_15 
REMARK    3  A    between atoms: C8_15  and  N5_16 
REMARK       I    between atoms: N5_16  and  C9_18 
REMARK    4  A    between atoms: C9_18  and  C10_20 
REMARK       I    between atoms: N6_24  and  C14_25 
REMARK    5  A    between atoms: C14_25  and  C15_27 
REMARK    6  A    between atoms: C15_27  and  C16_28 
REMARK    7  A    between atoms: C16_28  and  C17_29 
REMARK    8  A    between atoms: C17_29  and  C18_30 
REMARK    9  A    between atoms: C18_30  and  C19_31 
ROOT
HETATM    1  N5  UNL     1       1.715  20.301  21.381  1.00  0.00    -0.351 N 
ATOM      2  H5  UNL     1       0.849  20.373  21.914  1.00  0.00     0.163 HD
HETATM    3  C9  UNL     1       2.760  21.196  21.712  1.00  0.00     0.241 C 
HETATM    4  O3  UNL     1       3.836  21.135  21.071  1.00  0.00    -0.271 OA
ENDROOT
BRANCH   1   5
HETATM    5  C8  UNL     1       1.780  19.300  20.354  1.00  0.00     0.225 C 
BRANCH   5   6
HETATM    6  C7  UNL     1       0.826  18.173  20.582  1.00  0.00     0.238 C 
HETATM    7  N4  UNL     1      -0.089  17.777  19.575  1.00  0.00    -0.337 N 
HETATM    8  C3  UNL     1      -1.045  16.709  19.684  1.00  0.00     0.179 C 
HETATM    9  C6  UNL     1      -0.214  18.372  18.287  1.00  0.00     0.127 C 
HETATM   10  C4  UNL     1      -2.228  17.199  18.906  1.00  0.00     0.037 C 
HETATM   11  C5  UNL     1      -1.653  18.173  17.930  1.00  0.00     0.022 C 
HETATM   12  O2  UNL     1       0.823  17.559  21.675  1.00  0.00    -0.272 OA
BRANCH   8  13
HETATM   13  C2  UNL     1      -0.548  15.440  19.087  1.00  0.00     0.246 C 
HETATM   14  N3  UNL     1      -0.848  14.963  17.808  1.00  0.00    -0.302 N 
HETATM   15  C1  UNL     1      -1.399  13.867  17.484  1.00  0.00     0.203 C 
ATOM     16  H3  UNL     1      -0.591  15.576  17.035  1.00  0.00     0.171 HD
HETATM   17  N1  UNL     1      -1.816  12.905  18.433  1.00  0.00    -0.066 NA
HETATM   18  N2  UNL     1      -1.586  13.623  16.075  1.00  0.00    -0.066 NA
HETATM   19  O1  UNL     1       0.219  14.739  19.820  1.00  0.00    -0.271 OA
ENDBRANCH   8  13
ENDBRANCH   5   6
ENDBRANCH   1   5
BRANCH   3  20
HETATM   20  C10 UNL     1       2.569  22.182  22.799  1.00  0.00     0.179 C 
HETATM   21  C11 UNL     1       3.928  22.856  23.031  1.00  0.00     0.037 C 
HETATM   22  C12 UNL     1       4.254  22.549  24.483  1.00  0.00     0.022 C 
HETATM   23  C13 UNL     1       3.488  21.241  24.681  1.00  0.00     0.127 C 
HETATM   24  N6  UNL     1       2.236  21.565  24.053  1.00  0.00    -0.339 N 
HETATM   25  C14 UNL     1       0.946  21.321  24.576  1.00  0.00     0.220 C 
HETATM   26  O4  UNL     1      -0.091  21.648  23.932  1.00  0.00    -0.273 OA
BRANCH  25  27
HETATM   27  C15 UNL     1       0.746  20.675  25.891  1.00  0.00     0.103 C 
BRANCH  27  28
HETATM   28  C16 UNL     1       0.858  19.197  25.909  1.00  0.00     0.010 C 
BRANCH  28  29
HETATM   29  C17 UNL     1       0.030  18.462  24.908  1.00  0.00     0.011 C 
BRANCH  29  30
HETATM   30  C18 UNL     1      -1.131  17.708  25.532  1.00  0.00     0.113 C 
BRANCH  30  31
HETATM   31  C19 UNL     1      -1.535  16.619  24.625  1.00  0.00     0.172 C 
HETATM   32  O5  UNL     1      -1.891  16.773  23.442  1.00  0.00    -0.648 OA
HETATM   33  O6  UNL     1      -1.517  15.308  25.133  1.00  0.00    -0.648 OA
ENDBRANCH  30  31
ENDBRANCH  29  30
ENDBRANCH  28  29
ENDBRANCH  27  28
ENDBRANCH  25  27
ENDBRANCH   3  20
TORSDOF 9
ENDMDL
