MODEL 1
REMARK VINA RESULT: -7.293640937      0.000      0.000
REMARK  9 active torsions:
REMARK  status: ('A' for Active; 'I' for Inactive)
REMARK    1  A    between atoms: N1_2  and  O1_3 
REMARK    2  A    between atoms: N1_2  and  C2_5 
REMARK    3  A    between atoms: C2_5  and  C3_6 
REMARK    4  A    between atoms: C2_5  and  C12_26 
REMARK    5  A    between atoms: C4_7  and  C5_8 
REMARK    6  A    between atoms: C5_8  and  N2_9 
REMARK       I    between atoms: C6_11  and  N3_12 
REMARK       I    between atoms: C6_11  and  N6_17 
REMARK    7  A    between atoms: C11_21  and  N7_22 
REMARK       I    between atoms: C12_26  and  N8_28 
REMARK    8  A    between atoms: N8_28  and  C13_30 
REMARK    9  A    between atoms: C13_30  and  C14_31 
REMARK       I    between atoms: C14_31  and  N9_33 
ROOT
HETATM    1  C3  UNL     1       2.087  19.248  18.501  1.00  0.00     0.035 C 
HETATM    2  C4  UNL     1       1.939  20.588  18.003  1.00  0.00    -0.004 C 
ENDROOT
BRANCH   1   3
HETATM    3  C2  UNL     1       2.282  18.772  19.871  1.00  0.00     0.128 C 
BRANCH   3   4
HETATM    4  N1  UNL     1       2.691  19.569  20.900  1.00  0.00    -0.241 N 
HETATM    5  C1  UNL     1       3.927  19.969  21.311  1.00  0.00     0.156 C 
BRANCH   4   6
HETATM    6  O1  UNL     1       1.715  20.192  21.616  1.00  0.00    -0.284 OA
ATOM      7  H1  UNL     1       1.456  19.668  22.365  1.00  0.00     0.245 HD
ENDBRANCH   4   6
ENDBRANCH   3   4
BRANCH   3   8
HETATM    8  C12 UNL     1       1.109  17.883  20.291  1.00  0.00     0.271 C 
HETATM    9  O2  UNL     1       0.921  17.549  21.475  1.00  0.00    -0.266 OA
HETATM   10  N8  UNL     1       0.230  17.440  19.297  1.00  0.00    -0.347 N 
ATOM     11  H8  UNL     1       0.413  17.737  18.339  1.00  0.00     0.163 HD
BRANCH  10  12
HETATM   12  C13 UNL     1      -0.912  16.597  19.526  1.00  0.00     0.225 C 
BRANCH  12  13
HETATM   13  C14 UNL     1      -0.604  15.216  19.127  1.00  0.00     0.237 C 
HETATM   14  O3  UNL     1       0.086  14.489  19.871  1.00  0.00    -0.272 OA
HETATM   15  N9  UNL     1      -1.088  14.675  17.878  1.00  0.00    -0.351 N 
HETATM   16  C15 UNL     1      -0.750  13.326  17.566  1.00  0.00     0.126 C 
HETATM   17  C19 UNL     1      -1.871  15.549  17.051  1.00  0.00     0.126 C 
HETATM   18  C16 UNL     1      -0.861  12.963  16.117  1.00  0.00     0.020 C 
HETATM   19  C17 UNL     1      -1.893  13.713  15.352  1.00  0.00     0.003 C 
HETATM   20  C18 UNL     1      -2.712  14.677  16.145  1.00  0.00     0.020 C 
ENDBRANCH  12  13
ENDBRANCH  10  12
ENDBRANCH   3   8
ENDBRANCH   1   3
BRANCH   2  21
HETATM   21  C5  UNL     1       2.978  21.641  18.089  1.00  0.00     0.165 C 
BRANCH  21  22
HETATM   22  N2  UNL     1       4.109  21.260  17.193  1.00  0.00    -0.223 N 
HETATM   23  C6  UNL     1       4.340  21.882  16.099  1.00  0.00     0.680 C 
HETATM   24  N3  UNL     1       3.499  22.959  15.733  1.00  0.00    -0.166 N 
HETATM   25  N6  UNL     1       5.412  21.513  15.256  1.00  0.00    -0.188 N 
HETATM   26  C7  UNL     1       2.490  22.887  14.957  1.00  0.00     0.215 C 
ATOM     27  H3  UNL     1       3.720  23.874  16.125  1.00  0.00     0.186 HD
HETATM   28  N4  UNL     1       2.028  21.708  14.318  1.00  0.00    -0.066 NA
HETATM   29  N5  UNL     1       1.777  24.116  14.723  1.00  0.00    -0.066 NA
HETATM   30  C8  UNL     1       6.334  20.399  15.521  1.00  0.00     0.143 C 
HETATM   31  C11 UNL     1       5.832  22.115  13.997  1.00  0.00     0.299 C 
HETATM   32  C9  UNL     1       7.008  20.090  14.223  1.00  0.00     0.024 C 
HETATM   33  C10 UNL     1       6.194  20.852  13.207  1.00  0.00     0.056 C 
ATOM     34  H2  UNL     1       4.713  20.483  17.459  1.00  0.00     0.178 HD
BRANCH  31  35
HETATM   35  N7  UNL     1       7.082  22.841  14.172  1.00  0.00    -0.058 N 
ATOM     36  H73 UNL     1       6.932  23.849  14.227  1.00  0.00     0.276 HD
ATOM     37  H72 UNL     1       7.478  22.696  15.101  1.00  0.00     0.276 HD
ATOM     38  H71 UNL     1       7.742  22.596  13.435  1.00  0.00     0.276 HD
ENDBRANCH  31  35
ENDBRANCH  21  22
ENDBRANCH   2  21
TORSDOF 9
ENDMDL
MODEL 2
REMARK VINA RESULT: -7.245149497      2.239      3.261
REMARK  9 active torsions:
REMARK  status: ('A' for Active; 'I' for Inactive)
REMARK    1  A    between atoms: N1_2  and  O1_3 
REMARK    2  A    between atoms: N1_2  and  C2_5 
REMARK    3  A    between atoms: C2_5  and  C3_6 
REMARK    4  A    between atoms: C2_5  and  C12_26 
REMARK    5  A    between atoms: C4_7  and  C5_8 
REMARK    6  A    between atoms: C5_8  and  N2_9 
REMARK       I    between atoms: C6_11  and  N3_12 
REMARK       I    between atoms: C6_11  and  N6_17 
REMARK    7  A    between atoms: C11_21  and  N7_22 
REMARK       I    between atoms: C12_26  and  N8_28 
REMARK    8  A    between atoms: N8_28  and  C13_30 
REMARK    9  A    between atoms: C13_30  and  C14_31 
REMARK       I    between atoms: C14_31  and  N9_33 
ROOT
HETATM    1  C3  UNL     1       3.553  20.852  21.967  1.00  0.00     0.035 C 
HETATM    2  C4  UNL     1       4.877  20.957  21.420  1.00  0.00    -0.004 C 
ENDROOT
BRANCH   1   3
HETATM    3  C2  UNL     1       2.268  20.680  21.287  1.00  0.00     0.128 C 
BRANCH   3   4
HETATM    4  N1  UNL     1       1.809  21.513  20.308  1.00  0.00    -0.241 N 
HETATM    5  C1  UNL     1       1.336  22.790  20.343  1.00  0.00     0.156 C 
BRANCH   4   6
HETATM    6  O1  UNL     1       1.926  21.072  19.025  1.00  0.00    -0.284 OA
ATOM      7  H1  UNL     1       1.076  20.843  18.667  1.00  0.00     0.245 HD
ENDBRANCH   4   6
ENDBRANCH   3   4
BRANCH   3   8
HETATM    8  C12 UNL     1       2.068  19.211  20.903  1.00  0.00     0.271 C 
HETATM    9  O2  UNL     1       3.024  18.454  20.659  1.00  0.00    -0.266 OA
HETATM   10  N8  UNL     1       0.759  18.724  20.827  1.00  0.00    -0.347 N 
ATOM     11  H8  UNL     1       0.000  19.373  21.037  1.00  0.00     0.163 HD
BRANCH  10  12
HETATM   12  C13 UNL     1       0.402  17.376  20.474  1.00  0.00     0.225 C 
BRANCH  12  13
HETATM   13  C14 UNL     1      -0.390  17.374  19.236  1.00  0.00     0.237 C 
HETATM   14  O3  UNL     1      -0.726  18.453  18.707  1.00  0.00    -0.272 OA
HETATM   15  N9  UNL     1      -0.793  16.136  18.611  1.00  0.00    -0.351 N 
HETATM   16  C15 UNL     1      -1.555  16.219  17.409  1.00  0.00     0.126 C 
HETATM   17  C19 UNL     1      -0.390  14.919  19.258  1.00  0.00     0.126 C 
HETATM   18  C16 UNL     1      -2.325  14.982  17.059  1.00  0.00     0.020 C 
HETATM   19  C17 UNL     1      -1.716  13.705  17.519  1.00  0.00     0.003 C 
HETATM   20  C18 UNL     1      -0.399  13.828  18.211  1.00  0.00     0.020 C 
ENDBRANCH  12  13
ENDBRANCH  10  12
ENDBRANCH   3   8
ENDBRANCH   1   3
BRANCH   2  21
HETATM   21  C5  UNL     1       5.341  22.051  20.534  1.00  0.00     0.165 C 
BRANCH  21  22
HETATM   22  N2  UNL     1       5.049  21.669  19.122  1.00  0.00    -0.223 N 
HETATM   23  C6  UNL     1       5.573  22.292  18.134  1.00  0.00     0.680 C 
HETATM   24  N3  UNL     1       6.452  23.369  18.392  1.00  0.00    -0.166 N 
HETATM   25  N6  UNL     1       5.290  21.923  16.799  1.00  0.00    -0.188 N 
HETATM   26  C7  UNL     1       6.131  24.603  18.421  1.00  0.00     0.215 C 
ATOM     27  H3  UNL     1       7.429  23.138  18.571  1.00  0.00     0.186 HD
HETATM   28  N4  UNL     1       4.828  25.118  18.197  1.00  0.00    -0.066 NA
HETATM   29  N5  UNL     1       7.195  25.531  18.703  1.00  0.00    -0.066 NA
HETATM   30  C8  UNL     1       4.376  20.839  16.411  1.00  0.00     0.143 C 
HETATM   31  C11 UNL     1       5.806  22.499  15.565  1.00  0.00     0.299 C 
HETATM   32  C9  UNL     1       4.035  21.067  14.974  1.00  0.00     0.024 C 
HETATM   33  C10 UNL     1       4.537  22.464  14.705  1.00  0.00     0.056 C 
ATOM     34  H2  UNL     1       4.415  20.892  18.938  1.00  0.00     0.178 HD
BRANCH  31  35
HETATM   35  N7  UNL     1       6.739  21.582  14.926  1.00  0.00    -0.058 N 
ATOM     36  H73 UNL     1       6.370  20.632  14.886  1.00  0.00     0.276 HD
ATOM     37  H72 UNL     1       6.816  21.757  13.924  1.00  0.00     0.276 HD
ATOM     38  H71 UNL     1       7.647  21.617  15.389  1.00  0.00     0.276 HD
ENDBRANCH  31  35
ENDBRANCH  21  22
ENDBRANCH   2  21
TORSDOF 9
ENDMDL
MODEL 3
REMARK VINA RESULT: -7.112275964      1.348      2.155
REMARK  9 active torsions:
REMARK  status: ('A' for Active; 'I' for Inactive)
REMARK    1  A    between atoms: N1_2  and  O1_3 
REMARK    2  A    between atoms: N1_2  and  C2_5 
REMARK    3  A    between atoms: C2_5  and  C3_6 
REMARK    4  A    between atoms: C2_5  and  C12_26 
REMARK    5  A    between atoms: C4_7  and  C5_8 
REMARK    6  A    between atoms: C5_8  and  N2_9 
REMARK       I    between atoms: C6_11  and  N3_12 
REMARK       I    between atoms: C6_11  and  N6_17 
REMARK    7  A    between atoms: C11_21  and  N7_22 
REMARK       I    between atoms: C12_26  and  N8_28 
REMARK    8  A    between atoms: N8_28  and  C13_30 
REMARK    9  A    between atoms: C13_30  and  C14_31 
REMARK       I    between atoms: C14_31  and  N9_33 
ROOT
HETATM    1  C3  UNL     1       1.451  19.219  18.087  1.00  0.00     0.035 C 
HETATM    2  C4  UNL     1       1.023  20.474  17.535  1.00  0.00    -0.004 C 
ENDROOT
BRANCH   1   3
HETATM    3  C2  UNL     1       1.871  18.889  19.450  1.00  0.00     0.128 C 
BRANCH   3   4
HETATM    4  N1  UNL     1       2.239  19.820  20.377  1.00  0.00    -0.241 N 
HETATM    5  C1  UNL     1       1.515  20.607  21.220  1.00  0.00     0.156 C 
BRANCH   4   6
HETATM    6  O1  UNL     1       3.573  19.946  20.620  1.00  0.00    -0.284 OA
ATOM      7  H1  UNL     1       3.978  19.095  20.739  1.00  0.00     0.245 HD
ENDBRANCH   4   6
ENDBRANCH   3   4
BRANCH   3   8
HETATM    8  C12 UNL     1       0.927  17.847  20.055  1.00  0.00     0.271 C 
HETATM    9  O2  UNL     1       1.081  17.402  21.206  1.00  0.00    -0.266 OA
HETATM   10  N8  UNL     1      -0.138  17.391  19.271  1.00  0.00    -0.347 N 
ATOM     11  H8  UNL     1      -0.236  17.781  18.334  1.00  0.00     0.163 HD
BRANCH  10  12
HETATM   12  C13 UNL     1      -1.107  16.414  19.689  1.00  0.00     0.225 C 
BRANCH  12  13
HETATM   13  C14 UNL     1      -0.716  15.082  19.204  1.00  0.00     0.237 C 
HETATM   14  O3  UNL     1       0.017  14.352  19.902  1.00  0.00    -0.272 OA
HETATM   15  N9  UNL     1      -1.168  14.594  17.922  1.00  0.00    -0.351 N 
HETATM   16  C15 UNL     1      -0.749  13.290  17.526  1.00  0.00     0.126 C 
HETATM   17  C19 UNL     1      -2.004  15.469  17.150  1.00  0.00     0.126 C 
HETATM   18  C16 UNL     1      -0.840  13.013  16.055  1.00  0.00     0.020 C 
HETATM   19  C17 UNL     1      -1.916  13.747  15.337  1.00  0.00     0.003 C 
HETATM   20  C18 UNL     1      -2.791  14.608  16.187  1.00  0.00     0.020 C 
ENDBRANCH  12  13
ENDBRANCH  10  12
ENDBRANCH   3   8
ENDBRANCH   1   3
BRANCH   2  21
HETATM   21  C5  UNL     1       1.870  21.686  17.433  1.00  0.00     0.165 C 
BRANCH  21  22
HETATM   22  N2  UNL     1       2.846  21.486  16.323  1.00  0.00    -0.223 N 
HETATM   23  C6  UNL     1       4.099  21.345  16.545  1.00  0.00     0.680 C 
HETATM   24  N3  UNL     1       4.566  21.379  17.879  1.00  0.00    -0.166 N 
HETATM   25  N6  UNL     1       5.016  21.157  15.486  1.00  0.00    -0.188 N 
HETATM   26  C7  UNL     1       5.031  22.404  18.480  1.00  0.00     0.215 C 
ATOM     27  H3  UNL     1       4.527  20.508  18.408  1.00  0.00     0.186 HD
HETATM   28  N4  UNL     1       5.164  23.698  17.913  1.00  0.00    -0.066 NA
HETATM   29  N5  UNL     1       5.451  22.207  19.843  1.00  0.00    -0.066 NA
HETATM   30  C8  UNL     1       4.650  21.127  14.063  1.00  0.00     0.143 C 
HETATM   31  C11 UNL     1       6.458  20.961  15.553  1.00  0.00     0.299 C 
HETATM   32  C9  UNL     1       5.914  21.344  13.296  1.00  0.00     0.024 C 
HETATM   33  C10 UNL     1       6.896  21.800  14.346  1.00  0.00     0.056 C 
ATOM     34  H2  UNL     1       2.507  21.461  15.362  1.00  0.00     0.178 HD
BRANCH  31  35
HETATM   35  N7  UNL     1       6.801  19.586  15.220  1.00  0.00    -0.058 N 
ATOM     36  H73 UNL     1       6.141  18.921  15.624  1.00  0.00     0.276 HD
ATOM     37  H72 UNL     1       6.636  19.382  14.234  1.00  0.00     0.276 HD
ATOM     38  H71 UNL     1       7.762  19.381  15.494  1.00  0.00     0.276 HD
ENDBRANCH  31  35
ENDBRANCH  21  22
ENDBRANCH   2  21
TORSDOF 9
ENDMDL
MODEL 4
REMARK VINA RESULT: -7.094706515      4.534      7.095
REMARK  9 active torsions:
REMARK  status: ('A' for Active; 'I' for Inactive)
REMARK    1  A    between atoms: N1_2  and  O1_3 
REMARK    2  A    between atoms: N1_2  and  C2_5 
REMARK    3  A    between atoms: C2_5  and  C3_6 
REMARK    4  A    between atoms: C2_5  and  C12_26 
REMARK    5  A    between atoms: C4_7  and  C5_8 
REMARK    6  A    between atoms: C5_8  and  N2_9 
REMARK       I    between atoms: C6_11  and  N3_12 
REMARK       I    between atoms: C6_11  and  N6_17 
REMARK    7  A    between atoms: C11_21  and  N7_22 
REMARK       I    between atoms: C12_26  and  N8_28 
REMARK    8  A    between atoms: N8_28  and  C13_30 
REMARK    9  A    between atoms: C13_30  and  C14_31 
REMARK       I    between atoms: C14_31  and  N9_33 
ROOT
HETATM    1  C3  UNL     1      -3.889  21.672  20.857  1.00  0.00     0.035 C 
HETATM    2  C4  UNL     1      -3.497  21.755  22.237  1.00  0.00    -0.004 C 
ENDROOT
BRANCH   1   3
HETATM    3  C2  UNL     1      -4.578  20.598  20.140  1.00  0.00     0.128 C 
BRANCH   3   4
HETATM    4  N1  UNL     1      -5.796  20.743  19.542  1.00  0.00    -0.241 N 
HETATM    5  C1  UNL     1      -6.327  21.740  18.781  1.00  0.00     0.156 C 
BRANCH   4   6
HETATM    6  O1  UNL     1      -6.635  19.673  19.597  1.00  0.00    -0.284 OA
ATOM      7  H1  UNL     1      -6.149  18.868  19.737  1.00  0.00     0.245 HD
ENDBRANCH   4   6
ENDBRANCH   3   4
BRANCH   3   8
HETATM    8  C12 UNL     1      -3.596  19.861  19.226  1.00  0.00     0.271 C 
HETATM    9  O2  UNL     1      -2.544  20.387  18.822  1.00  0.00    -0.266 OA
HETATM   10  N8  UNL     1      -3.910  18.553  18.842  1.00  0.00    -0.347 N 
ATOM     11  H8  UNL     1      -4.779  18.153  19.196  1.00  0.00     0.163 HD
BRANCH  10  12
HETATM   12  C13 UNL     1      -3.099  17.731  17.985  1.00  0.00     0.225 C 
BRANCH  12  13
HETATM   13  C14 UNL     1      -2.455  16.670  18.772  1.00  0.00     0.237 C 
HETATM   14  O3  UNL     1      -2.338  16.791  20.009  1.00  0.00    -0.272 OA
HETATM   15  N9  UNL     1      -1.948  15.474  18.138  1.00  0.00    -0.351 N 
HETATM   16  C15 UNL     1      -1.342  14.490  18.972  1.00  0.00     0.126 C 
HETATM   17  C19 UNL     1      -2.098  15.380  16.714  1.00  0.00     0.126 C 
HETATM   18  C16 UNL     1      -0.444  13.523  18.262  1.00  0.00     0.020 C 
HETATM   19  C17 UNL     1      -0.808  13.241  16.847  1.00  0.00     0.003 C 
HETATM   20  C18 UNL     1      -2.045  13.913  16.351  1.00  0.00     0.020 C 
ENDBRANCH  12  13
ENDBRANCH  10  12
ENDBRANCH   3   8
ENDBRANCH   1   3
BRANCH   2  21
HETATM   21  C5  UNL     1      -2.515  20.858  22.892  1.00  0.00     0.165 C 
BRANCH  21  22
HETATM   22  N2  UNL     1      -1.344  20.699  21.982  1.00  0.00    -0.223 N 
HETATM   23  C6  UNL     1      -0.865  19.547  21.696  1.00  0.00     0.680 C 
HETATM   24  N3  UNL     1      -1.465  18.397  22.258  1.00  0.00    -0.166 N 
HETATM   25  N6  UNL     1       0.246  19.407  20.834  1.00  0.00    -0.188 N 
HETATM   26  C7  UNL     1      -1.082  17.798  23.317  1.00  0.00     0.215 C 
ATOM     27  H3  UNL     1      -2.277  18.013  21.775  1.00  0.00     0.186 HD
HETATM   28  N4  UNL     1       0.022  18.180  24.122  1.00  0.00    -0.066 NA
HETATM   29  N5  UNL     1      -1.845  16.640  23.706  1.00  0.00    -0.066 NA
HETATM   30  C8  UNL     1       0.964  20.529  20.211  1.00  0.00     0.143 C 
HETATM   31  C11 UNL     1       0.904  18.187  20.386  1.00  0.00     0.299 C 
HETATM   32  C9  UNL     1       2.281  19.989  19.757  1.00  0.00     0.024 C 
HETATM   33  C10 UNL     1       2.368  18.643  20.433  1.00  0.00     0.056 C 
ATOM     34  H2  UNL     1      -0.913  21.530  21.577  1.00  0.00     0.178 HD
BRANCH  31  35
HETATM   35  N7  UNL     1       0.616  17.939  18.981  1.00  0.00    -0.058 N 
ATOM     36  H73 UNL     1       0.310  18.786  18.500  1.00  0.00     0.276 HD
ATOM     37  H72 UNL     1       1.466  17.760  18.445  1.00  0.00     0.276 HD
ATOM     38  H71 UNL     1      -0.060  17.182  18.883  1.00  0.00     0.276 HD
ENDBRANCH  31  35
ENDBRANCH  21  22
ENDBRANCH   2  21
TORSDOF 9
ENDMDL
MODEL 5
REMARK VINA RESULT: -7.084314390      4.512      9.315
REMARK  9 active torsions:
REMARK  status: ('A' for Active; 'I' for Inactive)
REMARK    1  A    between atoms: N1_2  and  O1_3 
REMARK    2  A    between atoms: N1_2  and  C2_5 
REMARK    3  A    between atoms: C2_5  and  C3_6 
REMARK    4  A    between atoms: C2_5  and  C12_26 
REMARK    5  A    between atoms: C4_7  and  C5_8 
REMARK    6  A    between atoms: C5_8  and  N2_9 
REMARK       I    between atoms: C6_11  and  N3_12 
REMARK       I    between atoms: C6_11  and  N6_17 
REMARK    7  A    between atoms: C11_21  and  N7_22 
REMARK       I    between atoms: C12_26  and  N8_28 
REMARK    8  A    between atoms: N8_28  and  C13_30 
REMARK    9  A    between atoms: C13_30  and  C14_31 
REMARK       I    between atoms: C14_31  and  N9_33 
ROOT
HETATM    1  C3  UNL     1      -1.773  16.586  18.047  1.00  0.00     0.035 C 
HETATM    2  C4  UNL     1      -3.046  17.247  17.963  1.00  0.00    -0.004 C 
ENDROOT
BRANCH   1   3
HETATM    3  C2  UNL     1      -1.185  15.821  19.147  1.00  0.00     0.128 C 
BRANCH   3   4
HETATM    4  N1  UNL     1      -0.557  14.619  18.986  1.00  0.00    -0.241 N 
HETATM    5  C1  UNL     1      -0.642  13.667  18.016  1.00  0.00     0.156 C 
BRANCH   4   6
HETATM    6  O1  UNL     1       0.425  14.319  19.879  1.00  0.00    -0.284 OA
ATOM      7  H1  UNL     1       0.348  14.853  20.661  1.00  0.00     0.245 HD
ENDBRANCH   4   6
ENDBRANCH   3   4
BRANCH   3   8
HETATM    8  C12 UNL     1      -0.381  16.747  20.064  1.00  0.00     0.271 C 
HETATM    9  O2  UNL     1      -0.742  17.007  21.225  1.00  0.00    -0.266 OA
HETATM   10  N8  UNL     1       0.795  17.312  19.560  1.00  0.00    -0.347 N 
ATOM     11  H8  UNL     1       1.063  17.073  18.605  1.00  0.00     0.163 HD
BRANCH  10  12
HETATM   12  C13 UNL     1       1.657  18.204  20.288  1.00  0.00     0.225 C 
BRANCH  12  13
HETATM   13  C14 UNL     1       2.093  19.303  19.415  1.00  0.00     0.237 C 
HETATM   14  O3  UNL     1       1.544  19.478  18.307  1.00  0.00    -0.272 OA
HETATM   15  N9  UNL     1       3.155  20.196  19.815  1.00  0.00    -0.351 N 
HETATM   16  C15 UNL     1       3.516  21.241  18.915  1.00  0.00     0.126 C 
HETATM   17  C19 UNL     1       3.761  19.954  21.094  1.00  0.00     0.126 C 
HETATM   18  C16 UNL     1       4.875  21.831  19.140  1.00  0.00     0.020 C 
HETATM   19  C17 UNL     1       5.352  21.806  20.549  1.00  0.00     0.003 C 
HETATM   20  C18 UNL     1       4.391  21.252  21.548  1.00  0.00     0.020 C 
ENDBRANCH  12  13
ENDBRANCH  10  12
ENDBRANCH   3   8
ENDBRANCH   1   3
BRANCH   2  21
HETATM   21  C5  UNL     1      -3.465  18.386  18.814  1.00  0.00     0.165 C 
BRANCH  21  22
HETATM   22  N2  UNL     1      -4.940  18.557  18.679  1.00  0.00    -0.223 N 
HETATM   23  C6  UNL     1      -5.455  19.222  17.714  1.00  0.00     0.680 C 
HETATM   24  N3  UNL     1      -4.600  19.807  16.752  1.00  0.00    -0.166 N 
HETATM   25  N6  UNL     1      -6.855  19.379  17.595  1.00  0.00    -0.188 N 
HETATM   26  C7  UNL     1      -4.178  21.011  16.764  1.00  0.00     0.215 C 
ATOM     27  H3  UNL     1      -4.293  19.214  15.981  1.00  0.00     0.186 HD
HETATM   28  N4  UNL     1      -4.494  21.982  17.748  1.00  0.00    -0.066 NA
HETATM   29  N5  UNL     1      -3.313  21.393  15.678  1.00  0.00    -0.066 NA
HETATM   30  C8  UNL     1      -7.838  18.837  18.544  1.00  0.00     0.143 C 
HETATM   31  C11 UNL     1      -7.609  20.077  16.562  1.00  0.00     0.299 C 
HETATM   32  C9  UNL     1      -9.113  19.577  18.302  1.00  0.00     0.024 C 
HETATM   33  C10 UNL     1      -8.696  20.731  17.425  1.00  0.00     0.056 C 
ATOM     34  H2  UNL     1      -5.555  18.134  19.374  1.00  0.00     0.178 HD
BRANCH  31  35
HETATM   35  N7  UNL     1      -8.306  19.125  15.709  1.00  0.00    -0.058 N 
ATOM     36  H73 UNL     1      -7.766  18.270  15.575  1.00  0.00     0.276 HD
ATOM     37  H72 UNL     1      -9.117  18.720  16.176  1.00  0.00     0.276 HD
ATOM     38  H71 UNL     1      -8.555  19.559  14.821  1.00  0.00     0.276 HD
ENDBRANCH  31  35
ENDBRANCH  21  22
ENDBRANCH   2  21
TORSDOF 9
ENDMDL
