MODEL 1
REMARK VINA RESULT: -7.566970409      0.000      0.000
REMARK  10 active torsions:
REMARK  status: ('A' for Active; 'I' for Inactive)
REMARK    1  A    between atoms: N2_3  and  C2_5 
REMARK    2  A    between atoms: C2_5  and  S1_10 
REMARK    3  A    between atoms: N3_6  and  O1_8 
REMARK    4  A    between atoms: S1_10  and  C3_11 
REMARK    5  A    between atoms: C3_11  and  C4_12 
REMARK    6  A    between atoms: C4_12  and  C5_13 
REMARK    7  A    between atoms: C5_13  and  N5_17 
REMARK       I    between atoms: N5_17  and  C6_19 
REMARK       I    between atoms: C6_19  and  N8_25 
REMARK    8  A    between atoms: N6_20  and  O2_22 
REMARK    9  A    between atoms: N8_25  and  C8_27 
REMARK   10  A    between atoms: C8_27  and  C9_28 
ROOT
HETATM    1  N1  UNL     1      72.105  39.467  50.365  1.00  0.00    -0.172 NA
HETATM    2  C1  UNL     1      73.155  39.845  50.085  1.00  0.00     0.183 C 
HETATM    3  N2  UNL     1      74.424  40.287  49.763  1.00  0.00    -0.272 N 
ATOM      4  H2  UNL     1      75.045  39.618  49.307  1.00  0.00     0.180 HD
ENDROOT
BRANCH   3   5
HETATM    5  C2  UNL     1      74.938  41.568  50.002  1.00  0.00     0.173 C 
HETATM    6  N3  UNL     1      75.032  42.406  49.028  1.00  0.00    -0.247 N 
ATOM      7  H3  UNL     1      75.406  43.340  49.197  1.00  0.00     0.196 HD
BRANCH   6   8
HETATM    8  O1  UNL     1      74.640  42.056  47.784  1.00  0.00    -0.288 OA
ATOM      9  H1  UNL     1      73.835  42.402  47.418  1.00  0.00     0.244 HD
ENDBRANCH   6   8
BRANCH   5  10
HETATM   10  S1  UNL     1      75.487  42.144  51.591  1.00  0.00    -0.091 SA
BRANCH  10  11
HETATM   11  C3  UNL     1      74.141  42.762  52.608  1.00  0.00     0.090 C 
BRANCH  11  12
HETATM   12  C4  UNL     1      74.043  44.247  52.650  1.00  0.00     0.087 C 
BRANCH  12  13
HETATM   13  C5  UNL     1      73.191  44.716  51.538  1.00  0.00     0.091 C 
HETATM   14  N4  UNL     1      72.436  43.924  50.881  1.00  0.00    -0.388 N 
ATOM     15  H42 UNL     1      72.457  42.947  51.174  1.00  0.00     0.157 HD
ATOM     16  H41 UNL     1      71.848  44.248  50.114  1.00  0.00     0.157 HD
BRANCH  13  17
HETATM   17  N5  UNL     1      73.161  46.083  51.127  1.00  0.00    -0.179 N 
HETATM   18  C6  UNL     1      72.226  46.632  50.216  1.00  0.00     0.700 C 
HETATM   19  N6  UNL     1      70.956  46.556  50.325  1.00  0.00    -0.080 N 
HETATM   20  N8  UNL     1      72.752  47.324  49.090  1.00  0.00    -0.219 N 
ATOM     21  H6  UNL     1      70.402  46.999  49.592  1.00  0.00     0.214 HD
ATOM     22  H8  UNL     1      73.041  46.777  48.279  1.00  0.00     0.178 HD
ATOM     23  H5  UNL     1      73.864  46.710  51.518  1.00  0.00     0.185 HD
BRANCH  19  24
HETATM   24  O2  UNL     1      70.273  45.940  51.327  1.00  0.00    -0.144 OA
HETATM   25  C7  UNL     1      69.812  46.746  52.348  1.00  0.00     0.253 C 
HETATM   26  N7  UNL     1      69.436  47.435  53.201  1.00  0.00    -0.162 NA
ENDBRANCH  19  24
BRANCH  20  27
HETATM   27  C8  UNL     1      72.896  48.753  49.032  1.00  0.00     0.209 C 
BRANCH  27  28
HETATM   28  C9  UNL     1      74.369  49.152  49.121  1.00  0.00     0.371 C 
HETATM   29  F1  UNL     1      75.089  48.095  48.587  1.00  0.00    -0.213 F 
HETATM   30  F2  UNL     1      74.763  49.303  50.425  1.00  0.00    -0.213 F 
ENDBRANCH  27  28
ENDBRANCH  20  27
ENDBRANCH  13  17
ENDBRANCH  12  13
ENDBRANCH  11  12
ENDBRANCH  10  11
ENDBRANCH   5  10
ENDBRANCH   3   5
TORSDOF 10
ENDMDL
MODEL 2
REMARK VINA RESULT: -7.545009499      1.771      2.301
REMARK  10 active torsions:
REMARK  status: ('A' for Active; 'I' for Inactive)
REMARK    1  A    between atoms: N2_3  and  C2_5 
REMARK    2  A    between atoms: C2_5  and  S1_10 
REMARK    3  A    between atoms: N3_6  and  O1_8 
REMARK    4  A    between atoms: S1_10  and  C3_11 
REMARK    5  A    between atoms: C3_11  and  C4_12 
REMARK    6  A    between atoms: C4_12  and  C5_13 
REMARK    7  A    between atoms: C5_13  and  N5_17 
REMARK       I    between atoms: N5_17  and  C6_19 
REMARK       I    between atoms: C6_19  and  N8_25 
REMARK    8  A    between atoms: N6_20  and  O2_22 
REMARK    9  A    between atoms: N8_25  and  C8_27 
REMARK   10  A    between atoms: C8_27  and  C9_28 
ROOT
HETATM    1  N1  UNL     1      75.018  41.965  47.954  1.00  0.00    -0.172 NA
HETATM    2  C1  UNL     1      74.297  41.833  48.841  1.00  0.00     0.183 C 
HETATM    3  N2  UNL     1      73.434  41.693  49.912  1.00  0.00    -0.272 N 
ATOM      4  H2  UNL     1      72.573  42.238  49.887  1.00  0.00     0.180 HD
ENDROOT
BRANCH   3   5
HETATM    5  C2  UNL     1      73.632  40.871  51.030  1.00  0.00     0.173 C 
HETATM    6  N3  UNL     1      72.936  39.794  51.157  1.00  0.00    -0.247 N 
ATOM      7  H3  UNL     1      73.077  39.193  51.969  1.00  0.00     0.196 HD
BRANCH   6   8
HETATM    8  O1  UNL     1      72.022  39.457  50.222  1.00  0.00    -0.288 OA
ATOM      9  H1  UNL     1      71.130  39.776  50.285  1.00  0.00     0.244 HD
ENDBRANCH   6   8
BRANCH   5  10
HETATM   10  S1  UNL     1      74.803  41.209  52.323  1.00  0.00    -0.091 SA
BRANCH  10  11
HETATM   11  C3  UNL     1      74.557  42.821  53.078  1.00  0.00     0.090 C 
BRANCH  11  12
HETATM   12  C4  UNL     1      74.994  43.962  52.229  1.00  0.00     0.087 C 
BRANCH  12  13
HETATM   13  C5  UNL     1      74.073  45.102  52.423  1.00  0.00     0.091 C 
HETATM   14  N4  UNL     1      73.184  45.106  53.339  1.00  0.00    -0.388 N 
ATOM     15  H42 UNL     1      73.151  44.275  53.928  1.00  0.00     0.157 HD
ATOM     16  H41 UNL     1      72.548  45.893  53.473  1.00  0.00     0.157 HD
BRANCH  13  17
HETATM   17  N5  UNL     1      74.118  46.266  51.598  1.00  0.00    -0.179 N 
HETATM   18  C6  UNL     1      73.796  46.291  50.220  1.00  0.00     0.700 C 
HETATM   19  N6  UNL     1      72.701  45.876  49.708  1.00  0.00    -0.080 N 
HETATM   20  N8  UNL     1      74.775  46.824  49.336  1.00  0.00    -0.219 N 
ATOM     21  H6  UNL     1      72.604  45.955  48.697  1.00  0.00     0.214 HD
ATOM     22  H8  UNL     1      75.530  46.212  49.026  1.00  0.00     0.178 HD
ATOM     23  H5  UNL     1      74.404  47.144  52.032  1.00  0.00     0.185 HD
BRANCH  19  24
HETATM   24  O2  UNL     1      71.653  45.339  50.389  1.00  0.00    -0.144 OA
HETATM   25  C7  UNL     1      70.757  46.228  50.947  1.00  0.00     0.253 C 
HETATM   26  N7  UNL     1      70.016  46.987  51.416  1.00  0.00    -0.162 NA
ENDBRANCH  19  24
BRANCH  20  27
HETATM   27  C8  UNL     1      74.759  48.179  48.856  1.00  0.00     0.209 C 
BRANCH  27  28
HETATM   28  C9  UNL     1      74.338  49.142  49.966  1.00  0.00     0.371 C 
HETATM   29  F1  UNL     1      73.398  49.992  49.404  1.00  0.00    -0.213 F 
HETATM   30  F2  UNL     1      75.394  49.910  50.381  1.00  0.00    -0.213 F 
ENDBRANCH  27  28
ENDBRANCH  20  27
ENDBRANCH  13  17
ENDBRANCH  12  13
ENDBRANCH  11  12
ENDBRANCH  10  11
ENDBRANCH   5  10
ENDBRANCH   3   5
TORSDOF 10
ENDMDL
MODEL 3
REMARK VINA RESULT: -7.292613551      1.005      1.229
REMARK  10 active torsions:
REMARK  status: ('A' for Active; 'I' for Inactive)
REMARK    1  A    between atoms: N2_3  and  C2_5 
REMARK    2  A    between atoms: C2_5  and  S1_10 
REMARK    3  A    between atoms: N3_6  and  O1_8 
REMARK    4  A    between atoms: S1_10  and  C3_11 
REMARK    5  A    between atoms: C3_11  and  C4_12 
REMARK    6  A    between atoms: C4_12  and  C5_13 
REMARK    7  A    between atoms: C5_13  and  N5_17 
REMARK       I    between atoms: N5_17  and  C6_19 
REMARK       I    between atoms: C6_19  and  N8_25 
REMARK    8  A    between atoms: N6_20  and  O2_22 
REMARK    9  A    between atoms: N8_25  and  C8_27 
REMARK   10  A    between atoms: C8_27  and  C9_28 
ROOT
HETATM    1  N1  UNL     1      72.056  39.419  50.316  1.00  0.00    -0.172 NA
HETATM    2  C1  UNL     1      73.083  39.817  49.985  1.00  0.00     0.183 C 
HETATM    3  N2  UNL     1      74.327  40.283  49.599  1.00  0.00    -0.272 N 
ATOM      4  H2  UNL     1      74.942  39.622  49.126  1.00  0.00     0.180 HD
ENDROOT
BRANCH   3   5
HETATM    5  C2  UNL     1      74.820  41.579  49.798  1.00  0.00     0.173 C 
HETATM    6  N3  UNL     1      74.867  42.400  48.806  1.00  0.00    -0.247 N 
ATOM      7  H3  UNL     1      75.226  43.344  48.945  1.00  0.00     0.196 HD
BRANCH   6   8
HETATM    8  O1  UNL     1      74.445  42.017  47.581  1.00  0.00    -0.288 OA
ATOM      9  H1  UNL     1      75.049  41.995  46.849  1.00  0.00     0.244 HD
ENDBRANCH   6   8
BRANCH   5  10
HETATM   10  S1  UNL     1      75.405  42.198  51.358  1.00  0.00    -0.091 SA
BRANCH  10  11
HETATM   11  C3  UNL     1      74.075  42.489  52.531  1.00  0.00     0.090 C 
BRANCH  11  12
HETATM   12  C4  UNL     1      72.825  43.011  51.916  1.00  0.00     0.087 C 
BRANCH  12  13
HETATM   13  C5  UNL     1      72.463  44.296  52.550  1.00  0.00     0.091 C 
HETATM   14  N4  UNL     1      71.959  44.356  53.721  1.00  0.00    -0.388 N 
ATOM     15  H42 UNL     1      71.826  43.462  54.192  1.00  0.00     0.157 HD
ATOM     16  H41 UNL     1      71.710  45.243  54.159  1.00  0.00     0.157 HD
BRANCH  13  17
HETATM   17  N5  UNL     1      72.649  45.549  51.890  1.00  0.00    -0.179 N 
HETATM   18  C6  UNL     1      71.770  46.089  50.921  1.00  0.00     0.700 C 
HETATM   19  N6  UNL     1      70.516  46.271  51.078  1.00  0.00    -0.080 N 
HETATM   20  N8  UNL     1      72.338  46.459  49.669  1.00  0.00    -0.219 N 
ATOM     21  H6  UNL     1      70.004  46.669  50.292  1.00  0.00     0.214 HD
ATOM     22  H8  UNL     1      72.474  45.731  48.967  1.00  0.00     0.178 HD
ATOM     23  H5  UNL     1      73.475  46.095  52.136  1.00  0.00     0.185 HD
BRANCH  19  24
HETATM   24  O2  UNL     1      69.800  45.981  52.198  1.00  0.00    -0.144 OA
HETATM   25  C7  UNL     1      69.411  47.051  52.977  1.00  0.00     0.253 C 
HETATM   26  N7  UNL     1      69.095  47.960  53.625  1.00  0.00    -0.162 NA
ENDBRANCH  19  24
BRANCH  20  27
HETATM   27  C8  UNL     1      72.728  47.802  49.340  1.00  0.00     0.209 C 
BRANCH  27  28
HETATM   28  C9  UNL     1      74.225  48.004  49.573  1.00  0.00     0.371 C 
HETATM   29  F1  UNL     1      74.343  49.120  50.387  1.00  0.00    -0.213 F 
HETATM   30  F2  UNL     1      74.877  48.277  48.399  1.00  0.00    -0.213 F 
ENDBRANCH  27  28
ENDBRANCH  20  27
ENDBRANCH  13  17
ENDBRANCH  12  13
ENDBRANCH  11  12
ENDBRANCH  10  11
ENDBRANCH   5  10
ENDBRANCH   3   5
TORSDOF 10
ENDMDL
MODEL 4
REMARK VINA RESULT: -7.025849219      2.108      2.392
REMARK  10 active torsions:
REMARK  status: ('A' for Active; 'I' for Inactive)
REMARK    1  A    between atoms: N2_3  and  C2_5 
REMARK    2  A    between atoms: C2_5  and  S1_10 
REMARK    3  A    between atoms: N3_6  and  O1_8 
REMARK    4  A    between atoms: S1_10  and  C3_11 
REMARK    5  A    between atoms: C3_11  and  C4_12 
REMARK    6  A    between atoms: C4_12  and  C5_13 
REMARK    7  A    between atoms: C5_13  and  N5_17 
REMARK       I    between atoms: N5_17  and  C6_19 
REMARK       I    between atoms: C6_19  and  N8_25 
REMARK    8  A    between atoms: N6_20  and  O2_22 
REMARK    9  A    between atoms: N8_25  and  C8_27 
REMARK   10  A    between atoms: C8_27  and  C9_28 
ROOT
HETATM    1  N1  UNL     1      72.098  39.484  50.373  1.00  0.00    -0.172 NA
HETATM    2  C1  UNL     1      73.119  39.888  50.030  1.00  0.00     0.183 C 
HETATM    3  N2  UNL     1      74.355  40.362  49.630  1.00  0.00    -0.272 N 
ATOM      4  H2  UNL     1      74.966  39.706  49.143  1.00  0.00     0.180 HD
ENDROOT
BRANCH   3   5
HETATM    5  C2  UNL     1      74.847  41.658  49.832  1.00  0.00     0.173 C 
HETATM    6  N3  UNL     1      74.887  42.483  48.842  1.00  0.00    -0.247 N 
ATOM      7  H3  UNL     1      75.244  43.427  48.984  1.00  0.00     0.196 HD
BRANCH   6   8
HETATM    8  O1  UNL     1      74.458  42.104  47.619  1.00  0.00    -0.288 OA
ATOM      9  H1  UNL     1      74.845  42.477  46.836  1.00  0.00     0.244 HD
ENDBRANCH   6   8
BRANCH   5  10
HETATM   10  S1  UNL     1      75.440  42.271  51.391  1.00  0.00    -0.091 SA
BRANCH  10  11
HETATM   11  C3  UNL     1      74.374  43.538  52.089  1.00  0.00     0.090 C 
BRANCH  11  12
HETATM   12  C4  UNL     1      73.285  43.008  52.953  1.00  0.00     0.087 C 
BRANCH  12  13
HETATM   13  C5  UNL     1      72.545  44.134  53.561  1.00  0.00     0.091 C 
HETATM   14  N4  UNL     1      72.219  44.143  54.795  1.00  0.00    -0.388 N 
ATOM     15  H42 UNL     1      72.504  43.326  55.335  1.00  0.00     0.157 HD
ATOM     16  H41 UNL     1      71.709  44.920  55.215  1.00  0.00     0.157 HD
BRANCH  13  17
HETATM   17  N5  UNL     1      72.147  45.278  52.806  1.00  0.00    -0.179 N 
HETATM   18  C6  UNL     1      71.052  45.311  51.909  1.00  0.00     0.700 C 
HETATM   19  N6  UNL     1      69.851  44.985  52.195  1.00  0.00    -0.080 N 
HETATM   20  N8  UNL     1      71.318  45.746  50.580  1.00  0.00    -0.219 N 
ATOM     21  H6  UNL     1      69.161  45.058  51.448  1.00  0.00     0.214 HD
ATOM     22  H8  UNL     1      71.689  45.066  49.916  1.00  0.00     0.178 HD
ATOM     23  H5  UNL     1      72.689  46.134  52.921  1.00  0.00     0.185 HD
BRANCH  19  24
HETATM   24  O2  UNL     1      69.406  44.549  53.405  1.00  0.00    -0.144 OA
HETATM   25  C7  UNL     1      69.050  43.219  53.490  1.00  0.00     0.253 C 
HETATM   26  N7  UNL     1      68.749  42.100  53.545  1.00  0.00    -0.162 NA
ENDBRANCH  19  24
BRANCH  20  27
HETATM   27  C8  UNL     1      71.093  47.090  50.124  1.00  0.00     0.209 C 
BRANCH  27  28
HETATM   28  C9  UNL     1      72.394  47.719  49.627  1.00  0.00     0.371 C 
HETATM   29  F1  UNL     1      73.374  47.349  50.535  1.00  0.00    -0.213 F 
HETATM   30  F2  UNL     1      72.318  49.087  49.636  1.00  0.00    -0.213 F 
ENDBRANCH  27  28
ENDBRANCH  20  27
ENDBRANCH  13  17
ENDBRANCH  12  13
ENDBRANCH  11  12
ENDBRANCH  10  11
ENDBRANCH   5  10
ENDBRANCH   3   5
TORSDOF 10
ENDMDL
MODEL 5
REMARK VINA RESULT: -6.975503238      1.789      2.089
REMARK  10 active torsions:
REMARK  status: ('A' for Active; 'I' for Inactive)
REMARK    1  A    between atoms: N2_3  and  C2_5 
REMARK    2  A    between atoms: C2_5  and  S1_10 
REMARK    3  A    between atoms: N3_6  and  O1_8 
REMARK    4  A    between atoms: S1_10  and  C3_11 
REMARK    5  A    between atoms: C3_11  and  C4_12 
REMARK    6  A    between atoms: C4_12  and  C5_13 
REMARK    7  A    between atoms: C5_13  and  N5_17 
REMARK       I    between atoms: N5_17  and  C6_19 
REMARK       I    between atoms: C6_19  and  N8_25 
REMARK    8  A    between atoms: N6_20  and  O2_22 
REMARK    9  A    between atoms: N8_25  and  C8_27 
REMARK   10  A    between atoms: C8_27  and  C9_28 
ROOT
HETATM    1  N1  UNL     1      74.693  41.098  54.132  1.00  0.00    -0.172 NA
HETATM    2  C1  UNL     1      74.332  40.566  53.178  1.00  0.00     0.183 C 
HETATM    3  N2  UNL     1      73.914  39.914  52.032  1.00  0.00    -0.272 N 
ATOM      4  H2  UNL     1      73.589  38.954  52.139  1.00  0.00     0.180 HD
ENDROOT
BRANCH   3   5
HETATM    5  C2  UNL     1      73.895  40.451  50.738  1.00  0.00     0.173 C 
HETATM    6  N3  UNL     1      72.904  40.187  49.956  1.00  0.00    -0.247 N 
ATOM      7  H3  UNL     1      72.886  40.575  49.013  1.00  0.00     0.196 HD
BRANCH   6   8
HETATM    8  O1  UNL     1      71.891  39.401  50.378  1.00  0.00    -0.288 OA
ATOM      9  H1  UNL     1      71.057  39.407  49.925  1.00  0.00     0.244 HD
ENDBRANCH   6   8
BRANCH   5  10
HETATM   10  S1  UNL     1      75.168  41.496  50.070  1.00  0.00    -0.091 SA
BRANCH  10  11
HETATM   11  C3  UNL     1      75.021  43.202  50.614  1.00  0.00     0.090 C 
BRANCH  11  12
HETATM   12  C4  UNL     1      73.644  43.594  51.021  1.00  0.00     0.087 C 
BRANCH  12  13
HETATM   13  C5  UNL     1      73.705  44.818  51.847  1.00  0.00     0.091 C 
HETATM   14  N4  UNL     1      73.895  44.776  53.109  1.00  0.00    -0.388 N 
ATOM     15  H42 UNL     1      74.005  43.844  53.509  1.00  0.00     0.157 HD
ATOM     16  H41 UNL     1      73.936  45.620  53.679  1.00  0.00     0.157 HD
BRANCH  13  17
HETATM   17  N5  UNL     1      73.550  46.122  51.288  1.00  0.00    -0.179 N 
HETATM   18  C6  UNL     1      72.625  46.460  50.270  1.00  0.00     0.700 C 
HETATM   19  N6  UNL     1      71.367  46.244  50.314  1.00  0.00    -0.080 N 
HETATM   20  N8  UNL     1      73.146  47.091  49.106  1.00  0.00    -0.219 N 
ATOM     21  H6  UNL     1      70.819  46.540  49.506  1.00  0.00     0.214 HD
ATOM     22  H8  UNL     1      73.551  46.502  48.378  1.00  0.00     0.178 HD
ATOM     23  H5  UNL     1      74.149  46.866  51.646  1.00  0.00     0.185 HD
BRANCH  19  24
HETATM   24  O2  UNL     1      70.690  45.657  51.337  1.00  0.00    -0.144 OA
HETATM   25  C7  UNL     1      69.974  46.495  52.167  1.00  0.00     0.253 C 
HETATM   26  N7  UNL     1      69.382  47.213  52.859  1.00  0.00    -0.162 NA
ENDBRANCH  19  24
BRANCH  20  27
HETATM   27  C8  UNL     1      73.133  48.513  48.900  1.00  0.00     0.209 C 
BRANCH  27  28
HETATM   28  C9  UNL     1      74.546  49.087  48.994  1.00  0.00     0.371 C 
HETATM   29  F1  UNL     1      75.400  48.085  48.559  1.00  0.00    -0.213 F 
HETATM   30  F2  UNL     1      74.878  49.378  50.292  1.00  0.00    -0.213 F 
ENDBRANCH  27  28
ENDBRANCH  20  27
ENDBRANCH  13  17
ENDBRANCH  12  13
ENDBRANCH  11  12
ENDBRANCH  10  11
ENDBRANCH   5  10
ENDBRANCH   3   5
TORSDOF 10
ENDMDL
