MODEL 1
REMARK VINA RESULT: -7.633645748      0.000      0.000
REMARK  10 active torsions:
REMARK  status: ('A' for Active; 'I' for Inactive)
REMARK    1  A    between atoms: C2_2  and  O1_3 
REMARK    2  A    between atoms: C2_2  and  C11_24 
REMARK    3  A    between atoms: O1_3  and  N1_4 
REMARK    4  A    between atoms: C5_12  and  O3_13 
REMARK    5  A    between atoms: C5_12  and  C6_15 
REMARK    6  A    between atoms: C6_15  and  O4_16 
REMARK    7  A    between atoms: C8_19  and  C9_20 
REMARK    8  A    between atoms: C9_20  and  C10_21 
REMARK    9  A    between atoms: C11_24  and  O5_25 
REMARK   10  A    between atoms: C11_24  and  O6_27 
ROOT
HETATM    1  N1  UNL     1      74.446  45.699  50.938  1.00  0.00    -0.247 N 
ATOM      2  H1  UNL     1      74.442  46.075  51.886  1.00  0.00     0.196 HD
HETATM    3  C3  UNL     1      74.474  44.417  50.801  1.00  0.00     0.149 C 
HETATM    4  O2  UNL     1      74.481  43.819  49.564  1.00  0.00    -0.280 OA
HETATM    5  C4  UNL     1      74.532  42.442  49.359  1.00  0.00     0.156 C 
HETATM    6  N2  UNL     1      74.429  41.931  48.177  1.00  0.00    -0.381 N 
ATOM      7  H21 UNL     1      74.466  40.923  48.028  1.00  0.00     0.158 HD
ATOM      8  H22 UNL     1      74.307  42.512  47.348  1.00  0.00     0.158 HD
HETATM    9  C5  UNL     1      74.710  41.592  50.573  1.00  0.00     0.144 C 
HETATM   10  C7  UNL     1      73.859  42.259  51.665  1.00  0.00     0.061 C 
HETATM   11  C8  UNL     1      74.498  43.570  52.040  1.00  0.00     0.069 C 
ENDROOT
BRANCH   1  12
HETATM   12  O1  UNL     1      74.423  46.579  49.912  1.00  0.00    -0.269 OA
BRANCH  12  13
HETATM   13  C2  UNL     1      73.880  47.873  50.010  1.00  0.00     0.203 C 
HETATM   14  C1  UNL     1      72.464  47.950  49.488  1.00  0.00     0.047 C 
BRANCH  13  15
HETATM   15  C11 UNL     1      74.742  48.830  49.192  1.00  0.00     0.284 C 
BRANCH  15  16
HETATM   16  O5  UNL     1      75.741  48.096  48.574  1.00  0.00    -0.369 OA
ATOM     17  H5  UNL     1      76.286  48.694  48.076  1.00  0.00     0.212 HD
ENDBRANCH  15  16
BRANCH  15  18
HETATM   18  O6  UNL     1      75.251  49.840  50.011  1.00  0.00    -0.369 OA
ATOM     19  H6  UNL     1      75.298  50.659  49.532  1.00  0.00     0.212 HD
ENDBRANCH  15  18
ENDBRANCH  13  15
ENDBRANCH  12  13
ENDBRANCH   1  12
BRANCH  11  20
HETATM   20  C9  UNL     1      73.716  44.217  53.132  1.00  0.00     0.049 C 
BRANCH  20  21
HETATM   21  C10 UNL     1      72.384  43.585  53.320  1.00  0.00     0.179 C 
HETATM   22 CL1  UNL     1      71.159  44.746  52.696  1.00  0.00    -0.108 Cl
HETATM   23 CL2  UNL     1      71.995  43.241  55.002  1.00  0.00    -0.108 Cl
ENDBRANCH  20  21
ENDBRANCH  11  20
BRANCH   9  24
HETATM   24  O3  UNL     1      76.047  41.588  50.892  1.00  0.00    -0.379 OA
ATOM     25  H3  UNL     1      76.131  41.284  51.789  1.00  0.00     0.211 HD
ENDBRANCH   9  24
BRANCH   9  26
HETATM   26  C6  UNL     1      74.149  40.211  50.372  1.00  0.00     0.210 C 
BRANCH  26  27
HETATM   27  O4  UNL     1      75.064  39.350  49.787  1.00  0.00    -0.397 OA
ATOM     28  H4  UNL     1      75.411  38.716  50.404  1.00  0.00     0.209 HD
ENDBRANCH  26  27
ENDBRANCH   9  26
TORSDOF 10
ENDMDL
MODEL 2
REMARK VINA RESULT: -7.609797612      1.085      1.644
REMARK  10 active torsions:
REMARK  status: ('A' for Active; 'I' for Inactive)
REMARK    1  A    between atoms: C2_2  and  O1_3 
REMARK    2  A    between atoms: C2_2  and  C11_24 
REMARK    3  A    between atoms: O1_3  and  N1_4 
REMARK    4  A    between atoms: C5_12  and  O3_13 
REMARK    5  A    between atoms: C5_12  and  C6_15 
REMARK    6  A    between atoms: C6_15  and  O4_16 
REMARK    7  A    between atoms: C8_19  and  C9_20 
REMARK    8  A    between atoms: C9_20  and  C10_21 
REMARK    9  A    between atoms: C11_24  and  O5_25 
REMARK   10  A    between atoms: C11_24  and  O6_27 
ROOT
HETATM    1  N1  UNL     1      74.429  45.798  50.694  1.00  0.00    -0.247 N 
ATOM      2  H1  UNL     1      74.401  46.272  51.597  1.00  0.00     0.196 HD
HETATM    3  C3  UNL     1      74.464  44.508  50.694  1.00  0.00     0.149 C 
HETATM    4  O2  UNL     1      74.503  43.784  49.527  1.00  0.00    -0.280 OA
HETATM    5  C4  UNL     1      74.564  42.394  49.470  1.00  0.00     0.156 C 
HETATM    6  N2  UNL     1      74.491  41.761  48.346  1.00  0.00    -0.381 N 
ATOM      7  H21 UNL     1      74.535  40.742  48.304  1.00  0.00     0.158 HD
ATOM      8  H22 UNL     1      74.386  42.250  47.457  1.00  0.00     0.158 HD
HETATM    9  C5  UNL     1      74.716  41.677  50.770  1.00  0.00     0.144 C 
HETATM   10  C7  UNL     1      73.837  42.449  51.766  1.00  0.00     0.061 C 
HETATM   11  C8  UNL     1      74.463  43.796  52.015  1.00  0.00     0.069 C 
ENDROOT
BRANCH   1  12
HETATM   12  O1  UNL     1      74.427  46.565  49.582  1.00  0.00    -0.269 OA
BRANCH  12  13
HETATM   13  C2  UNL     1      73.428  47.511  49.292  1.00  0.00     0.203 C 
HETATM   14  C1  UNL     1      73.822  48.915  49.690  1.00  0.00     0.047 C 
BRANCH  13  15
HETATM   15  C11 UNL     1      72.161  47.137  50.056  1.00  0.00     0.284 C 
BRANCH  15  16
HETATM   16  O5  UNL     1      71.764  45.874  49.649  1.00  0.00    -0.369 OA
ATOM     17  H5  UNL     1      71.403  45.418  50.399  1.00  0.00     0.212 HD
ENDBRANCH  15  16
BRANCH  15  18
HETATM   18  O6  UNL     1      71.171  48.100  49.849  1.00  0.00    -0.369 OA
ATOM     19  H6  UNL     1      70.460  47.735  49.336  1.00  0.00     0.212 HD
ENDBRANCH  15  18
ENDBRANCH  13  15
ENDBRANCH  12  13
ENDBRANCH   1  12
BRANCH  11  20
HETATM   20  C9  UNL     1      73.652  44.550  53.015  1.00  0.00     0.049 C 
BRANCH  20  21
HETATM   21  C10 UNL     1      72.336  43.909  53.270  1.00  0.00     0.179 C 
HETATM   22 CL1  UNL     1      71.075  45.154  52.957  1.00  0.00    -0.108 Cl
HETATM   23 CL2  UNL     1      72.135  43.340  54.924  1.00  0.00    -0.108 Cl
ENDBRANCH  20  21
ENDBRANCH  11  20
BRANCH   9  24
HETATM   24  O3  UNL     1      76.045  41.715  51.118  1.00  0.00    -0.379 OA
ATOM     25  H3  UNL     1      76.118  42.190  51.938  1.00  0.00     0.211 HD
ENDBRANCH   9  24
BRANCH   9  26
HETATM   26  C6  UNL     1      74.165  40.279  50.702  1.00  0.00     0.210 C 
BRANCH  26  27
HETATM   27  O4  UNL     1      74.971  39.430  49.961  1.00  0.00    -0.397 OA
ATOM     28  H4  UNL     1      74.703  38.521  50.035  1.00  0.00     0.209 HD
ENDBRANCH  26  27
ENDBRANCH   9  26
TORSDOF 10
ENDMDL
MODEL 3
REMARK VINA RESULT: -7.563059946      1.230      1.739
REMARK  10 active torsions:
REMARK  status: ('A' for Active; 'I' for Inactive)
REMARK    1  A    between atoms: C2_2  and  O1_3 
REMARK    2  A    between atoms: C2_2  and  C11_24 
REMARK    3  A    between atoms: O1_3  and  N1_4 
REMARK    4  A    between atoms: C5_12  and  O3_13 
REMARK    5  A    between atoms: C5_12  and  C6_15 
REMARK    6  A    between atoms: C6_15  and  O4_16 
REMARK    7  A    between atoms: C8_19  and  C9_20 
REMARK    8  A    between atoms: C9_20  and  C10_21 
REMARK    9  A    between atoms: C11_24  and  O5_25 
REMARK   10  A    between atoms: C11_24  and  O6_27 
ROOT
HETATM    1  N1  UNL     1      74.312  45.742  50.649  1.00  0.00    -0.247 N 
ATOM      2  H1  UNL     1      74.044  46.167  51.536  1.00  0.00     0.196 HD
HETATM    3  C3  UNL     1      74.259  44.456  50.559  1.00  0.00     0.149 C 
HETATM    4  O2  UNL     1      74.600  43.793  49.405  1.00  0.00    -0.280 OA
HETATM    5  C4  UNL     1      74.581  42.408  49.262  1.00  0.00     0.156 C 
HETATM    6  N2  UNL     1      74.809  41.844  48.122  1.00  0.00    -0.381 N 
ATOM      7  H21 UNL     1      74.795  40.830  48.017  1.00  0.00     0.158 HD
ATOM      8  H22 UNL     1      75.011  42.388  47.283  1.00  0.00     0.158 HD
HETATM    9  C5  UNL     1      74.285  41.613  50.490  1.00  0.00     0.144 C 
HETATM   10  C7  UNL     1      73.200  42.405  51.236  1.00  0.00     0.061 C 
HETATM   11  C8  UNL     1      73.810  43.677  51.762  1.00  0.00     0.069 C 
ENDROOT
BRANCH   1  12
HETATM   12  O1  UNL     1      74.698  46.564  49.648  1.00  0.00    -0.269 OA
BRANCH  12  13
HETATM   13  C2  UNL     1      74.028  47.756  49.320  1.00  0.00     0.203 C 
HETATM   14  C1  UNL     1      74.578  48.955  50.058  1.00  0.00     0.047 C 
BRANCH  13  15
HETATM   15  C11 UNL     1      72.554  47.607  49.684  1.00  0.00     0.284 C 
BRANCH  15  16
HETATM   16  O5  UNL     1      72.049  46.505  49.015  1.00  0.00    -0.369 OA
ATOM     17  H5  UNL     1      71.289  46.189  49.490  1.00  0.00     0.212 HD
ENDBRANCH  15  16
BRANCH  15  18
HETATM   18  O6  UNL     1      71.861  48.780  49.379  1.00  0.00    -0.369 OA
ATOM     19  H6  UNL     1      70.992  48.758  49.763  1.00  0.00     0.212 HD
ENDBRANCH  15  18
ENDBRANCH  13  15
ENDBRANCH  12  13
ENDBRANCH   1  12
BRANCH  11  20
HETATM   20  C9  UNL     1      72.788  44.445  52.530  1.00  0.00     0.049 C 
BRANCH  20  21
HETATM   21  C10 UNL     1      73.077  44.463  53.989  1.00  0.00     0.179 C 
HETATM   22 CL1  UNL     1      72.550  42.873  54.648  1.00  0.00    -0.108 Cl
HETATM   23 CL2  UNL     1      72.216  45.723  54.865  1.00  0.00    -0.108 Cl
ENDBRANCH  20  21
ENDBRANCH  11  20
BRANCH   9  24
HETATM   24  O3  UNL     1      75.446  41.516  51.219  1.00  0.00    -0.379 OA
ATOM     25  H3  UNL     1      75.416  40.701  51.708  1.00  0.00     0.211 HD
ENDBRANCH   9  24
BRANCH   9  26
HETATM   26  C6  UNL     1      73.688  40.274  50.154  1.00  0.00     0.210 C 
BRANCH  26  27
HETATM   27  O4  UNL     1      74.651  39.334  49.825  1.00  0.00    -0.397 OA
ATOM     28  H4  UNL     1      75.174  39.599  49.076  1.00  0.00     0.209 HD
ENDBRANCH  26  27
ENDBRANCH   9  26
TORSDOF 10
ENDMDL
MODEL 4
REMARK VINA RESULT: -7.163118966      1.352      1.714
REMARK  10 active torsions:
REMARK  status: ('A' for Active; 'I' for Inactive)
REMARK    1  A    between atoms: C2_2  and  O1_3 
REMARK    2  A    between atoms: C2_2  and  C11_24 
REMARK    3  A    between atoms: O1_3  and  N1_4 
REMARK    4  A    between atoms: C5_12  and  O3_13 
REMARK    5  A    between atoms: C5_12  and  C6_15 
REMARK    6  A    between atoms: C6_15  and  O4_16 
REMARK    7  A    between atoms: C8_19  and  C9_20 
REMARK    8  A    between atoms: C9_20  and  C10_21 
REMARK    9  A    between atoms: C11_24  and  O5_25 
REMARK   10  A    between atoms: C11_24  and  O6_27 
ROOT
HETATM    1  N1  UNL     1      74.377  46.255  50.433  1.00  0.00    -0.247 N 
ATOM      2  H1  UNL     1      74.393  46.856  51.256  1.00  0.00     0.196 HD
HETATM    3  C3  UNL     1      74.434  44.979  50.619  1.00  0.00     0.149 C 
HETATM    4  O2  UNL     1      74.419  44.091  49.572  1.00  0.00    -0.280 OA
HETATM    5  C4  UNL     1      74.500  42.708  49.716  1.00  0.00     0.156 C 
HETATM    6  N2  UNL     1      74.373  41.915  48.704  1.00  0.00    -0.381 N 
ATOM      7  H21 UNL     1      74.432  40.902  48.810  1.00  0.00     0.158 HD
ATOM      8  H22 UNL     1      74.208  42.267  47.761  1.00  0.00     0.158 HD
HETATM    9  C5  UNL     1      74.740  42.193  51.096  1.00  0.00     0.144 C 
HETATM   10  C7  UNL     1      73.906  43.096  52.019  1.00  0.00     0.061 C 
HETATM   11  C8  UNL     1      74.522  44.471  52.029  1.00  0.00     0.069 C 
ENDROOT
BRANCH   1  12
HETATM   12  O1  UNL     1      74.297  46.849  49.221  1.00  0.00    -0.269 OA
BRANCH  12  13
HETATM   13  C2  UNL     1      74.301  48.243  49.038  1.00  0.00     0.203 C 
HETATM   14  C1  UNL     1      74.877  48.984  50.222  1.00  0.00     0.047 C 
BRANCH  13  15
HETATM   15  C11 UNL     1      72.865  48.716  48.833  1.00  0.00     0.284 C 
BRANCH  15  16
HETATM   16  O5  UNL     1      72.763  50.014  49.302  1.00  0.00    -0.369 OA
ATOM     17  H5  UNL     1      71.918  50.361  49.040  1.00  0.00     0.212 HD
ENDBRANCH  15  16
BRANCH  15  18
HETATM   18  O6  UNL     1      71.976  47.847  49.469  1.00  0.00    -0.369 OA
ATOM     19  H6  UNL     1      71.948  48.030  50.400  1.00  0.00     0.212 HD
ENDBRANCH  15  18
ENDBRANCH  13  15
ENDBRANCH  12  13
ENDBRANCH   1  12
BRANCH  11  20
HETATM   20  C9  UNL     1      73.758  45.357  52.954  1.00  0.00     0.049 C 
BRANCH  20  21
HETATM   21  C10 UNL     1      72.439  44.779  53.325  1.00  0.00     0.179 C 
HETATM   22 CL1  UNL     1      71.201  45.600  52.309  1.00  0.00    -0.108 Cl
HETATM   23 CL2  UNL     1      72.007  45.030  55.012  1.00  0.00    -0.108 Cl
ENDBRANCH  20  21
ENDBRANCH  11  20
BRANCH   9  24
HETATM   24  O3  UNL     1      76.086  42.293  51.355  1.00  0.00    -0.379 OA
ATOM     25  H3  UNL     1      76.418  41.417  51.513  1.00  0.00     0.211 HD
ENDBRANCH   9  24
BRANCH   9  26
HETATM   26  C6  UNL     1      74.211  40.796  51.268  1.00  0.00     0.210 C 
BRANCH  26  27
HETATM   27  O4  UNL     1      72.850  40.712  51.018  1.00  0.00    -0.397 OA
ATOM     28  H4  UNL     1      72.373  41.462  51.356  1.00  0.00     0.209 HD
ENDBRANCH  26  27
ENDBRANCH   9  26
TORSDOF 10
ENDMDL
MODEL 5
REMARK VINA RESULT: -6.839536697      3.507      4.865
REMARK  10 active torsions:
REMARK  status: ('A' for Active; 'I' for Inactive)
REMARK    1  A    between atoms: C2_2  and  O1_3 
REMARK    2  A    between atoms: C2_2  and  C11_24 
REMARK    3  A    between atoms: O1_3  and  N1_4 
REMARK    4  A    between atoms: C5_12  and  O3_13 
REMARK    5  A    between atoms: C5_12  and  C6_15 
REMARK    6  A    between atoms: C6_15  and  O4_16 
REMARK    7  A    between atoms: C8_19  and  C9_20 
REMARK    8  A    between atoms: C9_20  and  C10_21 
REMARK    9  A    between atoms: C11_24  and  O5_25 
REMARK   10  A    between atoms: C11_24  and  O6_27 
ROOT
HETATM    1  N1  UNL     1      71.289  45.520  51.068  1.00  0.00    -0.247 N 
ATOM      2  H1  UNL     1      71.407  46.505  50.832  1.00  0.00     0.196 HD
HETATM    3  C3  UNL     1      72.291  44.731  50.872  1.00  0.00     0.149 C 
HETATM    4  O2  UNL     1      72.225  43.389  51.160  1.00  0.00    -0.280 OA
HETATM    5  C4  UNL     1      73.268  42.490  50.949  1.00  0.00     0.156 C 
HETATM    6  N2  UNL     1      73.189  41.261  51.336  1.00  0.00    -0.381 N 
ATOM      7  H21 UNL     1      73.953  40.603  51.182  1.00  0.00     0.158 HD
ATOM      8  H22 UNL     1      72.362  40.898  51.812  1.00  0.00     0.158 HD
HETATM    9  C5  UNL     1      74.477  43.022  50.254  1.00  0.00     0.144 C 
HETATM   10  C7  UNL     1      74.677  44.440  50.811  1.00  0.00     0.061 C 
HETATM   11  C8  UNL     1      73.556  45.314  50.313  1.00  0.00     0.069 C 
ENDROOT
BRANCH   1  12
HETATM   12  O1  UNL     1      70.093  45.131  51.563  1.00  0.00    -0.269 OA
BRANCH  12  13
HETATM   13  C2  UNL     1      69.781  45.132  52.934  1.00  0.00     0.203 C 
HETATM   14  C1  UNL     1      68.738  44.101  53.295  1.00  0.00     0.047 C 
BRANCH  13  15
HETATM   15  C11 UNL     1      69.242  46.508  53.313  1.00  0.00     0.284 C 
BRANCH  15  16
HETATM   16  O5  UNL     1      67.882  46.393  53.550  1.00  0.00    -0.369 OA
ATOM     17  H5  UNL     1      67.456  47.181  53.233  1.00  0.00     0.212 HD
ENDBRANCH  15  16
BRANCH  15  18
HETATM   18  O6  UNL     1      69.532  47.434  52.309  1.00  0.00    -0.369 OA
ATOM     19  H6  UNL     1      68.800  48.026  52.186  1.00  0.00     0.212 HD
ENDBRANCH  15  18
ENDBRANCH  13  15
ENDBRANCH  12  13
ENDBRANCH   1  12
BRANCH  11  20
HETATM   20  C9  UNL     1      73.750  46.709  50.803  1.00  0.00     0.049 C 
BRANCH  20  21
HETATM   21  C10 UNL     1      73.640  47.710  49.709  1.00  0.00     0.179 C 
HETATM   22 CL1  UNL     1      74.764  49.056  50.114  1.00  0.00    -0.108 Cl
HETATM   23 CL2  UNL     1      72.025  48.388  49.532  1.00  0.00    -0.108 Cl
ENDBRANCH  20  21
ENDBRANCH  11  20
BRANCH   9  24
HETATM   24  O3  UNL     1      74.219  43.030  48.904  1.00  0.00    -0.379 OA
ATOM     25  H3  UNL     1      75.052  43.046  48.448  1.00  0.00     0.211 HD
ENDBRANCH   9  24
BRANCH   9  26
HETATM   26  C6  UNL     1      75.712  42.240  50.611  1.00  0.00     0.210 C 
BRANCH  26  27
HETATM   27  O4  UNL     1      75.820  41.064  49.887  1.00  0.00    -0.397 OA
ATOM     28  H4  UNL     1      76.645  40.618  50.042  1.00  0.00     0.209 HD
ENDBRANCH  26  27
ENDBRANCH   9  26
TORSDOF 10
ENDMDL
