MODEL 1
REMARK VINA RESULT: -8.723921166      0.000      0.000
REMARK  7 active torsions:
REMARK  status: ('A' for Active; 'I' for Inactive)
REMARK    1  A    between atoms: C2_2  and  C5_5 
REMARK    2  A    between atoms: C9_11  and  C10_12 
REMARK    3  A    between atoms: C10_12  and  C11_13 
REMARK    4  A    between atoms: C11_13  and  C12_14 
REMARK    5  A    between atoms: C12_14  and  C13_15 
REMARK    6  A    between atoms: N4_21  and  C15_23 
REMARK    7  A    between atoms: C15_23  and  C16_24 
ROOT
HETATM    1  C12 UNL     1      49.894  49.078  19.711  1.00  0.00     0.066 C 
ENDROOT
BRANCH   1   2
HETATM    2  C11 UNL     1      48.666  49.051  18.867  1.00  0.00     0.007 C 
BRANCH   2   3
HETATM    3  C10 UNL     1      47.951  47.717  18.850  1.00  0.00     0.005 C 
BRANCH   3   4
HETATM    4  C9  UNL     1      46.524  47.826  18.403  1.00  0.00    -0.007 C 
HETATM    5  C5  UNL     1      46.239  48.660  17.225  1.00  0.00     0.014 C 
HETATM    6  C6  UNL     1      44.730  48.926  17.269  1.00  0.00     0.119 C 
HETATM    7  N1  UNL     1      43.946  47.744  17.414  1.00  0.00    -0.421 N 
HETATM    8  C7  UNL     1      44.303  46.863  18.469  1.00  0.00     0.114 C 
ATOM      9  H1  UNL     1      43.166  47.540  16.788  1.00  0.00     0.153 HD
HETATM   10  C8  UNL     1      45.795  46.498  18.411  1.00  0.00     0.024 C 
BRANCH   5  11
HETATM   11  C2  UNL     1      46.668  48.373  15.879  1.00  0.00    -0.046 C 
HETATM   12  C1  UNL     1      46.891  49.751  15.201  1.00  0.00     0.015 C 
HETATM   13  C3  UNL     1      45.703  47.687  14.939  1.00  0.00     0.015 C 
HETATM   14  C4  UNL     1      47.984  47.674  15.685  1.00  0.00     0.015 C 
ENDBRANCH   5  11
ENDBRANCH   3   4
ENDBRANCH   2   3
ENDBRANCH   1   2
BRANCH   1  15
HETATM   15  C13 UNL     1      50.052  50.361  20.460  1.00  0.00     0.069 A 
HETATM   16  N2  UNL     1      50.367  50.529  21.728  1.00  0.00    -0.296 N 
HETATM   17  N3  UNL     1      50.465  51.690  22.225  1.00  0.00    -0.279 N 
ATOM     18  H2  UNL     1      50.534  49.714  22.318  1.00  0.00     0.187 HD
HETATM   19  C14 UNL     1      50.246  52.746  21.442  1.00  0.00     0.161 A 
ATOM     20  H3  UNL     1      50.709  51.815  23.208  1.00  0.00     0.189 HD
HETATM   21  N4  UNL     1      50.296  54.017  21.760  1.00  0.00    -0.369 N 
HETATM   22  S1  UNL     1      49.887  51.993  19.944  1.00  0.00    -0.038 SA
ATOM     23  H4  UNL     1      50.529  54.291  22.714  1.00  0.00     0.161 HD
BRANCH  21  24
HETATM   24  C15 UNL     1      50.023  55.036  20.761  1.00  0.00     0.126 C 
BRANCH  24  25
HETATM   25  C16 UNL     1      48.683  55.691  20.963  1.00  0.00     0.003 A 
HETATM   26  C17 UNL     1      48.632  57.023  21.656  1.00  0.00     0.007 A 
HETATM   27  C18 UNL     1      48.314  56.915  20.208  1.00  0.00     0.007 A 
ENDBRANCH  24  25
ENDBRANCH  21  24
ENDBRANCH   1  15
TORSDOF 7
ENDMDL
MODEL 2
REMARK VINA RESULT: -8.613072068      1.210      2.407
REMARK  7 active torsions:
REMARK  status: ('A' for Active; 'I' for Inactive)
REMARK    1  A    between atoms: C2_2  and  C5_5 
REMARK    2  A    between atoms: C9_11  and  C10_12 
REMARK    3  A    between atoms: C10_12  and  C11_13 
REMARK    4  A    between atoms: C11_13  and  C12_14 
REMARK    5  A    between atoms: C12_14  and  C13_15 
REMARK    6  A    between atoms: N4_21  and  C15_23 
REMARK    7  A    between atoms: C15_23  and  C16_24 
ROOT
HETATM    1  C12 UNL     1      49.926  49.235  20.573  1.00  0.00     0.066 C 
ENDROOT
BRANCH   1   2
HETATM    2  C11 UNL     1      49.556  49.064  19.140  1.00  0.00     0.007 C 
BRANCH   2   3
HETATM    3  C10 UNL     1      48.296  48.257  18.913  1.00  0.00     0.005 C 
BRANCH   3   4
HETATM    4  C9  UNL     1      47.756  48.396  17.521  1.00  0.00    -0.007 C 
HETATM    5  C5  UNL     1      46.783  47.392  17.064  1.00  0.00     0.014 C 
HETATM    6  C6  UNL     1      46.747  47.525  15.537  1.00  0.00     0.119 C 
HETATM    7  N1  UNL     1      46.539  48.862  15.086  1.00  0.00    -0.421 N 
HETATM    8  C7  UNL     1      47.389  49.861  15.628  1.00  0.00     0.114 C 
ATOM      9  H1  UNL     1      45.814  49.089  14.405  1.00  0.00     0.153 HD
HETATM   10  C8  UNL     1      47.387  49.822  17.165  1.00  0.00     0.024 C 
BRANCH   5  11
HETATM   11  C2  UNL     1      45.452  47.220  17.593  1.00  0.00    -0.046 C 
HETATM   12  C1  UNL     1      44.848  46.007  16.837  1.00  0.00     0.015 C 
HETATM   13  C3  UNL     1      44.430  48.308  17.356  1.00  0.00     0.015 C 
HETATM   14  C4  UNL     1      45.306  46.837  19.038  1.00  0.00     0.015 C 
ENDBRANCH   5  11
ENDBRANCH   3   4
ENDBRANCH   2   3
ENDBRANCH   1   2
BRANCH   1  15
HETATM   15  C13 UNL     1      50.036  50.671  20.973  1.00  0.00     0.069 A 
HETATM   16  N2  UNL     1      50.484  51.167  22.109  1.00  0.00    -0.296 N 
HETATM   17  N3  UNL     1      50.518  52.418  22.304  1.00  0.00    -0.279 N 
ATOM     18  H2  UNL     1      50.807  50.534  22.842  1.00  0.00     0.187 HD
HETATM   19  C14 UNL     1      50.093  53.231  21.337  1.00  0.00     0.161 A 
ATOM     20  H3  UNL     1      50.865  52.797  23.185  1.00  0.00     0.189 HD
HETATM   21  N4  UNL     1      50.046  54.541  21.341  1.00  0.00    -0.369 N 
HETATM   22  S1  UNL     1      49.636  52.110  20.122  1.00  0.00    -0.038 SA
ATOM     23  H4  UNL     1      50.363  55.057  22.161  1.00  0.00     0.161 HD
BRANCH  21  24
HETATM   24  C15 UNL     1      49.546  55.262  20.183  1.00  0.00     0.126 C 
BRANCH  24  25
HETATM   25  C16 UNL     1      49.108  56.661  20.525  1.00  0.00     0.003 A 
HETATM   26  C17 UNL     1      47.656  56.908  20.821  1.00  0.00     0.007 A 
HETATM   27  C18 UNL     1      48.672  57.005  21.902  1.00  0.00     0.007 A 
ENDBRANCH  24  25
ENDBRANCH  21  24
ENDBRANCH   1  15
TORSDOF 7
ENDMDL
MODEL 3
REMARK VINA RESULT: -8.445358742      0.908      1.141
REMARK  7 active torsions:
REMARK  status: ('A' for Active; 'I' for Inactive)
REMARK    1  A    between atoms: C2_2  and  C5_5 
REMARK    2  A    between atoms: C9_11  and  C10_12 
REMARK    3  A    between atoms: C10_12  and  C11_13 
REMARK    4  A    between atoms: C11_13  and  C12_14 
REMARK    5  A    between atoms: C12_14  and  C13_15 
REMARK    6  A    between atoms: N4_21  and  C15_23 
REMARK    7  A    between atoms: C15_23  and  C16_24 
ROOT
HETATM    1  C12 UNL     1      49.928  49.108  19.458  1.00  0.00     0.066 C 
ENDROOT
BRANCH   1   2
HETATM    2  C11 UNL     1      48.603  49.083  18.777  1.00  0.00     0.007 C 
BRANCH   2   3
HETATM    3  C10 UNL     1      47.888  47.751  18.851  1.00  0.00     0.005 C 
BRANCH   3   4
HETATM    4  C9  UNL     1      46.460  47.829  18.403  1.00  0.00    -0.007 C 
HETATM    5  C5  UNL     1      46.161  48.645  17.216  1.00  0.00     0.014 C 
HETATM    6  C6  UNL     1      44.647  48.884  17.256  1.00  0.00     0.119 C 
HETATM    7  N1  UNL     1      43.885  47.690  17.413  1.00  0.00    -0.421 N 
HETATM    8  C7  UNL     1      44.256  46.827  18.478  1.00  0.00     0.114 C 
ATOM      9  H1  UNL     1      43.109  47.466  16.789  1.00  0.00     0.153 HD
HETATM   10  C8  UNL     1      45.755  46.488  18.425  1.00  0.00     0.024 C 
BRANCH   5  11
HETATM   11  C2  UNL     1      46.596  48.352  15.873  1.00  0.00    -0.046 C 
HETATM   12  C1  UNL     1      46.839  49.727  15.195  1.00  0.00     0.015 C 
HETATM   13  C3  UNL     1      45.630  47.676  14.927  1.00  0.00     0.015 C 
HETATM   14  C4  UNL     1      47.905  47.638  15.689  1.00  0.00     0.015 C 
ENDBRANCH   5  11
ENDBRANCH   3   4
ENDBRANCH   2   3
ENDBRANCH   1   2
BRANCH   1  15
HETATM   15  C13 UNL     1      50.087  50.281  20.370  1.00  0.00     0.069 A 
HETATM   16  N2  UNL     1      50.269  50.278  21.675  1.00  0.00    -0.296 N 
HETATM   17  N3  UNL     1      50.388  51.363  22.317  1.00  0.00    -0.279 N 
ATOM     18  H2  UNL     1      50.315  49.390  22.175  1.00  0.00     0.187 HD
HETATM   19  C14 UNL     1      50.328  52.516  21.650  1.00  0.00     0.161 A 
ATOM     20  H3  UNL     1      50.529  51.356  23.328  1.00  0.00     0.189 HD
HETATM   21  N4  UNL     1      50.427  53.734  22.123  1.00  0.00    -0.369 N 
HETATM   22  S1  UNL     1      50.088  51.969  20.042  1.00  0.00    -0.038 SA
ATOM     23  H4  UNL     1      50.570  53.878  23.123  1.00  0.00     0.161 HD
BRANCH  21  24
HETATM   24  C15 UNL     1      50.335  54.879  21.234  1.00  0.00     0.126 C 
BRANCH  24  25
HETATM   25  C16 UNL     1      51.126  56.058  21.734  1.00  0.00     0.003 A 
HETATM   26  C17 UNL     1      52.252  56.579  20.887  1.00  0.00     0.007 A 
HETATM   27  C18 UNL     1      51.016  57.383  21.072  1.00  0.00     0.007 A 
ENDBRANCH  24  25
ENDBRANCH  21  24
ENDBRANCH   1  15
TORSDOF 7
ENDMDL
MODEL 4
REMARK VINA RESULT: -8.405988857      1.519      2.763
REMARK  7 active torsions:
REMARK  status: ('A' for Active; 'I' for Inactive)
REMARK    1  A    between atoms: C2_2  and  C5_5 
REMARK    2  A    between atoms: C9_11  and  C10_12 
REMARK    3  A    between atoms: C10_12  and  C11_13 
REMARK    4  A    between atoms: C11_13  and  C12_14 
REMARK    5  A    between atoms: C12_14  and  C13_15 
REMARK    6  A    between atoms: N4_21  and  C15_23 
REMARK    7  A    between atoms: C15_23  and  C16_24 
ROOT
HETATM    1  C12 UNL     1      49.966  50.351  20.055  1.00  0.00     0.066 C 
ENDROOT
BRANCH   1   2
HETATM    2  C11 UNL     1      49.868  50.645  18.598  1.00  0.00     0.007 C 
BRANCH   2   3
HETATM    3  C10 UNL     1      48.457  50.875  18.101  1.00  0.00     0.005 C 
BRANCH   3   4
HETATM    4  C9  UNL     1      48.098  50.001  16.937  1.00  0.00    -0.007 C 
HETATM    5  C5  UNL     1      48.267  48.548  17.098  1.00  0.00     0.014 C 
HETATM    6  C6  UNL     1      48.245  47.976  15.675  1.00  0.00     0.119 C 
HETATM    7  N1  UNL     1      47.124  48.403  14.905  1.00  0.00    -0.421 N 
HETATM    8  C7  UNL     1      46.873  49.800  14.858  1.00  0.00     0.114 C 
ATOM      9  H1  UNL     1      46.530  47.736  14.412  1.00  0.00     0.153 HD
HETATM   10  C8  UNL     1      46.798  50.402  16.270  1.00  0.00     0.024 C 
BRANCH   5  11
HETATM   11  C2  UNL     1      47.505  47.715  17.994  1.00  0.00    -0.046 C 
HETATM   12  C1  UNL     1      47.594  46.277  17.417  1.00  0.00     0.015 C 
HETATM   13  C3  UNL     1      46.016  47.942  18.109  1.00  0.00     0.015 C 
HETATM   14  C4  UNL     1      47.997  47.553  19.405  1.00  0.00     0.015 C 
ENDBRANCH   5  11
ENDBRANCH   3   4
ENDBRANCH   2   3
ENDBRANCH   1   2
BRANCH   1  15
HETATM   15  C13 UNL     1      50.122  51.585  20.884  1.00  0.00     0.069 A 
HETATM   16  N2  UNL     1      50.424  51.673  22.163  1.00  0.00    -0.296 N 
HETATM   17  N3  UNL     1      50.522  52.800  22.732  1.00  0.00    -0.279 N 
ATOM     18  H2  UNL     1      50.581  50.821  22.703  1.00  0.00     0.187 HD
HETATM   19  C14 UNL     1      50.316  53.903  22.014  1.00  0.00     0.161 A 
ATOM     20  H3  UNL     1      50.756  52.863  23.724  1.00  0.00     0.189 HD
HETATM   21  N4  UNL     1      50.369  55.152  22.410  1.00  0.00    -0.369 N 
HETATM   22  S1  UNL     1      49.969  53.246  20.468  1.00  0.00    -0.038 SA
ATOM     23  H4  UNL     1      50.592  55.366  23.381  1.00  0.00     0.161 HD
BRANCH  21  24
HETATM   24  C15 UNL     1      50.110  56.232  21.473  1.00  0.00     0.126 C 
BRANCH  24  25
HETATM   25  C16 UNL     1      48.703  56.755  21.576  1.00  0.00     0.003 A 
HETATM   26  C17 UNL     1      48.154  57.570  20.440  1.00  0.00     0.007 A 
HETATM   27  C18 UNL     1      47.624  56.208  20.714  1.00  0.00     0.007 A 
ENDBRANCH  24  25
ENDBRANCH  21  24
ENDBRANCH   1  15
TORSDOF 7
ENDMDL
MODEL 5
REMARK VINA RESULT: -8.371539585      1.174      1.243
REMARK  7 active torsions:
REMARK  status: ('A' for Active; 'I' for Inactive)
REMARK    1  A    between atoms: C2_2  and  C5_5 
REMARK    2  A    between atoms: C9_11  and  C10_12 
REMARK    3  A    between atoms: C10_12  and  C11_13 
REMARK    4  A    between atoms: C11_13  and  C12_14 
REMARK    5  A    between atoms: C12_14  and  C13_15 
REMARK    6  A    between atoms: N4_21  and  C15_23 
REMARK    7  A    between atoms: C15_23  and  C16_24 
ROOT
HETATM    1  C12 UNL     1      49.829  49.524  19.490  1.00  0.00     0.066 C 
ENDROOT
BRANCH   1   2
HETATM    2  C11 UNL     1      48.607  49.316  18.663  1.00  0.00     0.007 C 
BRANCH   2   3
HETATM    3  C10 UNL     1      47.962  47.957  18.834  1.00  0.00     0.005 C 
BRANCH   3   4
HETATM    4  C9  UNL     1      46.527  47.933  18.401  1.00  0.00    -0.007 C 
HETATM    5  C5  UNL     1      46.168  48.686  17.189  1.00  0.00     0.014 C 
HETATM    6  C6  UNL     1      44.643  48.836  17.240  1.00  0.00     0.119 C 
HETATM    7  N1  UNL     1      43.955  47.605  17.450  1.00  0.00    -0.421 N 
HETATM    8  C7  UNL     1      44.389  46.806  18.541  1.00  0.00     0.114 C 
ATOM      9  H1  UNL     1      43.187  47.312  16.845  1.00  0.00     0.153 HD
HETATM   10  C8  UNL     1      45.904  46.555  18.481  1.00  0.00     0.024 C 
BRANCH   5  11
HETATM   11  C2  UNL     1      46.605  48.369  15.852  1.00  0.00    -0.046 C 
HETATM   12  C1  UNL     1      46.900  49.730  15.168  1.00  0.00     0.015 C 
HETATM   13  C3  UNL     1      45.626  47.719  14.902  1.00  0.00     0.015 C 
HETATM   14  C4  UNL     1      47.891  47.611  15.685  1.00  0.00     0.015 C 
ENDBRANCH   5  11
ENDBRANCH   3   4
ENDBRANCH   2   3
ENDBRANCH   1   2
BRANCH   1  15
HETATM   15  C13 UNL     1      50.225  50.961  19.584  1.00  0.00     0.069 A 
HETATM   16  N2  UNL     1      51.160  51.594  18.903  1.00  0.00    -0.296 N 
HETATM   17  N3  UNL     1      51.382  52.826  19.095  1.00  0.00    -0.279 N 
ATOM     18  H2  UNL     1      51.712  51.085  18.213  1.00  0.00     0.187 HD
HETATM   19  C14 UNL     1      50.652  53.479  19.999  1.00  0.00     0.161 A 
ATOM     20  H3  UNL     1      52.107  53.311  18.566  1.00  0.00     0.189 HD
HETATM   21  N4  UNL     1      50.724  54.742  20.342  1.00  0.00    -0.369 N 
HETATM   22  S1  UNL     1      49.621  52.233  20.571  1.00  0.00    -0.038 SA
ATOM     23  H4  UNL     1      51.408  55.350  19.893  1.00  0.00     0.161 HD
BRANCH  21  24
HETATM   24  C15 UNL     1      49.836  55.279  21.359  1.00  0.00     0.126 C 
BRANCH  24  25
HETATM   25  C16 UNL     1      49.151  56.542  20.911  1.00  0.00     0.003 A 
HETATM   26  C17 UNL     1      47.649  56.584  20.911  1.00  0.00     0.007 A 
HETATM   27  C18 UNL     1      48.425  57.399  21.883  1.00  0.00     0.007 A 
ENDBRANCH  24  25
ENDBRANCH  21  24
ENDBRANCH   1  15
TORSDOF 7
ENDMDL
