MODEL 1
REMARK VINA RESULT: -7.629117863      0.000      0.000
REMARK  8 active torsions:
REMARK  status: ('A' for Active; 'I' for Inactive)
REMARK    1  A    between atoms: C2_2  and  O1_3 
REMARK    2  A    between atoms: O1_3  and  C3_4 
REMARK       I    between atoms: C3_4  and  N1_6 
REMARK    3  A    between atoms: N1_6  and  C4_8 
REMARK    4  A    between atoms: C4_8  and  C5_9 
REMARK    5  A    between atoms: C4_8  and  C8_13 
REMARK    6  A    between atoms: C5_9  and  C6_10 
REMARK    7  A    between atoms: C6_10  and  S1_11 
REMARK       I    between atoms: C8_13  and  N2_15 
REMARK    8  A    between atoms: N2_15  and  C9_17 
ROOT
HETATM    1  C9  UNL     1      47.144  47.665  17.384  1.00  0.00     0.122 C 
HETATM    2  C10 UNL     1      47.560  46.260  17.434  1.00  0.00     0.091 C 
HETATM    3  N3  UNL     1      47.913  45.138  17.473  1.00  0.00    -0.195 NA
HETATM    4  C11 UNL     1      46.612  47.928  15.979  1.00  0.00     0.046 C 
HETATM    5  C12 UNL     1      45.582  46.859  15.691  1.00  0.00     0.004 C 
HETATM    6  C13 UNL     1      44.273  47.283  16.319  1.00  0.00     0.000 C 
HETATM    7  C14 UNL     1      44.058  46.588  17.619  1.00  0.00     0.000 C 
HETATM    8  C15 UNL     1      45.160  46.717  18.607  1.00  0.00     0.004 C 
HETATM    9  C16 UNL     1      46.066  47.900  18.388  1.00  0.00     0.046 C 
ENDROOT
BRANCH   1  10
HETATM   10  N2  UNL     1      48.261  48.537  17.704  1.00  0.00    -0.337 N 
HETATM   11  C8  UNL     1      48.905  48.570  18.947  1.00  0.00     0.241 C 
HETATM   12  O3  UNL     1      48.519  47.816  19.854  1.00  0.00    -0.271 OA
ATOM     13  H2  UNL     1      48.599  49.166  16.976  1.00  0.00     0.164 HD
BRANCH  11  14
HETATM   14  C4  UNL     1      50.025  49.484  19.181  1.00  0.00     0.179 C 
BRANCH  14  15
HETATM   15  N1  UNL     1      50.819  49.736  18.004  1.00  0.00    -0.324 N 
HETATM   16  C3  UNL     1      50.452  50.607  16.962  1.00  0.00     0.361 C 
HETATM   17  O2  UNL     1      49.376  51.268  16.954  1.00  0.00    -0.238 OA
ATOM     18  H1  UNL     1      51.710  49.247  17.920  1.00  0.00     0.165 HD
BRANCH  16  19
HETATM   19  O1  UNL     1      51.273  50.796  15.859  1.00  0.00    -0.304 OA
BRANCH  19  20
HETATM   20  C2  UNL     1      51.465  49.792  14.901  1.00  0.00     0.176 C 
HETATM   21  C1  UNL     1      50.216  49.055  14.541  1.00  0.00     0.034 C 
ENDBRANCH  19  20
ENDBRANCH  16  19
ENDBRANCH  14  15
BRANCH  14  22
HETATM   22  C5  UNL     1      49.529  50.734  19.834  1.00  0.00     0.045 C 
BRANCH  22  23
HETATM   23  C6  UNL     1      50.331  51.128  21.048  1.00  0.00     0.076 C 
BRANCH  23  24
HETATM   24  S1  UNL     1      50.301  52.952  21.220  1.00  0.00    -0.173 SA
HETATM   25  C7  UNL     1      50.575  53.645  19.585  1.00  0.00     0.089 C 
ENDBRANCH  23  24
ENDBRANCH  22  23
ENDBRANCH  14  22
ENDBRANCH  11  14
ENDBRANCH   1  10
TORSDOF 8
ENDMDL
MODEL 2
REMARK VINA RESULT: -7.597007733      2.568      4.294
REMARK  8 active torsions:
REMARK  status: ('A' for Active; 'I' for Inactive)
REMARK    1  A    between atoms: C2_2  and  O1_3 
REMARK    2  A    between atoms: O1_3  and  C3_4 
REMARK       I    between atoms: C3_4  and  N1_6 
REMARK    3  A    between atoms: N1_6  and  C4_8 
REMARK    4  A    between atoms: C4_8  and  C5_9 
REMARK    5  A    between atoms: C4_8  and  C8_13 
REMARK    6  A    between atoms: C5_9  and  C6_10 
REMARK    7  A    between atoms: C6_10  and  S1_11 
REMARK       I    between atoms: C8_13  and  N2_15 
REMARK    8  A    between atoms: N2_15  and  C9_17 
ROOT
HETATM    1  C9  UNL     1      47.620  48.725  17.418  1.00  0.00     0.122 C 
HETATM    2  C10 UNL     1      48.242  48.487  16.113  1.00  0.00     0.091 C 
HETATM    3  N3  UNL     1      48.752  48.313  15.067  1.00  0.00    -0.195 NA
HETATM    4  C11 UNL     1      46.194  49.200  17.159  1.00  0.00     0.046 C 
HETATM    5  C12 UNL     1      45.558  48.192  16.228  1.00  0.00     0.004 C 
HETATM    6  C13 UNL     1      45.070  47.025  17.057  1.00  0.00     0.000 C 
HETATM    7  C14 UNL     1      46.033  45.890  16.994  1.00  0.00     0.000 C 
HETATM    8  C15 UNL     1      47.437  46.216  17.353  1.00  0.00     0.004 C 
HETATM    9  C16 UNL     1      47.599  47.453  18.197  1.00  0.00     0.046 C 
ENDROOT
BRANCH   1  10
HETATM   10  N2  UNL     1      48.381  49.708  18.172  1.00  0.00    -0.337 N 
HETATM   11  C8  UNL     1      48.610  51.022  17.748  1.00  0.00     0.241 C 
HETATM   12  O3  UNL     1      48.145  51.403  16.663  1.00  0.00    -0.271 OA
ATOM     13  H2  UNL     1      48.773  49.421  19.069  1.00  0.00     0.164 HD
BRANCH  11  14
HETATM   14  C4  UNL     1      49.390  51.945  18.576  1.00  0.00     0.179 C 
BRANCH  14  15
HETATM   15  N1  UNL     1      48.692  53.165  18.894  1.00  0.00    -0.324 N 
HETATM   16  C3  UNL     1      49.312  54.411  19.100  1.00  0.00     0.361 C 
HETATM   17  O2  UNL     1      50.560  54.589  19.024  1.00  0.00    -0.238 OA
ATOM     18  H1  UNL     1      47.676  53.122  18.975  1.00  0.00     0.165 HD
BRANCH  16  19
HETATM   19  O1  UNL     1      48.568  55.543  19.404  1.00  0.00    -0.304 OA
BRANCH  19  20
HETATM   20  C2  UNL     1      48.681  56.191  20.640  1.00  0.00     0.176 C 
HETATM   21  C1  UNL     1      47.479  56.998  21.012  1.00  0.00     0.034 C 
ENDBRANCH  19  20
ENDBRANCH  16  19
ENDBRANCH  14  15
BRANCH  14  22
HETATM   22  C5  UNL     1      49.904  51.229  19.784  1.00  0.00     0.045 C 
BRANCH  22  23
HETATM   23  C6  UNL     1      51.374  50.907  19.702  1.00  0.00     0.076 C 
BRANCH  23  24
HETATM   24  S1  UNL     1      51.630  49.152  20.161  1.00  0.00    -0.173 SA
HETATM   25  C7  UNL     1      50.189  48.633  21.101  1.00  0.00     0.089 C 
ENDBRANCH  23  24
ENDBRANCH  22  23
ENDBRANCH  14  22
ENDBRANCH  11  14
ENDBRANCH   1  10
TORSDOF 8
ENDMDL
MODEL 3
REMARK VINA RESULT: -7.470929505      1.893      3.015
REMARK  8 active torsions:
REMARK  status: ('A' for Active; 'I' for Inactive)
REMARK    1  A    between atoms: C2_2  and  O1_3 
REMARK    2  A    between atoms: O1_3  and  C3_4 
REMARK       I    between atoms: C3_4  and  N1_6 
REMARK    3  A    between atoms: N1_6  and  C4_8 
REMARK    4  A    between atoms: C4_8  and  C5_9 
REMARK    5  A    between atoms: C4_8  and  C8_13 
REMARK    6  A    between atoms: C5_9  and  C6_10 
REMARK    7  A    between atoms: C6_10  and  S1_11 
REMARK       I    between atoms: C8_13  and  N2_15 
REMARK    8  A    between atoms: N2_15  and  C9_17 
ROOT
HETATM    1  C9  UNL     1      46.606  47.828  16.923  1.00  0.00     0.122 C 
HETATM    2  C10 UNL     1      47.285  46.543  17.111  1.00  0.00     0.091 C 
HETATM    3  N3  UNL     1      47.848  45.520  17.256  1.00  0.00    -0.195 NA
HETATM    4  C11 UNL     1      45.791  47.724  15.638  1.00  0.00     0.046 C 
HETATM    5  C12 UNL     1      44.950  46.472  15.751  1.00  0.00     0.004 C 
HETATM    6  C13 UNL     1      43.718  46.801  16.562  1.00  0.00     0.000 C 
HETATM    7  C14 UNL     1      43.876  46.351  17.974  1.00  0.00     0.000 C 
HETATM    8  C15 UNL     1      45.091  46.842  18.674  1.00  0.00     0.004 C 
HETATM    9  C16 UNL     1      45.700  48.085  18.080  1.00  0.00     0.046 C 
ENDROOT
BRANCH   1  10
HETATM   10  N2  UNL     1      47.574  48.909  16.855  1.00  0.00    -0.337 N 
HETATM   11  C8  UNL     1      48.491  49.211  17.868  1.00  0.00     0.241 C 
HETATM   12  O3  UNL     1      48.503  48.528  18.904  1.00  0.00    -0.271 OA
ATOM     13  H2  UNL     1      47.586  49.486  16.014  1.00  0.00     0.164 HD
BRANCH  11  14
HETATM   14  C4  UNL     1      49.432  50.323  17.713  1.00  0.00     0.179 C 
BRANCH  14  15
HETATM   15  N1  UNL     1      48.931  51.578  18.215  1.00  0.00    -0.324 N 
HETATM   16  C3  UNL     1      47.984  52.383  17.556  1.00  0.00     0.361 C 
HETATM   17  O2  UNL     1      47.469  52.082  16.443  1.00  0.00    -0.238 OA
ATOM     18  H1  UNL     1      49.288  51.905  19.113  1.00  0.00     0.165 HD
BRANCH  16  19
HETATM   19  O1  UNL     1      47.551  53.581  18.107  1.00  0.00    -0.304 OA
BRANCH  19  20
HETATM   20  C2  UNL     1      47.927  53.980  19.396  1.00  0.00     0.176 C 
HETATM   21  C1  UNL     1      47.526  55.379  19.735  1.00  0.00     0.034 C 
ENDBRANCH  19  20
ENDBRANCH  16  19
ENDBRANCH  14  15
BRANCH  14  22
HETATM   22  C5  UNL     1      50.759  49.946  18.291  1.00  0.00     0.045 C 
BRANCH  22  23
HETATM   23  C6  UNL     1      51.268  50.938  19.305  1.00  0.00     0.076 C 
BRANCH  23  24
HETATM   24  S1  UNL     1      50.910  50.310  20.989  1.00  0.00    -0.173 SA
HETATM   25  C7  UNL     1      49.979  51.587  21.845  1.00  0.00     0.089 C 
ENDBRANCH  23  24
ENDBRANCH  22  23
ENDBRANCH  14  22
ENDBRANCH  11  14
ENDBRANCH   1  10
TORSDOF 8
ENDMDL
MODEL 4
REMARK VINA RESULT: -7.353840638      4.442      7.059
REMARK  8 active torsions:
REMARK  status: ('A' for Active; 'I' for Inactive)
REMARK    1  A    between atoms: C2_2  and  O1_3 
REMARK    2  A    between atoms: O1_3  and  C3_4 
REMARK       I    between atoms: C3_4  and  N1_6 
REMARK    3  A    between atoms: N1_6  and  C4_8 
REMARK    4  A    between atoms: C4_8  and  C5_9 
REMARK    5  A    between atoms: C4_8  and  C8_13 
REMARK    6  A    between atoms: C5_9  and  C6_10 
REMARK    7  A    between atoms: C6_10  and  S1_11 
REMARK       I    between atoms: C8_13  and  N2_15 
REMARK    8  A    between atoms: N2_15  and  C9_17 
ROOT
HETATM    1  C9  UNL     1      49.754  52.085  19.366  1.00  0.00     0.122 C 
HETATM    2  C10 UNL     1      51.121  52.104  18.840  1.00  0.00     0.091 C 
HETATM    3  N3  UNL     1      52.217  52.139  18.412  1.00  0.00    -0.195 NA
HETATM    4  C11 UNL     1      48.900  51.303  18.375  1.00  0.00     0.046 C 
HETATM    5  C12 UNL     1      49.600  49.984  18.136  1.00  0.00     0.004 C 
HETATM    6  C13 UNL     1      49.237  49.045  19.265  1.00  0.00     0.000 C 
HETATM    7  C14 UNL     1      50.324  48.991  20.282  1.00  0.00     0.000 C 
HETATM    8  C15 UNL     1      50.756  50.302  20.831  1.00  0.00     0.004 C 
HETATM    9  C16 UNL     1      49.742  51.407  20.695  1.00  0.00     0.046 C 
ENDROOT
BRANCH   1  10
HETATM   10  N2  UNL     1      49.259  53.441  19.544  1.00  0.00    -0.337 N 
HETATM   11  C8  UNL     1      49.742  54.337  20.504  1.00  0.00     0.241 C 
HETATM   12  O3  UNL     1      50.652  53.981  21.268  1.00  0.00    -0.271 OA
ATOM     13  H2  UNL     1      48.511  53.759  18.928  1.00  0.00     0.164 HD
BRANCH  11  14
HETATM   14  C4  UNL     1      49.182  55.686  20.611  1.00  0.00     0.179 C 
BRANCH  14  15
HETATM   15  N1  UNL     1      47.741  55.718  20.561  1.00  0.00    -0.324 N 
HETATM   16  C3  UNL     1      46.984  56.745  19.969  1.00  0.00     0.361 C 
HETATM   17  O2  UNL     1      47.496  57.756  19.413  1.00  0.00    -0.238 OA
ATOM     18  H1  UNL     1      47.235  54.940  20.985  1.00  0.00     0.165 HD
BRANCH  16  19
HETATM   19  O1  UNL     1      45.596  56.702  19.962  1.00  0.00    -0.304 OA
BRANCH  19  20
HETATM   20  C2  UNL     1      44.840  57.415  19.022  1.00  0.00     0.176 C 
HETATM   21  C1  UNL     1      43.465  57.762  19.492  1.00  0.00     0.034 C 
ENDBRANCH  19  20
ENDBRANCH  16  19
ENDBRANCH  14  15
BRANCH  14  22
HETATM   22  C5  UNL     1      49.744  56.372  21.815  1.00  0.00     0.045 C 
BRANCH  22  23
HETATM   23  C6  UNL     1      50.606  57.559  21.472  1.00  0.00     0.076 C 
BRANCH  23  24
HETATM   24  S1  UNL     1      52.352  57.165  21.865  1.00  0.00    -0.173 SA
HETATM   25  C7  UNL     1      53.055  56.367  20.417  1.00  0.00     0.089 C 
ENDBRANCH  23  24
ENDBRANCH  22  23
ENDBRANCH  14  22
ENDBRANCH  11  14
ENDBRANCH   1  10
TORSDOF 8
ENDMDL
MODEL 5
REMARK VINA RESULT: -7.330095401      3.263      5.105
REMARK  8 active torsions:
REMARK  status: ('A' for Active; 'I' for Inactive)
REMARK    1  A    between atoms: C2_2  and  O1_3 
REMARK    2  A    between atoms: O1_3  and  C3_4 
REMARK       I    between atoms: C3_4  and  N1_6 
REMARK    3  A    between atoms: N1_6  and  C4_8 
REMARK    4  A    between atoms: C4_8  and  C5_9 
REMARK    5  A    between atoms: C4_8  and  C8_13 
REMARK    6  A    between atoms: C5_9  and  C6_10 
REMARK    7  A    between atoms: C6_10  and  S1_11 
REMARK       I    between atoms: C8_13  and  N2_15 
REMARK    8  A    between atoms: N2_15  and  C9_17 
ROOT
HETATM    1  C9  UNL     1      48.060  50.603  16.985  1.00  0.00     0.122 C 
HETATM    2  C10 UNL     1      49.387  50.391  16.400  1.00  0.00     0.091 C 
HETATM    3  N3  UNL     1      50.458  50.240  15.935  1.00  0.00    -0.195 NA
HETATM    4  C11 UNL     1      47.073  50.726  15.829  1.00  0.00     0.046 C 
HETATM    5  C12 UNL     1      47.286  49.522  14.939  1.00  0.00     0.004 C 
HETATM    6  C13 UNL     1      46.525  48.357  15.529  1.00  0.00     0.000 C 
HETATM    7  C14 UNL     1      47.436  47.461  16.296  1.00  0.00     0.000 C 
HETATM    8  C15 UNL     1      48.251  48.121  17.348  1.00  0.00     0.004 C 
HETATM    9  C16 UNL     1      47.701  49.435  17.839  1.00  0.00     0.046 C 
ENDROOT
BRANCH   1  10
HETATM   10  N2  UNL     1      48.057  51.794  17.819  1.00  0.00    -0.337 N 
HETATM   11  C8  UNL     1      48.963  52.030  18.860  1.00  0.00     0.241 C 
HETATM   12  O3  UNL     1      49.837  51.186  19.110  1.00  0.00    -0.271 OA
ATOM     13  H2  UNL     1      47.349  52.504  17.633  1.00  0.00     0.164 HD
BRANCH  11  14
HETATM   14  C4  UNL     1      48.884  53.261  19.650  1.00  0.00     0.179 C 
BRANCH  14  15
HETATM   15  N1  UNL     1      50.053  54.096  19.534  1.00  0.00    -0.324 N 
HETATM   16  C3  UNL     1      50.836  54.530  20.619  1.00  0.00     0.361 C 
HETATM   17  O2  UNL     1      50.591  54.228  21.821  1.00  0.00    -0.238 OA
ATOM     18  H1  UNL     1      50.333  54.392  18.599  1.00  0.00     0.165 HD
BRANCH  16  19
HETATM   19  O1  UNL     1      51.950  55.335  20.425  1.00  0.00    -0.304 OA
BRANCH  19  20
HETATM   20  C2  UNL     1      51.956  56.689  20.787  1.00  0.00     0.176 C 
HETATM   21  C1  UNL     1      52.767  56.984  22.007  1.00  0.00     0.034 C 
ENDBRANCH  19  20
ENDBRANCH  16  19
ENDBRANCH  14  15
BRANCH  14  22
HETATM   22  C5  UNL     1      47.612  53.982  19.334  1.00  0.00     0.045 C 
BRANCH  22  23
HETATM   23  C6  UNL     1      47.835  55.393  18.853  1.00  0.00     0.076 C 
BRANCH  23  24
HETATM   24  S1  UNL     1      46.963  56.552  19.973  1.00  0.00    -0.173 SA
HETATM   25  C7  UNL     1      48.062  56.882  21.356  1.00  0.00     0.089 C 
ENDBRANCH  23  24
ENDBRANCH  22  23
ENDBRANCH  14  22
ENDBRANCH  11  14
ENDBRANCH   1  10
TORSDOF 8
ENDMDL
