MODEL 1
REMARK VINA RESULT: -8.099781515      0.000      0.000
REMARK  9 active torsions:
REMARK  status: ('A' for Active; 'I' for Inactive)
REMARK    1  A    between atoms: C4_4  and  N1_5 
REMARK    2  A    between atoms: N1_5  and  N2_7 
REMARK    3  A    between atoms: C5_9  and  C6_10 
REMARK    4  A    between atoms: C9_16  and  N5_17 
REMARK    5  A    between atoms: N5_17  and  C10_19 
REMARK    6  A    between atoms: C10_19  and  C11_20 
REMARK    7  A    between atoms: C11_20  and  C12_21 
REMARK    8  A    between atoms: C12_21  and  C13_22 
REMARK    9  A    between atoms: C13_22  and  C14_23 
ROOT
HETATM    1  C6  UNL     1      50.895  55.048  20.280  1.00  0.00     0.029 C 
HETATM    2  C7  UNL     1      51.068  56.271  20.740  1.00  0.00     0.095 C 
HETATM    3  C8  UNL     1      52.293  56.632  21.379  1.00  0.00     0.087 C 
HETATM    4  N3  UNL     1      53.297  56.927  21.883  1.00  0.00    -0.192 NA
ENDROOT
BRANCH   1   5
HETATM    5  C5  UNL     1      49.639  54.691  19.629  1.00  0.00     0.108 C 
HETATM    6  N2  UNL     1      49.504  53.541  19.105  1.00  0.00    -0.310 N 
ATOM      7  H2  UNL     1      48.619  53.308  18.655  1.00  0.00     0.186 HD
BRANCH   6   8
HETATM    8  N1  UNL     1      50.520  52.583  19.123  1.00  0.00    -0.285 N 
ATOM      9  H1  UNL     1      51.500  52.856  19.190  1.00  0.00     0.188 HD
BRANCH   8  10
HETATM   10  C4  UNL     1      50.176  51.335  19.051  1.00  0.00     0.137 A 
HETATM   11  C3  UNL     1      50.217  50.519  20.172  1.00  0.00     0.075 A 
HETATM   12  C2  UNL     1      49.849  49.181  20.101  1.00  0.00     0.026 A 
HETATM   13  C1  UNL     1      49.910  48.354  21.323  1.00  0.00     0.069 C 
HETATM   14  N6  UNL     1      49.450  48.684  18.927  1.00  0.00    -0.196 N 
HETATM   15  C9  UNL     1      49.406  49.478  17.817  1.00  0.00     0.679 A 
ATOM     16  H6  UNL     1      49.175  47.704  18.858  1.00  0.00     0.184 HD
HETATM   17  N4  UNL     1      49.762  50.765  17.898  1.00  0.00    -0.175 N 
ATOM     18  H4  UNL     1      49.720  51.338  17.055  1.00  0.00     0.186 HD
BRANCH  15  19
HETATM   19  N5  UNL     1      49.006  48.900  16.739  1.00  0.00    -0.226 N 
ATOM     20  H5  UNL     1      48.418  48.068  16.797  1.00  0.00     0.177 HD
BRANCH  19  21
HETATM   21  C10 UNL     1      49.389  49.428  15.437  1.00  0.00     0.138 C 
BRANCH  21  22
HETATM   22  C11 UNL     1      48.370  48.943  14.409  1.00  0.00     0.020 C 
BRANCH  22  23
HETATM   23  C12 UNL     1      47.006  49.312  14.809  1.00  0.00     0.004 C 
BRANCH  23  24
HETATM   24  C13 UNL     1      45.957  48.290  14.992  1.00  0.00     0.032 C 
BRANCH  24  25
HETATM   25  C14 UNL     1      45.414  47.990  16.323  1.00  0.00     0.121 C 
HETATM   26  C15 UNL     1      44.183  47.172  16.461  1.00  0.00     0.032 C 
HETATM   27  C16 UNL     1      43.666  47.211  17.911  1.00  0.00     0.004 C 
HETATM   28  C17 UNL     1      44.789  46.740  18.781  1.00  0.00     0.026 C 
HETATM   29  C18 UNL     1      46.016  47.589  18.514  1.00  0.00     0.168 C 
HETATM   30  O1  UNL     1      46.421  47.535  17.207  1.00  0.00    -0.386 OA
ENDBRANCH  24  25
ENDBRANCH  23  24
ENDBRANCH  22  23
ENDBRANCH  21  22
ENDBRANCH  19  21
ENDBRANCH  15  19
ENDBRANCH   8  10
ENDBRANCH   6   8
ENDBRANCH   1   5
TORSDOF 9
ENDMDL
MODEL 2
REMARK VINA RESULT: -7.954769700      1.398      1.800
REMARK  9 active torsions:
REMARK  status: ('A' for Active; 'I' for Inactive)
REMARK    1  A    between atoms: C4_4  and  N1_5 
REMARK    2  A    between atoms: N1_5  and  N2_7 
REMARK    3  A    between atoms: C5_9  and  C6_10 
REMARK    4  A    between atoms: C9_16  and  N5_17 
REMARK    5  A    between atoms: N5_17  and  C10_19 
REMARK    6  A    between atoms: C10_19  and  C11_20 
REMARK    7  A    between atoms: C11_20  and  C12_21 
REMARK    8  A    between atoms: C12_21  and  C13_22 
REMARK    9  A    between atoms: C13_22  and  C14_23 
ROOT
HETATM    1  C6  UNL     1      50.186  55.489  21.197  1.00  0.00     0.029 C 
HETATM    2  C7  UNL     1      51.089  56.273  20.642  1.00  0.00     0.095 C 
HETATM    3  C8  UNL     1      52.097  56.890  21.446  1.00  0.00     0.087 C 
HETATM    4  N3  UNL     1      52.926  57.375  22.099  1.00  0.00    -0.192 NA
ENDROOT
BRANCH   1   5
HETATM    5  C5  UNL     1      49.163  54.865  20.367  1.00  0.00     0.108 C 
HETATM    6  N2  UNL     1      49.195  53.611  20.160  1.00  0.00    -0.310 N 
ATOM      7  H2  UNL     1      48.471  53.191  19.577  1.00  0.00     0.186 HD
BRANCH   6   8
HETATM    8  N1  UNL     1      50.184  52.785  20.699  1.00  0.00    -0.285 N 
ATOM      9  H1  UNL     1      50.790  53.112  21.452  1.00  0.00     0.188 HD
BRANCH   8  10
HETATM   10  C4  UNL     1      50.305  51.590  20.213  1.00  0.00     0.137 A 
HETATM   11  C3  UNL     1      50.024  50.474  20.986  1.00  0.00     0.075 A 
HETATM   12  C2  UNL     1      50.152  49.190  20.470  1.00  0.00     0.026 A 
HETATM   13  C1  UNL     1      49.840  48.035  21.335  1.00  0.00     0.069 C 
HETATM   14  N6  UNL     1      50.554  49.042  19.205  1.00  0.00    -0.196 N 
HETATM   15  C9  UNL     1      50.834  50.134  18.434  1.00  0.00     0.679 A 
ATOM     16  H6  UNL     1      50.652  48.106  18.810  1.00  0.00     0.184 HD
HETATM   17  N4  UNL     1      50.707  51.365  18.942  1.00  0.00    -0.175 N 
ATOM     18  H4  UNL     1      50.921  52.164  18.347  1.00  0.00     0.186 HD
BRANCH  15  19
HETATM   19  N5  UNL     1      51.213  49.879  17.231  1.00  0.00    -0.226 N 
ATOM     20  H5  UNL     1      52.069  49.350  17.069  1.00  0.00     0.177 HD
BRANCH  19  21
HETATM   21  C10 UNL     1      50.422  50.343  16.099  1.00  0.00     0.138 C 
BRANCH  21  22
HETATM   22  C11 UNL     1      50.662  49.390  14.930  1.00  0.00     0.020 C 
BRANCH  22  23
HETATM   23  C12 UNL     1      49.446  48.626  14.620  1.00  0.00     0.004 C 
BRANCH  23  24
HETATM   24  C13 UNL     1      48.155  48.944  15.260  1.00  0.00     0.032 C 
BRANCH  24  25
HETATM   25  C14 UNL     1      47.655  48.153  16.392  1.00  0.00     0.121 C 
HETATM   26  C15 UNL     1      47.320  48.816  17.677  1.00  0.00     0.032 C 
HETATM   27  C16 UNL     1      47.070  47.770  18.778  1.00  0.00     0.004 C 
HETATM   28  C17 UNL     1      45.985  46.870  18.279  1.00  0.00     0.026 C 
HETATM   29  C18 UNL     1      46.390  46.300  16.934  1.00  0.00     0.168 C 
HETATM   30  O1  UNL     1      46.619  47.273  15.997  1.00  0.00    -0.386 OA
ENDBRANCH  24  25
ENDBRANCH  23  24
ENDBRANCH  22  23
ENDBRANCH  21  22
ENDBRANCH  19  21
ENDBRANCH  15  19
ENDBRANCH   8  10
ENDBRANCH   6   8
ENDBRANCH   1   5
TORSDOF 9
ENDMDL
MODEL 3
REMARK VINA RESULT: -7.938256816      1.615      3.400
REMARK  9 active torsions:
REMARK  status: ('A' for Active; 'I' for Inactive)
REMARK    1  A    between atoms: C4_4  and  N1_5 
REMARK    2  A    between atoms: N1_5  and  N2_7 
REMARK    3  A    between atoms: C5_9  and  C6_10 
REMARK    4  A    between atoms: C9_16  and  N5_17 
REMARK    5  A    between atoms: N5_17  and  C10_19 
REMARK    6  A    between atoms: C10_19  and  C11_20 
REMARK    7  A    between atoms: C11_20  and  C12_21 
REMARK    8  A    between atoms: C12_21  and  C13_22 
REMARK    9  A    between atoms: C13_22  and  C14_23 
ROOT
HETATM    1  C6  UNL     1      49.957  56.305  21.482  1.00  0.00     0.029 C 
HETATM    2  C7  UNL     1      51.046  56.810  20.938  1.00  0.00     0.095 C 
HETATM    3  C8  UNL     1      52.252  56.904  21.698  1.00  0.00     0.087 C 
HETATM    4  N3  UNL     1      53.236  56.962  22.313  1.00  0.00    -0.192 NA
ENDROOT
BRANCH   1   5
HETATM    5  C5  UNL     1      48.732  56.215  20.695  1.00  0.00     0.108 C 
HETATM    6  N2  UNL     1      48.423  55.117  20.132  1.00  0.00    -0.310 N 
ATOM      7  H2  UNL     1      47.562  55.072  19.587  1.00  0.00     0.186 HD
BRANCH   6   8
HETATM    8  N1  UNL     1      49.215  53.972  20.232  1.00  0.00    -0.285 N 
ATOM      9  H1  UNL     1      49.927  53.885  20.957  1.00  0.00     0.188 HD
BRANCH   8  10
HETATM   10  C4  UNL     1      49.016  53.023  19.372  1.00  0.00     0.137 A 
HETATM   11  C3  UNL     1      48.032  53.135  18.401  1.00  0.00     0.075 A 
HETATM   12  C2  UNL     1      47.815  52.120  17.477  1.00  0.00     0.026 A 
HETATM   13  C1  UNL     1      46.754  52.288  16.463  1.00  0.00     0.069 C 
HETATM   14  N6  UNL     1      48.575  51.023  17.534  1.00  0.00    -0.196 N 
HETATM   15  C9  UNL     1      49.547  50.902  18.485  1.00  0.00     0.679 A 
ATOM     16  H6  UNL     1      48.429  50.270  16.862  1.00  0.00     0.184 HD
HETATM   17  N4  UNL     1      49.746  51.885  19.370  1.00  0.00    -0.175 N 
ATOM     18  H4  UNL     1      50.479  51.772  20.071  1.00  0.00     0.186 HD
BRANCH  15  19
HETATM   19  N5  UNL     1      50.221  49.806  18.451  1.00  0.00    -0.226 N 
ATOM     20  H5  UNL     1      50.607  49.476  17.567  1.00  0.00     0.177 HD
BRANCH  19  21
HETATM   21  C10 UNL     1      50.434  49.036  19.669  1.00  0.00     0.138 C 
BRANCH  21  22
HETATM   22  C11 UNL     1      49.069  48.712  20.272  1.00  0.00     0.020 C 
BRANCH  22  23
HETATM   23  C12 UNL     1      48.431  47.600  19.555  1.00  0.00     0.004 C 
BRANCH  23  24
HETATM   24  C13 UNL     1      47.109  47.755  18.918  1.00  0.00     0.032 C 
BRANCH  24  25
HETATM   25  C14 UNL     1      46.979  47.880  17.460  1.00  0.00     0.121 C 
HETATM   26  C15 UNL     1      45.861  48.660  16.874  1.00  0.00     0.032 C 
HETATM   27  C16 UNL     1      45.782  48.434  15.353  1.00  0.00     0.004 C 
HETATM   28  C17 UNL     1      47.118  48.806  14.793  1.00  0.00     0.026 C 
HETATM   29  C18 UNL     1      48.196  48.012  15.504  1.00  0.00     0.168 C 
HETATM   30  O1  UNL     1      48.210  48.233  16.855  1.00  0.00    -0.386 OA
ENDBRANCH  24  25
ENDBRANCH  23  24
ENDBRANCH  22  23
ENDBRANCH  21  22
ENDBRANCH  19  21
ENDBRANCH  15  19
ENDBRANCH   8  10
ENDBRANCH   6   8
ENDBRANCH   1   5
TORSDOF 9
ENDMDL
MODEL 4
REMARK VINA RESULT: -7.933878384      2.661      6.652
REMARK  9 active torsions:
REMARK  status: ('A' for Active; 'I' for Inactive)
REMARK    1  A    between atoms: C4_4  and  N1_5 
REMARK    2  A    between atoms: N1_5  and  N2_7 
REMARK    3  A    between atoms: C5_9  and  C6_10 
REMARK    4  A    between atoms: C9_16  and  N5_17 
REMARK    5  A    between atoms: N5_17  and  C10_19 
REMARK    6  A    between atoms: C10_19  and  C11_20 
REMARK    7  A    between atoms: C11_20  and  C12_21 
REMARK    8  A    between atoms: C12_21  and  C13_22 
REMARK    9  A    between atoms: C13_22  and  C14_23 
ROOT
HETATM    1  C6  UNL     1      50.769  49.540  20.249  1.00  0.00     0.029 C 
HETATM    2  C7  UNL     1      50.495  50.810  20.025  1.00  0.00     0.095 C 
HETATM    3  C8  UNL     1      51.351  51.594  19.191  1.00  0.00     0.087 C 
HETATM    4  N3  UNL     1      52.039  52.224  18.499  1.00  0.00    -0.192 NA
ENDROOT
BRANCH   1   5
HETATM    5  C5  UNL     1      49.888  48.750  21.101  1.00  0.00     0.108 C 
HETATM    6  N2  UNL     1      49.109  47.891  20.579  1.00  0.00    -0.310 N 
ATOM      7  H2  UNL     1      48.501  47.346  21.190  1.00  0.00     0.186 HD
BRANCH   6   8
HETATM    8  N1  UNL     1      49.055  47.663  19.203  1.00  0.00    -0.285 N 
ATOM      9  H1  UNL     1      49.795  47.149  18.725  1.00  0.00     0.188 HD
BRANCH   8  10
HETATM   10  C4  UNL     1      48.033  48.124  18.553  1.00  0.00     0.137 A 
HETATM   11  C3  UNL     1      46.791  47.517  18.655  1.00  0.00     0.075 A 
HETATM   12  C2  UNL     1      45.691  48.007  17.961  1.00  0.00     0.026 A 
HETATM   13  C1  UNL     1      44.389  47.325  18.104  1.00  0.00     0.069 C 
HETATM   14  N6  UNL     1      45.848  49.084  17.185  1.00  0.00    -0.196 N 
HETATM   15  C9  UNL     1      47.066  49.689  17.077  1.00  0.00     0.679 A 
ATOM     16  H6  UNL     1      45.050  49.457  16.670  1.00  0.00     0.184 HD
HETATM   17  N4  UNL     1      48.117  49.208  17.750  1.00  0.00    -0.175 N 
ATOM     18  H4  UNL     1      49.017  49.678  17.653  1.00  0.00     0.186 HD
BRANCH  15  19
HETATM   19  N5  UNL     1      47.106  50.718  16.304  1.00  0.00    -0.226 N 
ATOM     20  H5  UNL     1      47.342  50.603  15.319  1.00  0.00     0.177 HD
BRANCH  19  21
HETATM   21  C10 UNL     1      46.814  52.044  16.831  1.00  0.00     0.138 C 
BRANCH  21  22
HETATM   22  C11 UNL     1      48.053  52.545  17.569  1.00  0.00     0.020 C 
BRANCH  22  23
HETATM   23  C12 UNL     1      47.677  53.283  18.782  1.00  0.00     0.004 C 
BRANCH  23  24
HETATM   24  C13 UNL     1      47.841  54.747  18.872  1.00  0.00     0.032 C 
BRANCH  24  25
HETATM   25  C14 UNL     1      48.727  55.351  19.875  1.00  0.00     0.121 C 
HETATM   26  C15 UNL     1      48.171  56.249  20.918  1.00  0.00     0.032 C 
HETATM   27  C16 UNL     1      49.304  56.959  21.682  1.00  0.00     0.004 C 
HETATM   28  C17 UNL     1      50.187  55.886  22.237  1.00  0.00     0.026 C 
HETATM   29  C18 UNL     1      50.642  54.982  21.108  1.00  0.00     0.168 C 
HETATM   30  O1  UNL     1      49.596  54.393  20.449  1.00  0.00    -0.386 OA
ENDBRANCH  24  25
ENDBRANCH  23  24
ENDBRANCH  22  23
ENDBRANCH  21  22
ENDBRANCH  19  21
ENDBRANCH  15  19
ENDBRANCH   8  10
ENDBRANCH   6   8
ENDBRANCH   1   5
TORSDOF 9
ENDMDL
MODEL 5
REMARK VINA RESULT: -7.919397690      1.114      1.467
REMARK  9 active torsions:
REMARK  status: ('A' for Active; 'I' for Inactive)
REMARK    1  A    between atoms: C4_4  and  N1_5 
REMARK    2  A    between atoms: N1_5  and  N2_7 
REMARK    3  A    between atoms: C5_9  and  C6_10 
REMARK    4  A    between atoms: C9_16  and  N5_17 
REMARK    5  A    between atoms: N5_17  and  C10_19 
REMARK    6  A    between atoms: C10_19  and  C11_20 
REMARK    7  A    between atoms: C11_20  and  C12_21 
REMARK    8  A    between atoms: C12_21  and  C13_22 
REMARK    9  A    between atoms: C13_22  and  C14_23 
ROOT
HETATM    1  C6  UNL     1      50.237  55.482  21.283  1.00  0.00     0.029 C 
HETATM    2  C7  UNL     1      50.928  56.503  20.816  1.00  0.00     0.095 C 
HETATM    3  C8  UNL     1      52.002  57.055  21.581  1.00  0.00     0.087 C 
HETATM    4  N3  UNL     1      52.885  57.490  22.196  1.00  0.00    -0.192 NA
ENDROOT
BRANCH   1   5
HETATM    5  C5  UNL     1      49.143  54.928  20.494  1.00  0.00     0.108 C 
HETATM    6  N2  UNL     1      49.172  53.705  20.146  1.00  0.00    -0.310 N 
ATOM      7  H2  UNL     1      48.398  53.334  19.595  1.00  0.00     0.186 HD
BRANCH   6   8
HETATM    8  N1  UNL     1      50.222  52.850  20.489  1.00  0.00    -0.285 N 
ATOM      9  H1  UNL     1      50.978  53.163  21.097  1.00  0.00     0.188 HD
BRANCH   8  10
HETATM   10  C4  UNL     1      50.202  51.646  20.010  1.00  0.00     0.137 A 
HETATM   11  C3  UNL     1      50.071  50.549  20.847  1.00  0.00     0.075 A 
HETATM   12  C2  UNL     1      50.049  49.255  20.340  1.00  0.00     0.026 A 
HETATM   13  C1  UNL     1      49.907  48.120  21.273  1.00  0.00     0.069 C 
HETATM   14  N6  UNL     1      50.157  49.080  19.019  1.00  0.00    -0.196 N 
HETATM   15  C9  UNL     1      50.287  50.153  18.186  1.00  0.00     0.679 A 
ATOM     16  H6  UNL     1      50.141  48.137  18.631  1.00  0.00     0.184 HD
HETATM   17  N4  UNL     1      50.306  51.393  18.687  1.00  0.00    -0.175 N 
ATOM     18  H4  UNL     1      50.403  52.179  18.044  1.00  0.00     0.186 HD
BRANCH  15  19
HETATM   19  N5  UNL     1      50.382  49.872  16.934  1.00  0.00    -0.226 N 
ATOM     20  H5  UNL     1      51.293  49.655  16.530  1.00  0.00     0.177 HD
BRANCH  19  21
HETATM   21  C10 UNL     1      49.195  49.863  16.090  1.00  0.00     0.138 C 
BRANCH  21  22
HETATM   22  C11 UNL     1      49.213  48.584  15.257  1.00  0.00     0.020 C 
BRANCH  22  23
HETATM   23  C12 UNL     1      48.109  47.694  15.640  1.00  0.00     0.004 C 
BRANCH  23  24
HETATM   24  C13 UNL     1      47.692  47.549  17.048  1.00  0.00     0.032 C 
BRANCH  24  25
HETATM   25  C14 UNL     1      46.321  47.155  17.397  1.00  0.00     0.121 C 
HETATM   26  C15 UNL     1      45.848  47.257  18.799  1.00  0.00     0.032 C 
HETATM   27  C16 UNL     1      44.489  46.552  18.966  1.00  0.00     0.004 C 
HETATM   28  C17 UNL     1      43.555  47.181  17.981  1.00  0.00     0.026 C 
HETATM   29  C18 UNL     1      44.158  47.090  16.593  1.00  0.00     0.168 C 
HETATM   30  O1  UNL     1      45.374  47.714  16.505  1.00  0.00    -0.386 OA
ENDBRANCH  24  25
ENDBRANCH  23  24
ENDBRANCH  22  23
ENDBRANCH  21  22
ENDBRANCH  19  21
ENDBRANCH  15  19
ENDBRANCH   8  10
ENDBRANCH   6   8
ENDBRANCH   1   5
TORSDOF 9
ENDMDL
