MODEL 1
REMARK VINA RESULT: -10.192090804      0.000      0.000
REMARK  11 active torsions:
REMARK  status: ('A' for Active; 'I' for Inactive)
REMARK    1  A    between atoms: C2_2  and  N2_6 
REMARK    2  A    between atoms: N2_6  and  C3_8 
REMARK    3  A    between atoms: C3_8  and  O1_9 
REMARK    4  A    between atoms: C3_8  and  O2_11 
REMARK    5  A    between atoms: O2_11  and  C4_12 
REMARK    6  A    between atoms: C6_21  and  N6_22 
REMARK    7  A    between atoms: N7_25  and  C9_26 
REMARK    8  A    between atoms: C9_26  and  C10_27 
REMARK    9  A    between atoms: C14_31  and  N8_32 
REMARK   10  A    between atoms: C16_34  and  C17_35 
REMARK   11  A    between atoms: C21_46  and  N12_47 
ROOT
HETATM    1  C4  UNL     1     -38.719  73.978  99.437  1.00  0.00     0.206 C 
HETATM    2  N3  UNL     1     -39.238  75.074 100.104  1.00  0.00    -0.166 N 
ATOM      3  H3  UNL     1     -38.564  75.753 100.459  1.00  0.00     0.186 HD
HETATM    4  C5  UNL     1     -40.561  75.345 100.338  1.00  0.00     0.692 C 
HETATM    5  N4  UNL     1     -40.802  76.434 100.799  1.00  0.00    -0.234 N 
ATOM      6  H41 UNL     1     -41.787  76.636 100.973  1.00  0.00     0.174 HD
ATOM      7  H42 UNL     1     -40.027  77.071 100.981  1.00  0.00     0.174 HD
HETATM    8  N5  UNL     1     -41.601  74.490 100.094  1.00  0.00    -0.022 N 
ATOM      9  H5  UNL     1     -42.518  74.934 100.047  1.00  0.00     0.203 HD
HETATM   10  C6  UNL     1     -41.609  73.162  99.907  1.00  0.00     0.696 C 
HETATM   11  N11 UNL     1     -40.567  72.396  99.550  1.00  0.00    -0.172 N 
ATOM     12  H11 UNL     1     -40.792  71.463  99.204  1.00  0.00     0.186 HD
HETATM   13  C21 UNL     1     -39.235  72.718  99.594  1.00  0.00     0.167 C 
ENDROOT
BRANCH  10  14
HETATM   14  N6  UNL     1     -42.851  72.527 100.116  1.00  0.00    -0.214 N 
HETATM   15  C7  UNL     1     -43.582  72.783 101.328  1.00  0.00     0.160 C 
HETATM   16  C8  UNL     1     -45.018  72.365 101.150  1.00  0.00     0.137 C 
HETATM   17  N7  UNL     1     -45.491  72.659  99.850  1.00  0.00    -0.405 N 
HETATM   18  C19 UNL     1     -44.759  72.163  98.748  1.00  0.00     0.137 C 
HETATM   19  C20 UNL     1     -43.395  71.625  99.138  1.00  0.00     0.160 C 
BRANCH  17  20
HETATM   20  C9  UNL     1     -46.897  72.722  99.713  1.00  0.00     0.155 C 
BRANCH  20  21
HETATM   21  C10 UNL     1     -47.454  73.769 100.608  1.00  0.00    -0.038 A 
HETATM   22  C11 UNL     1     -48.781  73.727 100.999  1.00  0.00     0.009 A 
HETATM   23  C12 UNL     1     -49.304  74.696 101.829  1.00  0.00     0.003 A 
HETATM   24  C13 UNL     1     -48.489  75.738 102.287  1.00  0.00     0.031 A 
HETATM   25  C14 UNL     1     -47.163  75.811 101.917  1.00  0.00     0.054 A 
HETATM   26  C18 UNL     1     -46.679  74.823 101.084  1.00  0.00     0.040 A 
BRANCH  25  27
HETATM   27  N8  UNL     1     -46.293  76.849 102.351  1.00  0.00    -0.249 N 
HETATM   28  C15 UNL     1     -44.956  76.919 102.166  1.00  0.00     0.152 A 
HETATM   29  C16 UNL     1     -44.452  78.078 102.733  1.00  0.00     0.140 A 
HETATM   30  N9  UNL     1     -45.527  78.690 103.257  1.00  0.00    -0.276 N 
HETATM   31  N10 UNL     1     -46.602  77.954 103.024  1.00  0.00    -0.015 NA
ATOM     32  H9  UNL     1     -45.516  79.580 103.755  1.00  0.00     0.184 HD
BRANCH  29  33
HETATM   33  C17 UNL     1     -43.079  78.554 102.769  1.00  0.00     0.229 C 
HETATM   34  O3  UNL     1     -42.167  77.732 103.005  1.00  0.00    -0.643 OA
HETATM   35  O4  UNL     1     -42.736  79.878 102.550  1.00  0.00    -0.643 OA
ENDBRANCH  29  33
ENDBRANCH  25  27
ENDBRANCH  20  21
ENDBRANCH  17  20
ENDBRANCH  10  14
BRANCH  13  36
HETATM   36  N12 UNL     1     -38.440  71.772  99.845  1.00  0.00    -0.382 N 
ATOM     37 2H12 UNL     1     -37.489  71.875  99.490  1.00  0.00     0.157 HD
ATOM     38 1H12 UNL     1     -38.797  70.959 100.346  1.00  0.00     0.157 HD
ENDBRANCH  13  36
BRANCH   1  39
HETATM   39  O2  UNL     1     -37.684  74.212  98.627  1.00  0.00    -0.282 OA
BRANCH  39  40
HETATM   40  C3  UNL     1     -37.501  74.991  97.538  1.00  0.00     0.377 C 
BRANCH  40  41
HETATM   41  N2  UNL     1     -36.084  75.361  97.461  1.00  0.00    -0.332 N 
ATOM     42  H2  UNL     1     -35.479  75.204  98.267  1.00  0.00     0.165 HD
BRANCH  41  43
HETATM   43  C2  UNL     1     -35.546  75.934  96.287  1.00  0.00     0.070 C 
HETATM   44  C1  UNL     1     -34.094  76.212  96.228  1.00  0.00     0.088 C 
HETATM   45  N1  UNL     1     -36.288  76.220  95.265  1.00  0.00    -0.389 N 
ATOM     46  H12 UNL     1     -35.900  76.633  94.417  1.00  0.00     0.157 HD
ATOM     47  H11 UNL     1     -37.289  76.028  95.306  1.00  0.00     0.157 HD
ENDBRANCH  41  43
ENDBRANCH  40  41
BRANCH  40  48
HETATM   48  O1  UNL     1     -38.181  76.252  97.697  1.00  0.00    -0.354 OA
ATOM     49  H1  UNL     1     -38.741  76.308  96.932  1.00  0.00     0.214 HD
ENDBRANCH  40  48
ENDBRANCH  39  40
ENDBRANCH   1  39
TORSDOF 11
ENDMDL
MODEL 2
REMARK VINA RESULT: -10.108414426      1.988      2.917
REMARK  11 active torsions:
REMARK  status: ('A' for Active; 'I' for Inactive)
REMARK    1  A    between atoms: C2_2  and  N2_6 
REMARK    2  A    between atoms: N2_6  and  C3_8 
REMARK    3  A    between atoms: C3_8  and  O1_9 
REMARK    4  A    between atoms: C3_8  and  O2_11 
REMARK    5  A    between atoms: O2_11  and  C4_12 
REMARK    6  A    between atoms: C6_21  and  N6_22 
REMARK    7  A    between atoms: N7_25  and  C9_26 
REMARK    8  A    between atoms: C9_26  and  C10_27 
REMARK    9  A    between atoms: C14_31  and  N8_32 
REMARK   10  A    between atoms: C16_34  and  C17_35 
REMARK   11  A    between atoms: C21_46  and  N12_47 
ROOT
HETATM    1  C4  UNL     1     -36.488  74.199  98.354  1.00  0.00     0.206 C 
HETATM    2  N3  UNL     1     -36.765  74.613  99.645  1.00  0.00    -0.166 N 
ATOM      3  H3  UNL     1     -36.047  75.170 100.109  1.00  0.00     0.186 HD
HETATM    4  C5  UNL     1     -37.901  74.354 100.366  1.00  0.00     0.692 C 
HETATM    5  N4  UNL     1     -38.005  74.942 101.415  1.00  0.00    -0.234 N 
ATOM      6  H41 UNL     1     -38.850  74.749 101.952  1.00  0.00     0.174 HD
ATOM      7  H42 UNL     1     -37.261  75.581 101.693  1.00  0.00     0.174 HD
HETATM    8  N5  UNL     1     -38.900  73.496  99.993  1.00  0.00    -0.022 N 
ATOM      9  H5  UNL     1     -39.786  73.633 100.480  1.00  0.00     0.203 HD
HETATM   10  C6  UNL     1     -38.902  72.505  99.089  1.00  0.00     0.696 C 
HETATM   11  N11 UNL     1     -38.042  72.346  98.071  1.00  0.00    -0.172 N 
ATOM     12  H11 UNL     1     -38.330  71.699  97.336  1.00  0.00     0.186 HD
HETATM   13  C21 UNL     1     -36.823  72.950  97.900  1.00  0.00     0.167 C 
ENDROOT
BRANCH  10  14
HETATM   14  N6  UNL     1     -39.920  71.541  99.247  1.00  0.00    -0.214 N 
HETATM   15  C7  UNL     1     -40.101  70.907 100.524  1.00  0.00     0.160 C 
HETATM   16  C8  UNL     1     -41.463  70.268 100.583  1.00  0.00     0.137 C 
HETATM   17  N7  UNL     1     -42.440  71.059  99.933  1.00  0.00    -0.405 N 
HETATM   18  C19 UNL     1     -42.202  71.443  98.595  1.00  0.00     0.137 C 
HETATM   19  C20 UNL     1     -40.776  71.182  98.149  1.00  0.00     0.160 C 
BRANCH  17  20
HETATM   20  C9  UNL     1     -43.780  70.793 100.298  1.00  0.00     0.155 C 
BRANCH  20  21
HETATM   21  C10 UNL     1     -44.641  71.959  99.974  1.00  0.00    -0.038 A 
HETATM   22  C11 UNL     1     -45.523  71.910  98.909  1.00  0.00     0.009 A 
HETATM   23  C12 UNL     1     -46.326  72.989  98.603  1.00  0.00     0.003 A 
HETATM   24  C13 UNL     1     -46.254  74.153  99.378  1.00  0.00     0.031 A 
HETATM   25  C14 UNL     1     -45.387  74.238 100.446  1.00  0.00     0.054 A 
HETATM   26  C18 UNL     1     -44.601  73.136 100.717  1.00  0.00     0.040 A 
BRANCH  25  27
HETATM   27  N8  UNL     1     -45.274  75.397 101.263  1.00  0.00    -0.249 N 
HETATM   28  C15 UNL     1     -44.135  75.942 101.747  1.00  0.00     0.152 A 
HETATM   29  C16 UNL     1     -44.424  77.064 102.504  1.00  0.00     0.140 A 
HETATM   30  N9  UNL     1     -45.762  77.168 102.455  1.00  0.00    -0.276 N 
HETATM   31  N10 UNL     1     -46.247  76.179 101.720  1.00  0.00    -0.015 NA
ATOM     32  H9  UNL     1     -46.316  77.893 102.910  1.00  0.00     0.184 HD
BRANCH  29  33
HETATM   33  C17 UNL     1     -43.510  77.952 103.205  1.00  0.00     0.229 C 
HETATM   34  O3  UNL     1     -43.060  77.592 104.314  1.00  0.00    -0.643 OA
HETATM   35  O4  UNL     1     -43.114  79.178 102.696  1.00  0.00    -0.643 OA
ENDBRANCH  29  33
ENDBRANCH  25  27
ENDBRANCH  20  21
ENDBRANCH  17  20
ENDBRANCH  10  14
BRANCH  13  36
HETATM   36  N12 UNL     1     -35.938  72.267  97.316  1.00  0.00    -0.382 N 
ATOM     37 2H12 UNL     1     -36.272  71.577  96.643  1.00  0.00     0.157 HD
ATOM     38 1H12 UNL     1     -34.963  72.417  97.572  1.00  0.00     0.157 HD
ENDBRANCH  13  36
BRANCH   1  39
HETATM   39  O2  UNL     1     -35.873  75.085  97.567  1.00  0.00    -0.282 OA
BRANCH  39  40
HETATM   40  C3  UNL     1     -34.589  75.481  97.420  1.00  0.00     0.377 C 
BRANCH  40  41
HETATM   41  N2  UNL     1     -34.295  75.592  95.988  1.00  0.00    -0.332 N 
ATOM     42  H2  UNL     1     -33.528  75.051  95.588  1.00  0.00     0.165 HD
BRANCH  41  43
HETATM   43  C2  UNL     1     -35.059  76.438  95.154  1.00  0.00     0.070 C 
HETATM   44  C1  UNL     1     -34.381  77.552  94.453  1.00  0.00     0.088 C 
HETATM   45  N1  UNL     1     -36.331  76.265  94.986  1.00  0.00    -0.389 N 
ATOM     46  H12 UNL     1     -36.883  76.876  94.384  1.00  0.00     0.157 HD
ATOM     47  H11 UNL     1     -36.798  75.497  95.469  1.00  0.00     0.157 HD
ENDBRANCH  41  43
ENDBRANCH  40  41
BRANCH  40  48
HETATM   48  O1  UNL     1     -33.688  74.455  97.881  1.00  0.00    -0.354 OA
ATOM     49  H1  UNL     1     -34.168  74.025  98.579  1.00  0.00     0.214 HD
ENDBRANCH  40  48
ENDBRANCH  39  40
ENDBRANCH   1  39
TORSDOF 11
ENDMDL
MODEL 3
REMARK VINA RESULT: -10.044575242      0.856      1.222
REMARK  11 active torsions:
REMARK  status: ('A' for Active; 'I' for Inactive)
REMARK    1  A    between atoms: C2_2  and  N2_6 
REMARK    2  A    between atoms: N2_6  and  C3_8 
REMARK    3  A    between atoms: C3_8  and  O1_9 
REMARK    4  A    between atoms: C3_8  and  O2_11 
REMARK    5  A    between atoms: O2_11  and  C4_12 
REMARK    6  A    between atoms: C6_21  and  N6_22 
REMARK    7  A    between atoms: N7_25  and  C9_26 
REMARK    8  A    between atoms: C9_26  and  C10_27 
REMARK    9  A    between atoms: C14_31  and  N8_32 
REMARK   10  A    between atoms: C16_34  and  C17_35 
REMARK   11  A    between atoms: C21_46  and  N12_47 
ROOT
HETATM    1  C4  UNL     1     -38.702  73.403  99.115  1.00  0.00     0.206 C 
HETATM    2  N3  UNL     1     -39.059  74.546  99.808  1.00  0.00    -0.166 N 
ATOM      3  H3  UNL     1     -38.297  75.155 100.107  1.00  0.00     0.186 HD
HETATM    4  C5  UNL     1     -40.329  74.948 100.134  1.00  0.00     0.692 C 
HETATM    5  N4  UNL     1     -40.426  76.056 100.602  1.00  0.00    -0.234 N 
ATOM      6  H41 UNL     1     -41.370  76.356 100.844  1.00  0.00     0.174 HD
ATOM      7  H42 UNL     1     -39.580  76.613 100.722  1.00  0.00     0.174 HD
HETATM    8  N5  UNL     1     -41.463  74.201  99.972  1.00  0.00    -0.022 N 
ATOM      9  H5  UNL     1     -42.333  74.735  99.987  1.00  0.00     0.203 HD
HETATM   10  C6  UNL     1     -41.617  72.880  99.798  1.00  0.00     0.696 C 
HETATM   11  N11 UNL     1     -40.684  72.013  99.373  1.00  0.00    -0.172 N 
ATOM     12  H11 UNL     1     -41.026  71.107  99.052  1.00  0.00     0.186 HD
HETATM   13  C21 UNL     1     -39.328  72.201  99.319  1.00  0.00     0.167 C 
ENDROOT
BRANCH  10  14
HETATM   14  N6  UNL     1     -42.898  72.372 100.100  1.00  0.00    -0.214 N 
HETATM   15  C7  UNL     1     -43.592  72.852 101.265  1.00  0.00     0.160 C 
HETATM   16  C8  UNL     1     -45.056  72.518 101.154  1.00  0.00     0.137 C 
HETATM   17  N7  UNL     1     -45.525  72.654  99.827  1.00  0.00    -0.405 N 
HETATM   18  C19 UNL     1     -44.845  71.954  98.806  1.00  0.00     0.137 C 
HETATM   19  C20 UNL     1     -43.517  71.380  99.265  1.00  0.00     0.160 C 
BRANCH  17  20
HETATM   20  C9  UNL     1     -46.924  72.797  99.687  1.00  0.00     0.155 C 
BRANCH  20  21
HETATM   21  C10 UNL     1     -47.428  73.849 100.607  1.00  0.00    -0.038 A 
HETATM   22  C11 UNL     1     -48.742  73.836 101.040  1.00  0.00     0.009 A 
HETATM   23  C12 UNL     1     -49.216  74.809 101.894  1.00  0.00     0.003 A 
HETATM   24  C13 UNL     1     -48.362  75.827 102.334  1.00  0.00     0.031 A 
HETATM   25  C14 UNL     1     -47.047  75.872 101.923  1.00  0.00     0.054 A 
HETATM   26  C18 UNL     1     -46.614  74.880 101.068  1.00  0.00     0.040 A 
BRANCH  25  27
HETATM   27  N8  UNL     1     -46.139  76.886 102.338  1.00  0.00    -0.249 N 
HETATM   28  C15 UNL     1     -44.808  76.929 102.105  1.00  0.00     0.152 A 
HETATM   29  C16 UNL     1     -44.259  78.069 102.667  1.00  0.00     0.140 A 
HETATM   30  N9  UNL     1     -45.300  78.697 103.239  1.00  0.00    -0.276 N 
HETATM   31  N10 UNL     1     -46.399  77.987 103.036  1.00  0.00    -0.015 NA
ATOM     32  H9  UNL     1     -45.252  79.580 103.747  1.00  0.00     0.184 HD
BRANCH  29  33
HETATM   33  C17 UNL     1     -42.875  78.515 102.658  1.00  0.00     0.229 C 
HETATM   34  O3  UNL     1     -42.643  79.742 102.633  1.00  0.00    -0.643 OA
HETATM   35  O4  UNL     1     -41.803  77.639 102.677  1.00  0.00    -0.643 OA
ENDBRANCH  29  33
ENDBRANCH  25  27
ENDBRANCH  20  21
ENDBRANCH  17  20
ENDBRANCH  10  14
BRANCH  13  36
HETATM   36  N12 UNL     1     -38.614  71.181  99.520  1.00  0.00    -0.382 N 
ATOM     37 2H12 UNL     1     -38.533  70.526  98.742  1.00  0.00     0.157 HD
ATOM     38 1H12 UNL     1     -38.198  71.054 100.442  1.00  0.00     0.157 HD
ENDBRANCH  13  36
BRANCH   1  39
HETATM   39  O2  UNL     1     -37.710  73.532  98.231  1.00  0.00    -0.282 OA
BRANCH  39  40
HETATM   40  C3  UNL     1     -36.414  73.905  98.320  1.00  0.00     0.377 C 
BRANCH  40  41
HETATM   41  N2  UNL     1     -36.317  75.336  98.012  1.00  0.00    -0.332 N 
ATOM     42  H2  UNL     1     -35.679  75.924  98.547  1.00  0.00     0.165 HD
BRANCH  41  43
HETATM   43  C2  UNL     1     -37.098  75.911  96.984  1.00  0.00     0.070 C 
HETATM   44  C1  UNL     1     -38.209  76.816  97.352  1.00  0.00     0.088 C 
HETATM   45  N1  UNL     1     -36.866  75.667  95.734  1.00  0.00    -0.389 N 
ATOM     46  H12 UNL     1     -37.429  76.083  94.992  1.00  0.00     0.157 HD
ATOM     47  H11 UNL     1     -36.100  75.044  95.480  1.00  0.00     0.157 HD
ENDBRANCH  41  43
ENDBRANCH  40  41
BRANCH  40  48
HETATM   48  O1  UNL     1     -35.634  73.274  97.285  1.00  0.00    -0.354 OA
ATOM     49  H1  UNL     1     -35.355  73.998  96.736  1.00  0.00     0.214 HD
ENDBRANCH  40  48
ENDBRANCH  39  40
ENDBRANCH   1  39
TORSDOF 11
ENDMDL
MODEL 4
REMARK VINA RESULT: -9.920993702      1.474      2.296
REMARK  11 active torsions:
REMARK  status: ('A' for Active; 'I' for Inactive)
REMARK    1  A    between atoms: C2_2  and  N2_6 
REMARK    2  A    between atoms: N2_6  and  C3_8 
REMARK    3  A    between atoms: C3_8  and  O1_9 
REMARK    4  A    between atoms: C3_8  and  O2_11 
REMARK    5  A    between atoms: O2_11  and  C4_12 
REMARK    6  A    between atoms: C6_21  and  N6_22 
REMARK    7  A    between atoms: N7_25  and  C9_26 
REMARK    8  A    between atoms: C9_26  and  C10_27 
REMARK    9  A    between atoms: C14_31  and  N8_32 
REMARK   10  A    between atoms: C16_34  and  C17_35 
REMARK   11  A    between atoms: C21_46  and  N12_47 
ROOT
HETATM    1  C4  UNL     1     -40.141  74.358 100.197  1.00  0.00     0.206 C 
HETATM    2  N3  UNL     1     -39.844  73.186  99.524  1.00  0.00    -0.166 N 
ATOM      3  H3  UNL     1     -38.986  73.181  98.972  1.00  0.00     0.186 HD
HETATM    4  C5  UNL     1     -40.580  72.029  99.522  1.00  0.00     0.692 C 
HETATM    5  N4  UNL     1     -40.060  71.075  98.997  1.00  0.00    -0.234 N 
ATOM      6  H41 UNL     1     -40.607  70.215  98.995  1.00  0.00     0.174 HD
ATOM      7  H42 UNL     1     -39.127  71.184  98.599  1.00  0.00     0.174 HD
HETATM    8  N5  UNL     1     -41.831  71.884 100.056  1.00  0.00    -0.022 N 
ATOM      9  H5  UNL     1     -42.113  70.919 100.230  1.00  0.00     0.203 HD
HETATM   10  C6  UNL     1     -42.747  72.805 100.388  1.00  0.00     0.696 C 
HETATM   11  N11 UNL     1     -42.526  74.109 100.621  1.00  0.00    -0.172 N 
ATOM     12  H11 UNL     1     -43.269  74.611 101.107  1.00  0.00     0.186 HD
HETATM   13  C21 UNL     1     -41.419  74.845 100.285  1.00  0.00     0.167 C 
ENDROOT
BRANCH  10  14
HETATM   14  N6  UNL     1     -44.072  72.334 100.496  1.00  0.00    -0.214 N 
HETATM   15  C7  UNL     1     -44.724  72.348 101.778  1.00  0.00     0.160 C 
HETATM   16  C8  UNL     1     -46.213  72.221 101.588  1.00  0.00     0.137 C 
HETATM   17  N7  UNL     1     -46.659  72.937 100.453  1.00  0.00    -0.405 N 
HETATM   18  C19 UNL     1     -46.042  72.666  99.211  1.00  0.00     0.137 C 
HETATM   19  C20 UNL     1     -44.778  71.838  99.347  1.00  0.00     0.160 C 
BRANCH  17  20
HETATM   20  C9  UNL     1     -48.037  73.250 100.432  1.00  0.00     0.155 C 
BRANCH  20  21
HETATM   21  C10 UNL     1     -48.304  74.454 101.261  1.00  0.00    -0.038 A 
HETATM   22  C11 UNL     1     -49.590  74.752 101.675  1.00  0.00     0.009 A 
HETATM   23  C12 UNL     1     -49.845  75.868 102.444  1.00  0.00     0.003 A 
HETATM   24  C13 UNL     1     -48.794  76.714 102.817  1.00  0.00     0.031 A 
HETATM   25  C14 UNL     1     -47.500  76.447 102.422  1.00  0.00     0.054 A 
HETATM   26  C18 UNL     1     -47.289  75.322 101.652  1.00  0.00     0.040 A 
BRANCH  25  27
HETATM   27  N8  UNL     1     -46.396  77.275 102.771  1.00  0.00    -0.249 N 
HETATM   28  C15 UNL     1     -45.140  77.204 102.277  1.00  0.00     0.152 A 
HETATM   29  C16 UNL     1     -44.340  78.173 102.858  1.00  0.00     0.140 A 
HETATM   30  N9  UNL     1     -45.157  78.818 103.708  1.00  0.00    -0.276 N 
HETATM   31  N10 UNL     1     -46.364  78.276 103.645  1.00  0.00    -0.015 NA
ATOM     32  H9  UNL     1     -44.891  79.599 104.307  1.00  0.00     0.184 HD
BRANCH  29  33
HETATM   33  C17 UNL     1     -42.934  78.457 102.623  1.00  0.00     0.229 C 
HETATM   34  O3  UNL     1     -42.137  77.499 102.539  1.00  0.00    -0.643 OA
HETATM   35  O4  UNL     1     -42.439  79.744 102.487  1.00  0.00    -0.643 OA
ENDBRANCH  29  33
ENDBRANCH  25  27
ENDBRANCH  20  21
ENDBRANCH  17  20
ENDBRANCH  10  14
BRANCH  13  36
HETATM   36  N12 UNL     1     -41.621  76.055  99.993  1.00  0.00    -0.382 N 
ATOM     37 2H12 UNL     1     -40.827  76.685 100.104  1.00  0.00     0.157 HD
ATOM     38 1H12 UNL     1     -42.558  76.333  99.702  1.00  0.00     0.157 HD
ENDBRANCH  13  36
BRANCH   1  39
HETATM   39  O2  UNL     1     -39.112  74.995 100.760  1.00  0.00    -0.282 OA
BRANCH  39  40
HETATM   40  C3  UNL     1     -38.229  75.922 100.326  1.00  0.00     0.377 C 
BRANCH  40  41
HETATM   41  N2  UNL     1     -37.154  75.238  99.598  1.00  0.00    -0.332 N 
ATOM     42  H2  UNL     1     -36.640  74.483 100.051  1.00  0.00     0.165 HD
BRANCH  41  43
HETATM   43  C2  UNL     1     -36.823  75.611  98.276  1.00  0.00     0.070 C 
HETATM   44  C1  UNL     1     -37.867  76.221  97.423  1.00  0.00     0.088 C 
HETATM   45  N1  UNL     1     -35.634  75.435  97.795  1.00  0.00    -0.389 N 
ATOM     46  H12 UNL     1     -35.394  75.705  96.841  1.00  0.00     0.157 HD
ATOM     47  H11 UNL     1     -34.914  75.015  98.383  1.00  0.00     0.157 HD
ENDBRANCH  41  43
ENDBRANCH  40  41
BRANCH  40  48
HETATM   48  O1  UNL     1     -37.554  76.538 101.441  1.00  0.00    -0.354 OA
ATOM     49  H1  UNL     1     -37.802  76.001 102.184  1.00  0.00     0.214 HD
ENDBRANCH  40  48
ENDBRANCH  39  40
ENDBRANCH   1  39
TORSDOF 11
ENDMDL
MODEL 5
REMARK VINA RESULT: -9.769951239      1.559      1.865
REMARK  11 active torsions:
REMARK  status: ('A' for Active; 'I' for Inactive)
REMARK    1  A    between atoms: C2_2  and  N2_6 
REMARK    2  A    between atoms: N2_6  and  C3_8 
REMARK    3  A    between atoms: C3_8  and  O1_9 
REMARK    4  A    between atoms: C3_8  and  O2_11 
REMARK    5  A    between atoms: O2_11  and  C4_12 
REMARK    6  A    between atoms: C6_21  and  N6_22 
REMARK    7  A    between atoms: N7_25  and  C9_26 
REMARK    8  A    between atoms: C9_26  and  C10_27 
REMARK    9  A    between atoms: C14_31  and  N8_32 
REMARK   10  A    between atoms: C16_34  and  C17_35 
REMARK   11  A    between atoms: C21_46  and  N12_47 
ROOT
HETATM    1  C4  UNL     1     -38.835  72.560 100.027  1.00  0.00     0.206 C 
HETATM    2  N3  UNL     1     -38.768  72.025 101.301  1.00  0.00    -0.166 N 
ATOM      3  H3  UNL     1     -37.842  71.757 101.636  1.00  0.00     0.186 HD
HETATM    4  C5  UNL     1     -39.814  71.816 102.162  1.00  0.00     0.692 C 
HETATM    5  N4  UNL     1     -39.515  71.485 103.284  1.00  0.00    -0.234 N 
ATOM      6  H41 UNL     1     -40.293  71.330 103.925  1.00  0.00     0.174 HD
ATOM      7  H42 UNL     1     -38.527  71.386 103.518  1.00  0.00     0.174 HD
HETATM    8  N5  UNL     1     -41.139  71.950 101.848  1.00  0.00    -0.022 N 
ATOM      9  H5  UNL     1     -41.762  72.044 102.651  1.00  0.00     0.203 HD
HETATM   10  C6  UNL     1     -41.751  71.978 100.656  1.00  0.00     0.696 C 
HETATM   11  N11 UNL     1     -41.185  72.249  99.469  1.00  0.00    -0.172 N 
ATOM     12  H11 UNL     1     -41.824  72.481  98.708  1.00  0.00     0.186 HD
HETATM   13  C21 UNL     1     -39.849  72.252  99.159  1.00  0.00     0.167 C 
ENDROOT
BRANCH  10  14
HETATM   14  N6  UNL     1     -43.131  71.688 100.674  1.00  0.00    -0.214 N 
HETATM   15  C7  UNL     1     -43.954  72.230 101.722  1.00  0.00     0.160 C 
HETATM   16  C8  UNL     1     -45.402  72.161 101.315  1.00  0.00     0.137 C 
HETATM   17  N7  UNL     1     -45.572  72.435  99.938  1.00  0.00    -0.405 N 
HETATM   18  C19 UNL     1     -44.828  71.673  99.010  1.00  0.00     0.137 C 
HETATM   19  C20 UNL     1     -43.727  70.857  99.664  1.00  0.00     0.160 C 
BRANCH  17  20
HETATM   20  C9  UNL     1     -46.874  72.826  99.551  1.00  0.00     0.155 C 
BRANCH  20  21
HETATM   21  C10 UNL     1     -47.418  73.823 100.509  1.00  0.00    -0.038 A 
HETATM   22  C11 UNL     1     -48.728  73.738 100.946  1.00  0.00     0.009 A 
HETATM   23  C12 UNL     1     -49.239  74.660 101.835  1.00  0.00     0.003 A 
HETATM   24  C13 UNL     1     -48.427  75.698 102.307  1.00  0.00     0.031 A 
HETATM   25  C14 UNL     1     -47.117  75.814 101.892  1.00  0.00     0.054 A 
HETATM   26  C18 UNL     1     -46.646  74.872 101.002  1.00  0.00     0.040 A 
BRANCH  25  27
HETATM   27  N8  UNL     1     -46.251  76.850 102.339  1.00  0.00    -0.249 N 
HETATM   28  C15 UNL     1     -44.917  76.936 102.141  1.00  0.00     0.152 A 
HETATM   29  C16 UNL     1     -44.417  78.087 102.727  1.00  0.00     0.140 A 
HETATM   30  N9  UNL     1     -45.491  78.679 103.275  1.00  0.00    -0.276 N 
HETATM   31  N10 UNL     1     -46.562  77.938 103.038  1.00  0.00    -0.015 NA
ATOM     32  H9  UNL     1     -45.482  79.558 103.791  1.00  0.00     0.184 HD
BRANCH  29  33
HETATM   33  C17 UNL     1     -43.048  78.574 102.757  1.00  0.00     0.229 C 
HETATM   34  O3  UNL     1     -42.124  77.751 102.932  1.00  0.00    -0.643 OA
HETATM   35  O4  UNL     1     -42.721  79.911 102.599  1.00  0.00    -0.643 OA
ENDBRANCH  29  33
ENDBRANCH  25  27
ENDBRANCH  20  21
ENDBRANCH  17  20
ENDBRANCH  10  14
BRANCH  13  36
HETATM   36  N12 UNL     1     -39.548  71.896  97.987  1.00  0.00    -0.382 N 
ATOM     37 2H12 UNL     1     -38.899  72.501  97.485  1.00  0.00     0.157 HD
ATOM     38 1H12 UNL     1     -39.990  71.060  97.606  1.00  0.00     0.157 HD
ENDBRANCH  13  36
BRANCH   1  39
HETATM   39  O2  UNL     1     -37.854  73.399  99.685  1.00  0.00    -0.282 OA
BRANCH  39  40
HETATM   40  C3  UNL     1     -37.665  74.730  99.822  1.00  0.00     0.377 C 
BRANCH  40  41
HETATM   41  N2  UNL     1     -36.635  75.156  98.868  1.00  0.00    -0.332 N 
ATOM     42  H2  UNL     1     -35.791  75.614  99.211  1.00  0.00     0.165 HD
BRANCH  41  43
HETATM   43  C2  UNL     1     -36.798  74.942  97.481  1.00  0.00     0.070 C 
HETATM   44  C1  UNL     1     -37.054  76.105  96.604  1.00  0.00     0.088 C 
HETATM   45  N1  UNL     1     -36.728  73.758  96.961  1.00  0.00    -0.389 N 
ATOM     46  H12 UNL     1     -36.845  73.604  95.959  1.00  0.00     0.157 HD
ATOM     47  H11 UNL     1     -36.552  72.957  97.566  1.00  0.00     0.157 HD
ENDBRANCH  41  43
ENDBRANCH  40  41
BRANCH  40  48
HETATM   48  O1  UNL     1     -37.090  75.029 101.109  1.00  0.00    -0.354 OA
ATOM     49  H1  UNL     1     -36.649  74.225 101.355  1.00  0.00     0.214 HD
ENDBRANCH  40  48
ENDBRANCH  39  40
ENDBRANCH   1  39
TORSDOF 11
ENDMDL
