MODEL 1
REMARK VINA RESULT: -9.887281176      0.000      0.000
REMARK  12 active torsions:
REMARK  status: ('A' for Active; 'I' for Inactive)
REMARK    1  A    between atoms: N1_1  and  C1_4 
REMARK    2  A    between atoms: N4_11  and  C5_12 
REMARK    3  A    between atoms: N5_14  and  C7_15 
REMARK    4  A    between atoms: C10_18  and  O1_19 
REMARK    5  A    between atoms: O1_19  and  C11_20 
REMARK    6  A    between atoms: C11_20  and  C12_21 
REMARK    7  A    between atoms: C12_21  and  O2_22 
REMARK    8  A    between atoms: O2_22  and  N6_23 
REMARK    9  A    between atoms: N6_23  and  C13_25 
REMARK   10  A    between atoms: C14_28  and  N8_29 
REMARK   11  A    between atoms: C15_34  and  N10_35 
REMARK   12  A    between atoms: C16_40  and  N12_41 
ROOT
HETATM    1  C7  UNL     1     -40.986  72.439  99.433  1.00  0.00     0.056 A 
HETATM    2  C8  UNL     1     -41.693  71.272  99.493  1.00  0.00     0.034 A 
HETATM    3  C9  UNL     1     -42.947  71.303 100.090  1.00  0.00     0.041 A 
HETATM    4  C10 UNL     1     -43.447  72.478 100.599  1.00  0.00     0.102 A 
HETATM    5  C16 UNL     1     -42.723  73.646 100.531  1.00  0.00     0.138 A 
HETATM    6  C17 UNL     1     -41.475  73.623  99.939  1.00  0.00     0.070 A 
ENDROOT
BRANCH   4   7
HETATM    7  O1  UNL     1     -44.692  72.510 101.193  1.00  0.00    -0.346 OA
BRANCH   7   8
HETATM    8  C11 UNL     1     -45.864  72.648 100.385  1.00  0.00     0.204 C 
BRANCH   8   9
HETATM    9  C12 UNL     1     -47.066  72.935 101.264  1.00  0.00     0.228 C 
BRANCH   9  10
HETATM   10  O2  UNL     1     -47.345  74.328 101.286  1.00  0.00    -0.264 OA
BRANCH  10  11
HETATM   11  N6  UNL     1     -46.366  75.272 101.357  1.00  0.00    -0.095 N 
ATOM     12  H6  UNL     1     -45.503  75.124 100.834  1.00  0.00     0.213 HD
BRANCH  11  13
HETATM   13  C13 UNL     1     -46.491  76.356 102.066  1.00  0.00     0.731 A 
HETATM   14  N7  UNL     1     -47.719  76.681 102.506  1.00  0.00    -0.020 N 
HETATM   15  C14 UNL     1     -47.855  77.812 103.247  1.00  0.00     0.705 A 
ATOM     16  H7  UNL     1     -48.525  76.096 102.290  1.00  0.00     0.203 HD
HETATM   17  N9  UNL     1     -46.802  78.578 103.532  1.00  0.00    -0.022 N 
HETATM   18  C15 UNL     1     -45.598  78.229 103.082  1.00  0.00     0.705 A 
ATOM     19  H9  UNL     1     -46.918  79.424 104.090  1.00  0.00     0.203 HD
HETATM   20  N11 UNL     1     -45.436  77.121 102.350  1.00  0.00    -0.020 N 
ATOM     21  H11 UNL     1     -44.510  76.862 102.010  1.00  0.00     0.203 HD
BRANCH  15  22
HETATM   22  N8  UNL     1     -49.022  78.136 103.674  1.00  0.00    -0.234 N 
ATOM     23  H82 UNL     1     -49.804  78.210 103.023  1.00  0.00     0.174 HD
ATOM     24  H81 UNL     1     -49.148  78.317 104.670  1.00  0.00     0.174 HD
ENDBRANCH  15  22
BRANCH  18  25
HETATM   25  N10 UNL     1     -44.554  78.965 103.349  1.00  0.00    -0.234 N 
ATOM     26 2H10 UNL     1     -44.632  79.689 104.063  1.00  0.00     0.174 HD
ATOM     27 1H10 UNL     1     -43.678  78.818 102.849  1.00  0.00     0.174 HD
ENDBRANCH  18  25
ENDBRANCH  11  13
ENDBRANCH  10  11
ENDBRANCH   9  10
ENDBRANCH   8   9
ENDBRANCH   7   8
ENDBRANCH   4   7
BRANCH   5  28
HETATM   28  N12 UNL     1     -43.197  74.884 101.041  1.00  0.00    -0.113 N 
HETATM   29  O3  UNL     1     -43.504  75.835 100.299  1.00  0.00    -0.532 OA
HETATM   30  O4  UNL     1     -43.331  75.066 102.396  1.00  0.00    -0.532 OA
ENDBRANCH   5  28
BRANCH   1  31
HETATM   31  N5  UNL     1     -39.683  72.441  98.821  1.00  0.00    -0.247 N 
HETATM   32  C6  UNL     1     -38.623  73.195  99.217  1.00  0.00     0.165 A 
HETATM   33  C5  UNL     1     -37.548  72.932  98.397  1.00  0.00     0.158 A 
HETATM   34  N14 UNL     1     -37.989  72.017  97.516  1.00  0.00    -0.266 N 
HETATM   35  N13 UNL     1     -39.273  71.732  97.784  1.00  0.00    -0.014 NA
ATOM     36  H14 UNL     1     -37.435  71.604  96.765  1.00  0.00     0.186 HD
BRANCH  33  37
HETATM   37  N4  UNL     1     -36.226  73.450  98.389  1.00  0.00    -0.203 N 
HETATM   38  N3  UNL     1     -35.206  73.098  99.169  1.00  0.00    -0.011 NA
HETATM   39  N2  UNL     1     -34.125  73.801  98.871  1.00  0.00    -0.280 N 
HETATM   40  C4  UNL     1     -34.429  74.643  97.870  1.00  0.00     0.092 A 
ATOM     41  H2  UNL     1     -33.215  73.718  99.325  1.00  0.00     0.184 HD
HETATM   42  C3  UNL     1     -33.768  75.608  97.128  1.00  0.00     0.038 A 
HETATM   43  C18 UNL     1     -35.752  74.417  97.570  1.00  0.00     0.157 A 
HETATM   44  C2  UNL     1     -34.411  76.313  96.133  1.00  0.00     0.050 A 
HETATM   45  C1  UNL     1     -35.737  76.061  95.859  1.00  0.00     0.100 A 
HETATM   46  N15 UNL     1     -36.380  75.108  96.595  1.00  0.00    -0.326 N 
ATOM     47  H15 UNL     1     -37.363  74.912  96.402  1.00  0.00     0.169 HD
BRANCH  45  48
HETATM   48  N1  UNL     1     -36.335  76.722  94.926  1.00  0.00    -0.385 N 
ATOM     49  H12 UNL     1     -36.658  76.275  94.068  1.00  0.00     0.157 HD
ATOM     50  H11 UNL     1     -36.495  77.723  95.040  1.00  0.00     0.157 HD
ENDBRANCH  45  48
ENDBRANCH  33  37
ENDBRANCH   1  31
TORSDOF 12
ENDMDL
MODEL 2
REMARK VINA RESULT: -9.788066190      2.911     10.240
REMARK  12 active torsions:
REMARK  status: ('A' for Active; 'I' for Inactive)
REMARK    1  A    between atoms: N1_1  and  C1_4 
REMARK    2  A    between atoms: N4_11  and  C5_12 
REMARK    3  A    between atoms: N5_14  and  C7_15 
REMARK    4  A    between atoms: C10_18  and  O1_19 
REMARK    5  A    between atoms: O1_19  and  C11_20 
REMARK    6  A    between atoms: C11_20  and  C12_21 
REMARK    7  A    between atoms: C12_21  and  O2_22 
REMARK    8  A    between atoms: O2_22  and  N6_23 
REMARK    9  A    between atoms: N6_23  and  C13_25 
REMARK   10  A    between atoms: C14_28  and  N8_29 
REMARK   11  A    between atoms: C15_34  and  N10_35 
REMARK   12  A    between atoms: C16_40  and  N12_41 
ROOT
HETATM    1  C7  UNL     1     -40.976  73.416  99.955  1.00  0.00     0.056 A 
HETATM    2  C8  UNL     1     -40.215  72.322  99.659  1.00  0.00     0.034 A 
HETATM    3  C9  UNL     1     -38.835  72.479  99.631  1.00  0.00     0.041 A 
HETATM    4  C10 UNL     1     -38.268  73.704  99.896  1.00  0.00     0.102 A 
HETATM    5  C16 UNL     1     -39.049  74.797 100.193  1.00  0.00     0.138 A 
HETATM    6  C17 UNL     1     -40.422  74.648 100.223  1.00  0.00     0.070 A 
ENDROOT
BRANCH   4   7
HETATM    7  O1  UNL     1     -36.898  73.862  99.868  1.00  0.00    -0.346 OA
BRANCH   7   8
HETATM    8  C11 UNL     1     -36.078  73.136 100.787  1.00  0.00     0.204 C 
BRANCH   8   9
HETATM    9  C12 UNL     1     -34.717  72.877 100.170  1.00  0.00     0.228 C 
BRANCH   9  10
HETATM   10  O2  UNL     1     -34.738  73.167  98.779  1.00  0.00    -0.264 OA
BRANCH  10  11
HETATM   11  N6  UNL     1     -34.159  74.282  98.254  1.00  0.00    -0.095 N 
ATOM     12  H6  UNL     1     -33.219  74.537  98.558  1.00  0.00     0.213 HD
BRANCH  11  13
HETATM   13  C13 UNL     1     -34.759  75.034  97.377  1.00  0.00     0.731 A 
HETATM   14  N7  UNL     1     -36.075  75.255  97.535  1.00  0.00    -0.020 N 
HETATM   15  C14 UNL     1     -36.707  76.040  96.623  1.00  0.00     0.705 A 
ATOM     16  H7  UNL     1     -36.585  74.845  98.317  1.00  0.00     0.203 HD
HETATM   17  N9  UNL     1     -36.042  76.577  95.601  1.00  0.00    -0.022 N 
HETATM   18  C15 UNL     1     -34.737  76.339  95.471  1.00  0.00     0.705 A 
ATOM     19  H9  UNL     1     -36.528  77.165  94.923  1.00  0.00     0.203 HD
HETATM   20  N11 UNL     1     -34.091  75.570  96.354  1.00  0.00    -0.020 N 
ATOM     21  H11 UNL     1     -33.092  75.395  96.247  1.00  0.00     0.203 HD
BRANCH  15  22
HETATM   22  N8  UNL     1     -37.965  76.260  96.760  1.00  0.00    -0.234 N 
ATOM     23  H82 UNL     1     -38.585  76.207  95.952  1.00  0.00     0.174 HD
ATOM     24  H81 UNL     1     -38.326  76.486  97.687  1.00  0.00     0.174 HD
ENDBRANCH  15  22
BRANCH  18  25
HETATM   25  N10 UNL     1     -34.068  76.855  94.477  1.00  0.00    -0.234 N 
ATOM     26 2H10 UNL     1     -33.646  76.229  93.791  1.00  0.00     0.174 HD
ATOM     27 1H10 UNL     1     -33.969  77.866  94.391  1.00  0.00     0.174 HD
ENDBRANCH  18  25
ENDBRANCH  11  13
ENDBRANCH  10  11
ENDBRANCH   9  10
ENDBRANCH   8   9
ENDBRANCH   7   8
ENDBRANCH   4   7
BRANCH   5  28
HETATM   28  N12 UNL     1     -38.511  76.081 100.474  1.00  0.00    -0.113 N 
HETATM   29  O3  UNL     1     -37.891  76.743  99.621  1.00  0.00    -0.532 OA
HETATM   30  O4  UNL     1     -38.665  76.637 101.720  1.00  0.00    -0.532 OA
ENDBRANCH   5  28
BRANCH   1  31
HETATM   31  N5  UNL     1     -42.410  73.286  99.993  1.00  0.00    -0.247 N 
HETATM   32  C6  UNL     1     -43.263  74.118 100.647  1.00  0.00     0.165 A 
HETATM   33  C5  UNL     1     -44.556  73.681 100.458  1.00  0.00     0.158 A 
HETATM   34  N14 UNL     1     -44.451  72.586  99.686  1.00  0.00    -0.266 N 
HETATM   35  N13 UNL     1     -43.156  72.362  99.414  1.00  0.00    -0.014 NA
ATOM     36  H14 UNL     1     -45.232  72.016  99.358  1.00  0.00     0.186 HD
BRANCH  33  37
HETATM   37  N4  UNL     1     -45.796  74.192 100.925  1.00  0.00    -0.203 N 
HETATM   38  N3  UNL     1     -46.995  73.616 100.856  1.00  0.00    -0.011 NA
HETATM   39  N2  UNL     1     -47.919  74.394 101.398  1.00  0.00    -0.280 N 
HETATM   40  C4  UNL     1     -47.325  75.515 101.837  1.00  0.00     0.092 A 
ATOM     41  H2  UNL     1     -48.913  74.179 101.468  1.00  0.00     0.184 HD
HETATM   42  C3  UNL     1     -47.717  76.681 102.474  1.00  0.00     0.038 A 
HETATM   43  C18 UNL     1     -45.989  75.382 101.538  1.00  0.00     0.157 A 
HETATM   44  C2  UNL     1     -46.806  77.666 102.792  1.00  0.00     0.050 A 
HETATM   45  C1  UNL     1     -45.476  77.499 102.478  1.00  0.00     0.100 A 
HETATM   46  N15 UNL     1     -45.099  76.347 101.851  1.00  0.00    -0.326 N 
ATOM     47  H15 UNL     1     -44.116  76.212 101.612  1.00  0.00     0.169 HD
BRANCH  45  48
HETATM   48  N1  UNL     1     -44.627  78.424 102.778  1.00  0.00    -0.385 N 
ATOM     49  H12 UNL     1     -43.834  78.645 102.176  1.00  0.00     0.157 HD
ATOM     50  H11 UNL     1     -44.743  78.956 103.640  1.00  0.00     0.157 HD
ENDBRANCH  45  48
ENDBRANCH  33  37
ENDBRANCH   1  31
TORSDOF 12
ENDMDL
MODEL 3
REMARK VINA RESULT: -9.743040362      1.003      1.091
REMARK  12 active torsions:
REMARK  status: ('A' for Active; 'I' for Inactive)
REMARK    1  A    between atoms: N1_1  and  C1_4 
REMARK    2  A    between atoms: N4_11  and  C5_12 
REMARK    3  A    between atoms: N5_14  and  C7_15 
REMARK    4  A    between atoms: C10_18  and  O1_19 
REMARK    5  A    between atoms: O1_19  and  C11_20 
REMARK    6  A    between atoms: C11_20  and  C12_21 
REMARK    7  A    between atoms: C12_21  and  O2_22 
REMARK    8  A    between atoms: O2_22  and  N6_23 
REMARK    9  A    between atoms: N6_23  and  C13_25 
REMARK   10  A    between atoms: C14_28  and  N8_29 
REMARK   11  A    between atoms: C15_34  and  N10_35 
REMARK   12  A    between atoms: C16_40  and  N12_41 
ROOT
HETATM    1  C7  UNL     1     -40.630  72.212  98.616  1.00  0.00     0.056 A 
HETATM    2  C8  UNL     1     -41.444  71.260  98.072  1.00  0.00     0.034 A 
HETATM    3  C9  UNL     1     -42.698  71.076  98.642  1.00  0.00     0.041 A 
HETATM    4  C10 UNL     1     -43.092  71.835  99.718  1.00  0.00     0.102 A 
HETATM    5  C16 UNL     1     -42.260  72.790 100.255  1.00  0.00     0.138 A 
HETATM    6  C17 UNL     1     -41.012  72.979  99.694  1.00  0.00     0.070 A 
ENDROOT
BRANCH   4   7
HETATM    7  O1  UNL     1     -44.336  71.653 100.286  1.00  0.00    -0.346 OA
BRANCH   7   8
HETATM    8  C11 UNL     1     -45.485  72.269  99.699  1.00  0.00     0.204 C 
BRANCH   8   9
HETATM    9  C12 UNL     1     -46.315  72.942 100.774  1.00  0.00     0.228 C 
BRANCH   9  10
HETATM   10  O2  UNL     1     -46.127  74.350 100.740  1.00  0.00    -0.264 OA
BRANCH  10  11
HETATM   11  N6  UNL     1     -46.881  75.209 101.480  1.00  0.00    -0.095 N 
ATOM     12  H6  UNL     1     -47.880  75.026 101.579  1.00  0.00     0.213 HD
BRANCH  11  13
HETATM   13  C13 UNL     1     -46.375  76.256 102.066  1.00  0.00     0.731 A 
HETATM   14  N7  UNL     1     -47.227  77.154 102.591  1.00  0.00    -0.020 N 
HETATM   15  C14 UNL     1     -46.704  78.249 103.204  1.00  0.00     0.705 A 
ATOM     16  H7  UNL     1     -48.235  77.018 102.531  1.00  0.00     0.203 HD
HETATM   17  N9  UNL     1     -45.386  78.428 103.284  1.00  0.00    -0.022 N 
HETATM   18  C15 UNL     1     -44.568  77.520 102.754  1.00  0.00     0.705 A 
ATOM     19  H9  UNL     1     -45.007  79.254 103.748  1.00  0.00     0.203 HD
HETATM   20  N11 UNL     1     -45.056  76.433 102.145  1.00  0.00    -0.020 N 
ATOM     21  H11 UNL     1     -44.422  75.744 101.742  1.00  0.00     0.203 HD
BRANCH  15  22
HETATM   22  N8  UNL     1     -47.505  79.116 103.710  1.00  0.00    -0.234 N 
ATOM     23  H82 UNL     1     -48.382  78.816 104.136  1.00  0.00     0.174 HD
ATOM     24  H81 UNL     1     -47.246  80.102 103.677  1.00  0.00     0.174 HD
ENDBRANCH  15  22
BRANCH  18  25
HETATM   25  N10 UNL     1     -43.275  77.677 102.821  1.00  0.00    -0.234 N 
ATOM     26 2H10 UNL     1     -42.712  77.484 101.992  1.00  0.00     0.174 HD
ATOM     27 1H10 UNL     1     -42.837  77.987 103.688  1.00  0.00     0.174 HD
ENDBRANCH  18  25
ENDBRANCH  11  13
ENDBRANCH  10  11
ENDBRANCH   9  10
ENDBRANCH   8   9
ENDBRANCH   7   8
ENDBRANCH   4   7
BRANCH   5  28
HETATM   28  N12 UNL     1     -42.622  73.599 101.365  1.00  0.00    -0.113 N 
HETATM   29  O3  UNL     1     -42.799  74.827 101.264  1.00  0.00    -0.532 OA
HETATM   30  O4  UNL     1     -42.789  73.034 102.606  1.00  0.00    -0.532 OA
ENDBRANCH   5  28
BRANCH   1  31
HETATM   31  N5  UNL     1     -39.324  72.429  98.048  1.00  0.00    -0.247 N 
HETATM   32  C6  UNL     1     -38.353  73.220  98.576  1.00  0.00     0.165 A 
HETATM   33  C5  UNL     1     -37.244  73.182  97.759  1.00  0.00     0.158 A 
HETATM   34  N14 UNL     1     -37.575  72.360  96.749  1.00  0.00    -0.266 N 
HETATM   35  N13 UNL     1     -38.828  71.915  96.937  1.00  0.00    -0.014 NA
ATOM     36  H14 UNL     1     -36.971  72.113  95.965  1.00  0.00     0.186 HD
BRANCH  33  37
HETATM   37  N4  UNL     1     -35.982  73.825  97.862  1.00  0.00    -0.203 N 
HETATM   38  N3  UNL     1     -35.009  73.578  98.738  1.00  0.00    -0.011 NA
HETATM   39  N2  UNL     1     -33.976  74.379  98.526  1.00  0.00    -0.280 N 
HETATM   40  C4  UNL     1     -34.265  75.179  97.487  1.00  0.00     0.092 A 
ATOM     41  H2  UNL     1     -33.109  74.388  99.063  1.00  0.00     0.184 HD
HETATM   42  C3  UNL     1     -33.633  76.196  96.791  1.00  0.00     0.038 A 
HETATM   43  C18 UNL     1     -35.528  74.825  97.073  1.00  0.00     0.157 A 
HETATM   44  C2  UNL     1     -34.246  76.827  95.729  1.00  0.00     0.050 A 
HETATM   45  C1  UNL     1     -35.511  76.446  95.341  1.00  0.00     0.100 A 
HETATM   46  N15 UNL     1     -36.126  75.443  96.032  1.00  0.00    -0.326 N 
ATOM     47  H15 UNL     1     -37.064  75.153  95.755  1.00  0.00     0.169 HD
BRANCH  45  48
HETATM   48  N1  UNL     1     -36.080  77.039  94.346  1.00  0.00    -0.385 N 
ATOM     49  H12 UNL     1     -35.883  78.012  94.112  1.00  0.00     0.157 HD
ATOM     50  H11 UNL     1     -36.749  76.529  93.769  1.00  0.00     0.157 HD
ENDBRANCH  45  48
ENDBRANCH  33  37
ENDBRANCH   1  31
TORSDOF 12
ENDMDL
MODEL 4
REMARK VINA RESULT: -9.598527495      1.735      2.551
REMARK  12 active torsions:
REMARK  status: ('A' for Active; 'I' for Inactive)
REMARK    1  A    between atoms: N1_1  and  C1_4 
REMARK    2  A    between atoms: N4_11  and  C5_12 
REMARK    3  A    between atoms: N5_14  and  C7_15 
REMARK    4  A    between atoms: C10_18  and  O1_19 
REMARK    5  A    between atoms: O1_19  and  C11_20 
REMARK    6  A    between atoms: C11_20  and  C12_21 
REMARK    7  A    between atoms: C12_21  and  O2_22 
REMARK    8  A    between atoms: O2_22  and  N6_23 
REMARK    9  A    between atoms: N6_23  and  C13_25 
REMARK   10  A    between atoms: C14_28  and  N8_29 
REMARK   11  A    between atoms: C15_34  and  N10_35 
REMARK   12  A    between atoms: C16_40  and  N12_41 
ROOT
HETATM    1  C7  UNL     1     -40.850  74.112 100.005  1.00  0.00     0.056 A 
HETATM    2  C8  UNL     1     -41.068  72.768  99.905  1.00  0.00     0.034 A 
HETATM    3  C9  UNL     1     -42.348  72.297 100.168  1.00  0.00     0.041 A 
HETATM    4  C10 UNL     1     -43.353  73.169 100.517  1.00  0.00     0.102 A 
HETATM    5  C16 UNL     1     -43.117  74.521 100.613  1.00  0.00     0.138 A 
HETATM    6  C17 UNL     1     -41.846  74.996 100.353  1.00  0.00     0.070 A 
ENDROOT
BRANCH   4   7
HETATM    7  O1  UNL     1     -44.624  72.703 100.779  1.00  0.00    -0.346 OA
BRANCH   7   8
HETATM    8  C11 UNL     1     -45.291  71.874  99.824  1.00  0.00     0.204 C 
BRANCH   8   9
HETATM    9  C12 UNL     1     -45.960  72.735  98.771  1.00  0.00     0.228 C 
BRANCH   9  10
HETATM   10  O2  UNL     1     -47.221  73.199  99.234  1.00  0.00    -0.264 OA
BRANCH  10  11
HETATM   11  N6  UNL     1     -47.609  73.092 100.535  1.00  0.00    -0.095 N 
ATOM     12  H6  UNL     1     -47.518  72.190 101.002  1.00  0.00     0.213 HD
BRANCH  11  13
HETATM   13  C13 UNL     1     -48.091  74.099 101.205  1.00  0.00     0.731 A 
HETATM   14  N7  UNL     1     -47.248  75.090 101.544  1.00  0.00    -0.020 N 
HETATM   15  C14 UNL     1     -47.746  76.143 102.243  1.00  0.00     0.705 A 
ATOM     16  H7  UNL     1     -46.263  75.052 101.284  1.00  0.00     0.203 HD
HETATM   17  N9  UNL     1     -49.033  76.195 102.584  1.00  0.00    -0.022 N 
HETATM   18  C15 UNL     1     -49.844  75.197 102.233  1.00  0.00     0.705 A 
ATOM     19  H9  UNL     1     -49.395  76.992 103.108  1.00  0.00     0.203 HD
HETATM   20  N11 UNL     1     -49.380  74.149 101.544  1.00  0.00    -0.020 N 
ATOM     21  H11 UNL     1     -50.008  73.391 101.280  1.00  0.00     0.203 HD
BRANCH  15  22
HETATM   22  N8  UNL     1     -46.953  77.097 102.575  1.00  0.00    -0.234 N 
ATOM     23  H82 UNL     1     -47.100  78.037 102.207  1.00  0.00     0.174 HD
ATOM     24  H81 UNL     1     -46.179  76.895 103.209  1.00  0.00     0.174 HD
ENDBRANCH  15  22
BRANCH  18  25
HETATM   25  N10 UNL     1     -51.108  75.229 102.556  1.00  0.00    -0.234 N 
ATOM     26 2H10 UNL     1     -51.609  76.115 102.498  1.00  0.00     0.174 HD
ATOM     27 1H10 UNL     1     -51.583  74.380 102.862  1.00  0.00     0.174 HD
ENDBRANCH  18  25
ENDBRANCH  11  13
ENDBRANCH  10  11
ENDBRANCH   9  10
ENDBRANCH   8   9
ENDBRANCH   7   8
ENDBRANCH   4   7
BRANCH   5  28
HETATM   28  N12 UNL     1     -44.121  75.460 100.969  1.00  0.00    -0.113 N 
HETATM   29  O3  UNL     1     -44.952  75.889 100.146  1.00  0.00    -0.532 OA
HETATM   30  O4  UNL     1     -44.203  75.928 102.257  1.00  0.00    -0.532 OA
ENDBRANCH   5  28
BRANCH   1  31
HETATM   31  N5  UNL     1     -39.533  74.633  99.738  1.00  0.00    -0.247 N 
HETATM   32  C6  UNL     1     -38.525  73.959  99.123  1.00  0.00     0.165 A 
HETATM   33  C5  UNL     1     -37.418  74.775  99.043  1.00  0.00     0.158 A 
HETATM   34  N14 UNL     1     -37.788  75.933  99.617  1.00  0.00    -0.266 N 
HETATM   35  N13 UNL     1     -39.062  75.832 100.029  1.00  0.00    -0.014 NA
ATOM     36  H14 UNL     1     -37.195  76.757  99.722  1.00  0.00     0.186 HD
BRANCH  33  37
HETATM   37  N4  UNL     1     -36.125  74.550  98.500  1.00  0.00    -0.203 N 
HETATM   38  N3  UNL     1     -35.175  73.740  98.963  1.00  0.00    -0.011 NA
HETATM   39  N2  UNL     1     -34.100  73.792  98.191  1.00  0.00    -0.280 N 
HETATM   40  C4  UNL     1     -34.338  74.655  97.190  1.00  0.00     0.092 A 
ATOM     41  H2  UNL     1     -33.238  73.265  98.333  1.00  0.00     0.184 HD
HETATM   42  C3  UNL     1     -33.649  75.138  96.090  1.00  0.00     0.038 A 
HETATM   43  C18 UNL     1     -35.614  75.128  97.389  1.00  0.00     0.157 A 
HETATM   44  C2  UNL     1     -34.218  76.055  95.233  1.00  0.00     0.050 A 
HETATM   45  C1  UNL     1     -35.499  76.507  95.462  1.00  0.00     0.100 A 
HETATM   46  N15 UNL     1     -36.170  76.026  96.548  1.00  0.00    -0.326 N 
ATOM     47  H15 UNL     1     -37.119  76.353  96.730  1.00  0.00     0.169 HD
BRANCH  45  48
HETATM   48  N1  UNL     1     -36.028  77.366  94.657  1.00  0.00    -0.385 N 
ATOM     49  H12 UNL     1     -37.030  77.383  94.468  1.00  0.00     0.157 HD
ATOM     50  H11 UNL     1     -35.436  78.053  94.191  1.00  0.00     0.157 HD
ENDBRANCH  45  48
ENDBRANCH  33  37
ENDBRANCH   1  31
TORSDOF 12
ENDMDL
MODEL 5
REMARK VINA RESULT: -9.596641965      3.455      9.985
REMARK  12 active torsions:
REMARK  status: ('A' for Active; 'I' for Inactive)
REMARK    1  A    between atoms: N1_1  and  C1_4 
REMARK    2  A    between atoms: N4_11  and  C5_12 
REMARK    3  A    between atoms: N5_14  and  C7_15 
REMARK    4  A    between atoms: C10_18  and  O1_19 
REMARK    5  A    between atoms: O1_19  and  C11_20 
REMARK    6  A    between atoms: C11_20  and  C12_21 
REMARK    7  A    between atoms: C12_21  and  O2_22 
REMARK    8  A    between atoms: O2_22  and  N6_23 
REMARK    9  A    between atoms: N6_23  and  C13_25 
REMARK   10  A    between atoms: C14_28  and  N8_29 
REMARK   11  A    between atoms: C15_34  and  N10_35 
REMARK   12  A    between atoms: C16_40  and  N12_41 
ROOT
HETATM    1  C7  UNL     1     -39.908  73.116  99.874  1.00  0.00     0.056 A 
HETATM    2  C8  UNL     1     -39.965  72.243  98.825  1.00  0.00     0.034 A 
HETATM    3  C9  UNL     1     -38.845  71.461  98.571  1.00  0.00     0.041 A 
HETATM    4  C10 UNL     1     -37.723  71.574  99.358  1.00  0.00     0.102 A 
HETATM    5  C16 UNL     1     -37.682  72.458 100.412  1.00  0.00     0.138 A 
HETATM    6  C17 UNL     1     -38.792  73.239 100.671  1.00  0.00     0.070 A 
ENDROOT
BRANCH   4   7
HETATM    7  O1  UNL     1     -36.610  70.799  99.107  1.00  0.00    -0.346 OA
BRANCH   7   8
HETATM    8  C11 UNL     1     -35.822  71.041  97.939  1.00  0.00     0.204 C 
BRANCH   8   9
HETATM    9  C12 UNL     1     -34.451  71.551  98.338  1.00  0.00     0.228 C 
BRANCH   9  10
HETATM   10  O2  UNL     1     -34.178  72.792  97.702  1.00  0.00    -0.264 OA
BRANCH  10  11
HETATM   11  N6  UNL     1     -34.522  73.990  98.250  1.00  0.00    -0.095 N 
ATOM     12  H6  UNL     1     -34.036  74.303  99.090  1.00  0.00     0.213 HD
BRANCH  11  13
HETATM   13  C13 UNL     1     -35.450  74.750  97.743  1.00  0.00     0.731 A 
HETATM   14  N7  UNL     1     -35.277  75.198  96.487  1.00  0.00    -0.020 N 
HETATM   15  C14 UNL     1     -36.242  75.992  95.953  1.00  0.00     0.705 A 
ATOM     16  H7  UNL     1     -34.445  74.950  95.952  1.00  0.00     0.203 HD
HETATM   17  N9  UNL     1     -37.329  76.316  96.651  1.00  0.00    -0.022 N 
HETATM   18  C15 UNL     1     -37.472  75.856  97.893  1.00  0.00     0.705 A 
ATOM     19  H9  UNL     1     -38.047  76.913  96.237  1.00  0.00     0.203 HD
HETATM   20  N11 UNL     1     -36.538  75.073  98.443  1.00  0.00    -0.020 N 
ATOM     21  H11 UNL     1     -36.656  74.725  99.394  1.00  0.00     0.203 HD
BRANCH  15  22
HETATM   22  N8  UNL     1     -36.090  76.429  94.755  1.00  0.00    -0.234 N 
ATOM     23  H82 UNL     1     -36.476  75.908  93.967  1.00  0.00     0.174 HD
ATOM     24  H81 UNL     1     -35.580  77.300  94.610  1.00  0.00     0.174 HD
ENDBRANCH  15  22
BRANCH  18  25
HETATM   25  N10 UNL     1     -38.529  76.162  98.593  1.00  0.00    -0.234 N 
ATOM     26 2H10 UNL     1     -38.980  77.063  98.435  1.00  0.00     0.174 HD
ATOM     27 1H10 UNL     1     -38.895  75.510  99.287  1.00  0.00     0.174 HD
ENDBRANCH  18  25
ENDBRANCH  11  13
ENDBRANCH  10  11
ENDBRANCH   9  10
ENDBRANCH   8   9
ENDBRANCH   7   8
ENDBRANCH   4   7
BRANCH   5  28
HETATM   28  N12 UNL     1     -36.548  72.611 101.253  1.00  0.00    -0.113 N 
HETATM   29  O3  UNL     1     -35.646  73.434 101.010  1.00  0.00    -0.532 OA
HETATM   30  O4  UNL     1     -36.416  71.838 102.380  1.00  0.00    -0.532 OA
ENDBRANCH   5  28
BRANCH   1  31
HETATM   31  N5  UNL     1     -41.053  73.941 100.165  1.00  0.00    -0.247 N 
HETATM   32  C6  UNL     1     -42.325  73.496 100.341  1.00  0.00     0.165 A 
HETATM   33  C5  UNL     1     -43.149  74.569 100.602  1.00  0.00     0.158 A 
HETATM   34  N14 UNL     1     -42.346  75.647 100.577  1.00  0.00    -0.266 N 
HETATM   35  N13 UNL     1     -41.089  75.253 100.313  1.00  0.00    -0.014 NA
ATOM     36  H14 UNL     1     -42.644  76.610 100.734  1.00  0.00     0.186 HD
BRANCH  33  37
HETATM   37  N4  UNL     1     -44.544  74.639 100.855  1.00  0.00    -0.203 N 
HETATM   38  N3  UNL     1     -45.483  73.761 100.506  1.00  0.00    -0.011 NA
HETATM   39  N2  UNL     1     -46.675  74.165 100.915  1.00  0.00    -0.280 N 
HETATM   40  C4  UNL     1     -46.531  75.339 101.551  1.00  0.00     0.092 A 
ATOM     41  H2  UNL     1     -47.555  73.669 100.771  1.00  0.00     0.184 HD
HETATM   42  C3  UNL     1     -47.358  76.249 102.189  1.00  0.00     0.038 A 
HETATM   43  C18 UNL     1     -45.188  75.632 101.511  1.00  0.00     0.157 A 
HETATM   44  C2  UNL     1     -46.855  77.400 102.757  1.00  0.00     0.050 A 
HETATM   45  C1  UNL     1     -45.504  77.661 102.698  1.00  0.00     0.100 A 
HETATM   46  N15 UNL     1     -44.697  76.759 102.069  1.00  0.00    -0.326 N 
ATOM     47  H15 UNL     1     -43.694  76.942 102.017  1.00  0.00     0.169 HD
BRANCH  45  48
HETATM   48  N1  UNL     1     -45.038  78.740 103.232  1.00  0.00    -0.385 N 
ATOM     49  H12 UNL     1     -44.191  78.739 103.800  1.00  0.00     0.157 HD
ATOM     50  H11 UNL     1     -45.522  79.626 103.088  1.00  0.00     0.157 HD
ENDBRANCH  45  48
ENDBRANCH  33  37
ENDBRANCH   1  31
TORSDOF 12
ENDMDL
