MODEL 1
REMARK VINA RESULT: -10.617181768      0.000      0.000
REMARK  8 active torsions:
REMARK  status: ('A' for Active; 'I' for Inactive)
REMARK       I    between atoms: C1_4  and  N3_6 
REMARK       I    between atoms: N3_6  and  C2_8 
REMARK    1  A    between atoms: C2_8  and  C3_10 
REMARK    2  A    between atoms: C3_10  and  N4_11 
REMARK    3  A    between atoms: C5_13  and  C6_14 
REMARK    4  A    between atoms: C9_17  and  N5_18 
REMARK    5  A    between atoms: C11_20  and  S1_21 
REMARK    6  A    between atoms: S1_21  and  C12_22 
REMARK    7  A    between atoms: C13_25  and  N7_26 
REMARK    8  A    between atoms: C15_35  and  N10_36 
ROOT
HETATM    1  N5  UNL     1     -43.469  74.859 100.913  1.00  0.00    -0.248 N 
HETATM    2  C10 UNL     1     -42.421  75.635 100.553  1.00  0.00     0.152 A 
HETATM    3  C11 UNL     1     -41.348  74.846 100.213  1.00  0.00     0.106 A 
HETATM    4  N14 UNL     1     -41.778  73.580 100.378  1.00  0.00    -0.276 N 
ATOM      5  H14 UNL     1     -41.224  72.740 100.211  1.00  0.00     0.185 HD
HETATM    6  N15 UNL     1     -43.042  73.604 100.795  1.00  0.00    -0.015 NA
ENDROOT
BRANCH   1   7
HETATM    7  C9  UNL     1     -44.772  75.284 101.333  1.00  0.00     0.054 A 
HETATM    8  C8  UNL     1     -44.997  76.486 101.930  1.00  0.00     0.032 A 
HETATM    9  C7  UNL     1     -46.289  76.812 102.303  1.00  0.00     0.014 A 
HETATM   10  C6  UNL     1     -47.367  75.969 102.097  1.00  0.00    -0.023 A 
HETATM   11  C18 UNL     1     -47.107  74.750 101.489  1.00  0.00     0.014 A 
HETATM   12  C17 UNL     1     -45.837  74.429 101.121  1.00  0.00     0.032 A 
BRANCH  10  13
HETATM   13  C5  UNL     1     -48.728  76.315 102.493  1.00  0.00     0.008 A 
HETATM   14  C4  UNL     1     -49.899  75.622 102.284  1.00  0.00     0.124 A 
HETATM   15  N4  UNL     1     -50.933  76.300 102.814  1.00  0.00    -0.294 N 
HETATM   16  N16 UNL     1     -50.434  77.419 103.360  1.00  0.00    -0.309 N 
HETATM   17  C19 UNL     1     -49.099  77.454 103.180  1.00  0.00     0.121 A 
ATOM     18  H16 UNL     1     -50.982  78.133 103.838  1.00  0.00     0.186 HD
BRANCH  15  19
HETATM   19  C3  UNL     1     -52.331  75.926 102.816  1.00  0.00     0.251 C 
BRANCH  19  20
HETATM   20  C2  UNL     1     -52.733  75.610 104.199  1.00  0.00     0.243 C 
HETATM   21  N3  UNL     1     -52.981  76.627 105.175  1.00  0.00    -0.300 N 
HETATM   22  C1  UNL     1     -53.367  76.312 106.502  1.00  0.00     0.188 C 
ATOM     23  H3  UNL     1     -52.877  77.606 104.909  1.00  0.00     0.171 HD
HETATM   24  N1  UNL     1     -53.575  77.276 107.334  1.00  0.00    -0.373 N 
HETATM   25  N2  UNL     1     -53.533  74.972 106.944  1.00  0.00    -0.064 NA
ATOM     26  H12 UNL     1     -53.853  77.050 108.289  1.00  0.00     0.158 HD
ATOM     27  H11 UNL     1     -53.456  78.238 107.017  1.00  0.00     0.158 HD
HETATM   28  O1  UNL     1     -52.870  74.421 104.555  1.00  0.00    -0.271 OA
ENDBRANCH  19  20
ENDBRANCH  15  19
ENDBRANCH  10  13
ENDBRANCH   1   7
BRANCH   3  29
HETATM   29  S1  UNL     1     -39.749  75.420  99.675  1.00  0.00    -0.049 SA
BRANCH  29  30
HETATM   30  C12 UNL     1     -38.499  74.468 100.517  1.00  0.00     0.125 A 
HETATM   31  N6  UNL     1     -38.662  73.989 101.763  1.00  0.00    -0.183 N 
HETATM   32  C13 UNL     1     -37.710  73.275 102.380  1.00  0.00     0.678 A 
ATOM     33  H6  UNL     1     -39.537  74.175 102.254  1.00  0.00     0.185 HD
HETATM   34  N8  UNL     1     -36.554  73.030 101.728  1.00  0.00    -0.175 N 
HETATM   35  C14 UNL     1     -36.358  73.491 100.484  1.00  0.00     0.146 A 
ATOM     36  H8  UNL     1     -35.823  72.488 102.187  1.00  0.00     0.186 HD
HETATM   37  N9  UNL     1     -35.251  73.271  99.826  1.00  0.00    -0.383 N 
HETATM   38  C15 UNL     1     -37.326  74.229  99.829  1.00  0.00     0.137 A 
ATOM     39  H92 UNL     1     -34.537  72.727 100.309  1.00  0.00     0.157 HD
ATOM     40  H91 UNL     1     -35.102  73.621  98.880  1.00  0.00     0.157 HD
BRANCH  32  41
HETATM   41  N7  UNL     1     -37.858  72.809 103.584  1.00  0.00    -0.234 N 
ATOM     42  H72 UNL     1     -37.988  71.805 103.708  1.00  0.00     0.174 HD
ATOM     43  H71 UNL     1     -37.850  73.411 104.408  1.00  0.00     0.174 HD
ENDBRANCH  32  41
BRANCH  38  44
HETATM   44  N10 UNL     1     -37.103  74.716  98.505  1.00  0.00    -0.232 N 
HETATM   45  C16 UNL     1     -37.394  74.101  97.335  1.00  0.00     0.223 A 
HETATM   46  N11 UNL     1     -37.026  74.896  96.309  1.00  0.00    -0.277 N 
HETATM   47  N12 UNL     1     -36.519  75.978  96.871  1.00  0.00    -0.005 NA
ATOM     48  H11 UNL     1     -37.119  74.702  95.312  1.00  0.00     0.185 HD
HETATM   49  N13 UNL     1     -36.566  75.867  98.193  1.00  0.00    -0.218 N 
ATOM     50  H13 UNL     1     -36.238  76.566  98.858  1.00  0.00     0.206 HD
ENDBRANCH  38  44
ENDBRANCH  29  30
ENDBRANCH   3  29
TORSDOF 8
ENDMDL
MODEL 2
REMARK VINA RESULT: -10.552726093      1.745      2.528
REMARK  8 active torsions:
REMARK  status: ('A' for Active; 'I' for Inactive)
REMARK       I    between atoms: C1_4  and  N3_6 
REMARK       I    between atoms: N3_6  and  C2_8 
REMARK    1  A    between atoms: C2_8  and  C3_10 
REMARK    2  A    between atoms: C3_10  and  N4_11 
REMARK    3  A    between atoms: C5_13  and  C6_14 
REMARK    4  A    between atoms: C9_17  and  N5_18 
REMARK    5  A    between atoms: C11_20  and  S1_21 
REMARK    6  A    between atoms: S1_21  and  C12_22 
REMARK    7  A    between atoms: C13_25  and  N7_26 
REMARK    8  A    between atoms: C15_35  and  N10_36 
ROOT
HETATM    1  N5  UNL     1     -43.159  74.916 100.671  1.00  0.00    -0.248 N 
HETATM    2  C10 UNL     1     -42.086  75.724 100.517  1.00  0.00     0.152 A 
HETATM    3  C11 UNL     1     -41.012  74.998 100.060  1.00  0.00     0.106 A 
HETATM    4  N14 UNL     1     -41.468  73.735  99.944  1.00  0.00    -0.276 N 
ATOM      5  H14 UNL     1     -40.922  72.935  99.626  1.00  0.00     0.185 HD
HETATM    6  N15 UNL     1     -42.747  73.703 100.311  1.00  0.00    -0.015 NA
ENDROOT
BRANCH   1   7
HETATM    7  C9  UNL     1     -44.471  75.276 101.124  1.00  0.00     0.054 A 
HETATM    8  C8  UNL     1     -44.732  76.444 101.770  1.00  0.00     0.032 A 
HETATM    9  C7  UNL     1     -46.029  76.708 102.172  1.00  0.00     0.014 A 
HETATM   10  C6  UNL     1     -47.078  75.834 101.946  1.00  0.00    -0.023 A 
HETATM   11  C18 UNL     1     -46.782  74.650 101.287  1.00  0.00     0.014 A 
HETATM   12  C17 UNL     1     -45.507  74.391 100.891  1.00  0.00     0.032 A 
BRANCH  10  13
HETATM   13  C5  UNL     1     -48.445  76.114 102.372  1.00  0.00     0.008 A 
HETATM   14  C4  UNL     1     -49.575  75.336 102.243  1.00  0.00     0.124 A 
HETATM   15  N4  UNL     1     -50.633  75.975 102.774  1.00  0.00    -0.294 N 
HETATM   16  N16 UNL     1     -50.192  77.152 103.240  1.00  0.00    -0.309 N 
HETATM   17  C19 UNL     1     -48.869  77.263 103.009  1.00  0.00     0.121 A 
ATOM     18  H16 UNL     1     -50.769  77.856 103.698  1.00  0.00     0.186 HD
BRANCH  15  19
HETATM   19  C3  UNL     1     -52.002  75.512 102.846  1.00  0.00     0.251 C 
BRANCH  19  20
HETATM   20  C2  UNL     1     -52.201  74.466 101.827  1.00  0.00     0.243 C 
HETATM   21  N3  UNL     1     -51.962  73.080 102.096  1.00  0.00    -0.300 N 
HETATM   22  C1  UNL     1     -52.156  72.081 101.108  1.00  0.00     0.188 C 
ATOM     23  H3  UNL     1     -51.644  72.803 103.024  1.00  0.00     0.171 HD
HETATM   24  N1  UNL     1     -51.923  70.851 101.416  1.00  0.00    -0.373 N 
HETATM   25  N2  UNL     1     -52.599  72.393  99.795  1.00  0.00    -0.064 NA
ATOM     26  H12 UNL     1     -52.063  70.132 100.705  1.00  0.00     0.158 HD
ATOM     27  H11 UNL     1     -51.605  70.627 102.359  1.00  0.00     0.158 HD
HETATM   28  O1  UNL     1     -52.591  74.772 100.681  1.00  0.00    -0.271 OA
ENDBRANCH  19  20
ENDBRANCH  15  19
ENDBRANCH  10  13
ENDBRANCH   1   7
BRANCH   3  29
HETATM   29  S1  UNL     1     -39.384  75.632  99.710  1.00  0.00    -0.049 SA
BRANCH  29  30
HETATM   30  C12 UNL     1     -38.185  74.516 100.412  1.00  0.00     0.125 A 
HETATM   31  N6  UNL     1     -38.318  73.978 101.637  1.00  0.00    -0.183 N 
HETATM   32  C13 UNL     1     -37.403  73.141 102.148  1.00  0.00     0.678 A 
ATOM     33  H6  UNL     1     -39.138  74.214 102.195  1.00  0.00     0.185 HD
HETATM   34  N8  UNL     1     -36.320  72.829 101.408  1.00  0.00    -0.175 N 
HETATM   35  C14 UNL     1     -36.155  73.346 100.180  1.00  0.00     0.146 A 
ATOM     36  H8  UNL     1     -35.618  72.193 101.785  1.00  0.00     0.186 HD
HETATM   37  N9  UNL     1     -35.118  73.064  99.439  1.00  0.00    -0.383 N 
HETATM   38  C15 UNL     1     -37.085  74.211  99.635  1.00  0.00     0.137 A 
ATOM     39  H92 UNL     1     -34.432  72.426  99.842  1.00  0.00     0.157 HD
ATOM     40  H91 UNL     1     -34.993  73.457  98.506  1.00  0.00     0.157 HD
BRANCH  32  41
HETATM   41  N7  UNL     1     -37.523  72.617 103.331  1.00  0.00    -0.234 N 
ATOM     42  H72 UNL     1     -38.033  73.134 104.046  1.00  0.00     0.174 HD
ATOM     43  H71 UNL     1     -37.125  71.708 103.569  1.00  0.00     0.174 HD
ENDBRANCH  32  41
BRANCH  38  44
HETATM   44  N10 UNL     1     -36.897  74.756  98.328  1.00  0.00    -0.232 N 
HETATM   45  C16 UNL     1     -37.371  74.279  97.153  1.00  0.00     0.223 A 
HETATM   46  N11 UNL     1     -36.969  75.085  96.149  1.00  0.00    -0.277 N 
HETATM   47  N12 UNL     1     -36.259  76.036  96.727  1.00  0.00    -0.005 NA
ATOM     48  H11 UNL     1     -37.169  74.981  95.155  1.00  0.00     0.185 HD
HETATM   49  N13 UNL     1     -36.217  75.836  98.039  1.00  0.00    -0.218 N 
ATOM     50  H13 UNL     1     -35.734  76.429  98.714  1.00  0.00     0.206 HD
ENDBRANCH  38  44
ENDBRANCH  29  30
ENDBRANCH   3  29
TORSDOF 8
ENDMDL
MODEL 3
REMARK VINA RESULT: -10.491381915      1.424      3.292
REMARK  8 active torsions:
REMARK  status: ('A' for Active; 'I' for Inactive)
REMARK       I    between atoms: C1_4  and  N3_6 
REMARK       I    between atoms: N3_6  and  C2_8 
REMARK    1  A    between atoms: C2_8  and  C3_10 
REMARK    2  A    between atoms: C3_10  and  N4_11 
REMARK    3  A    between atoms: C5_13  and  C6_14 
REMARK    4  A    between atoms: C9_17  and  N5_18 
REMARK    5  A    between atoms: C11_20  and  S1_21 
REMARK    6  A    between atoms: S1_21  and  C12_22 
REMARK    7  A    between atoms: C13_25  and  N7_26 
REMARK    8  A    between atoms: C15_35  and  N10_36 
ROOT
HETATM    1  N5  UNL     1     -43.935  74.770 100.818  1.00  0.00    -0.248 N 
HETATM    2  C10 UNL     1     -43.309  73.571 100.814  1.00  0.00     0.152 A 
HETATM    3  C11 UNL     1     -42.022  73.714 100.354  1.00  0.00     0.106 A 
HETATM    4  N14 UNL     1     -41.892  75.028 100.083  1.00  0.00    -0.276 N 
ATOM      5  H14 UNL     1     -41.051  75.478  99.722  1.00  0.00     0.185 HD
HETATM    6  N15 UNL     1     -43.039  75.642 100.365  1.00  0.00    -0.015 NA
ENDROOT
BRANCH   1   7
HETATM    7  C9  UNL     1     -45.280  75.056 101.224  1.00  0.00     0.054 A 
HETATM    8  C8  UNL     1     -46.313  74.197 101.010  1.00  0.00     0.032 A 
HETATM    9  C7  UNL     1     -47.579  74.557 101.436  1.00  0.00     0.014 A 
HETATM   10  C6  UNL     1     -47.844  75.757 102.073  1.00  0.00    -0.023 A 
HETATM   11  C18 UNL     1     -46.772  76.614 102.277  1.00  0.00     0.014 A 
HETATM   12  C17 UNL     1     -45.528  76.259 101.858  1.00  0.00     0.032 A 
BRANCH  10  13
HETATM   13  C5  UNL     1     -49.180  76.136 102.520  1.00  0.00     0.008 A 
HETATM   14  C4  UNL     1     -50.364  75.439 102.417  1.00  0.00     0.124 A 
HETATM   15  N4  UNL     1     -51.365  76.154 102.961  1.00  0.00    -0.294 N 
HETATM   16  N16 UNL     1     -50.834  77.300 103.411  1.00  0.00    -0.309 N 
HETATM   17  C19 UNL     1     -49.510  77.315 103.157  1.00  0.00     0.121 A 
ATOM     18  H16 UNL     1     -51.351  78.046 103.874  1.00  0.00     0.186 HD
BRANCH  15  19
HETATM   19  C3  UNL     1     -52.762  75.790 103.060  1.00  0.00     0.251 C 
BRANCH  19  20
HETATM   20  C2  UNL     1     -53.084  75.539 104.477  1.00  0.00     0.243 C 
HETATM   21  N3  UNL     1     -53.180  76.595 105.439  1.00  0.00    -0.300 N 
HETATM   22  C1  UNL     1     -53.490  76.342 106.799  1.00  0.00     0.188 C 
ATOM     23  H3  UNL     1     -53.020  77.556 105.138  1.00  0.00     0.171 HD
HETATM   24  N1  UNL     1     -53.561  77.339 107.615  1.00  0.00    -0.373 N 
HETATM   25  N2  UNL     1     -53.726  75.030 107.289  1.00  0.00    -0.064 NA
ATOM     26  H12 UNL     1     -53.784  77.157 108.594  1.00  0.00     0.158 HD
ATOM     27  H11 UNL     1     -53.391  78.281 107.263  1.00  0.00     0.158 HD
HETATM   28  O1  UNL     1     -53.287  74.374 104.876  1.00  0.00    -0.271 OA
ENDBRANCH  19  20
ENDBRANCH  15  19
ENDBRANCH  10  13
ENDBRANCH   1   7
BRANCH   3  29
HETATM   29  S1  UNL     1     -40.818  72.413 100.172  1.00  0.00    -0.049 SA
BRANCH  29  30
HETATM   30  C12 UNL     1     -39.193  73.131 100.311  1.00  0.00     0.125 A 
HETATM   31  N6  UNL     1     -38.738  74.078  99.472  1.00  0.00    -0.183 N 
HETATM   32  C13 UNL     1     -37.511  74.605  99.593  1.00  0.00     0.678 A 
ATOM     33  H6  UNL     1     -39.345  74.406  98.721  1.00  0.00     0.185 HD
HETATM   34  N8  UNL     1     -36.711  74.171 100.589  1.00  0.00    -0.175 N 
HETATM   35  C14 UNL     1     -37.132  73.227 101.445  1.00  0.00     0.146 A 
ATOM     36  H8  UNL     1     -35.776  74.564 100.691  1.00  0.00     0.186 HD
HETATM   37  N9  UNL     1     -36.382  72.787 102.419  1.00  0.00    -0.383 N 
HETATM   38  C15 UNL     1     -38.392  72.671 101.339  1.00  0.00     0.137 A 
ATOM     39  H92 UNL     1     -35.452  73.197 102.497  1.00  0.00     0.157 HD
ATOM     40  H91 UNL     1     -36.702  72.070 103.070  1.00  0.00     0.157 HD
BRANCH  32  41
HETATM   41  N7  UNL     1     -37.064  75.520  98.787  1.00  0.00    -0.234 N 
ATOM     42  H72 UNL     1     -36.828  75.257  97.830  1.00  0.00     0.174 HD
ATOM     43  H71 UNL     1     -36.940  76.491  99.076  1.00  0.00     0.174 HD
ENDBRANCH  32  41
BRANCH  38  44
HETATM   44  N10 UNL     1     -38.828  71.667 102.256  1.00  0.00    -0.232 N 
HETATM   45  C16 UNL     1     -38.723  70.323 102.128  1.00  0.00     0.223 A 
HETATM   46  N11 UNL     1     -39.257  69.728 103.214  1.00  0.00    -0.277 N 
HETATM   47  N12 UNL     1     -39.676  70.716 103.983  1.00  0.00    -0.005 NA
ATOM     48  H11 UNL     1     -39.324  68.728 103.402  1.00  0.00     0.185 HD
HETATM   49  N13 UNL     1     -39.417  71.882 103.404  1.00  0.00    -0.218 N 
ATOM     50  H13 UNL     1     -39.641  72.799 103.791  1.00  0.00     0.206 HD
ENDBRANCH  38  44
ENDBRANCH  29  30
ENDBRANCH   3  29
TORSDOF 8
ENDMDL
MODEL 4
REMARK VINA RESULT: -10.420341789      1.069      1.590
REMARK  8 active torsions:
REMARK  status: ('A' for Active; 'I' for Inactive)
REMARK       I    between atoms: C1_4  and  N3_6 
REMARK       I    between atoms: N3_6  and  C2_8 
REMARK    1  A    between atoms: C2_8  and  C3_10 
REMARK    2  A    between atoms: C3_10  and  N4_11 
REMARK    3  A    between atoms: C5_13  and  C6_14 
REMARK    4  A    between atoms: C9_17  and  N5_18 
REMARK    5  A    between atoms: C11_20  and  S1_21 
REMARK    6  A    between atoms: S1_21  and  C12_22 
REMARK    7  A    between atoms: C13_25  and  N7_26 
REMARK    8  A    between atoms: C15_35  and  N10_36 
ROOT
HETATM    1  N5  UNL     1     -43.580  74.639 100.747  1.00  0.00    -0.248 N 
HETATM    2  C10 UNL     1     -42.544  75.478 100.522  1.00  0.00     0.152 A 
HETATM    3  C11 UNL     1     -41.431  74.762 100.150  1.00  0.00     0.106 A 
HETATM    4  N14 UNL     1     -41.826  73.474 100.158  1.00  0.00    -0.276 N 
ATOM      5  H14 UNL     1     -41.239  72.672  99.928  1.00  0.00     0.185 HD
HETATM    6  N15 UNL     1     -43.107  73.417 100.516  1.00  0.00    -0.015 NA
ENDROOT
BRANCH   1   7
HETATM    7  C9  UNL     1     -44.913  74.979 101.150  1.00  0.00     0.054 A 
HETATM    8  C8  UNL     1     -45.973  74.146 100.968  1.00  0.00     0.032 A 
HETATM    9  C7  UNL     1     -47.225  74.559 101.388  1.00  0.00     0.014 A 
HETATM   10  C6  UNL     1     -47.450  75.786 101.988  1.00  0.00    -0.023 A 
HETATM   11  C18 UNL     1     -46.351  76.615 102.160  1.00  0.00     0.014 A 
HETATM   12  C17 UNL     1     -45.120  76.209 101.747  1.00  0.00     0.032 A 
BRANCH  10  13
HETATM   13  C5  UNL     1     -48.771  76.219 102.429  1.00  0.00     0.008 A 
HETATM   14  C4  UNL     1     -50.005  75.671 102.156  1.00  0.00     0.124 A 
HETATM   15  N4  UNL     1     -50.968  76.385 102.765  1.00  0.00    -0.294 N 
HETATM   16  N16 UNL     1     -50.364  77.385 103.423  1.00  0.00    -0.309 N 
HETATM   17  C19 UNL     1     -49.031  77.308 103.237  1.00  0.00     0.121 A 
ATOM     18  H16 UNL     1     -50.840  78.094 103.980  1.00  0.00     0.186 HD
BRANCH  15  19
HETATM   19  C3  UNL     1     -52.396  76.152 102.737  1.00  0.00     0.251 C 
BRANCH  19  20
HETATM   20  C2  UNL     1     -52.743  75.223 103.828  1.00  0.00     0.243 C 
HETATM   21  N3  UNL     1     -53.053  73.846 103.591  1.00  0.00    -0.300 N 
HETATM   22  C1  UNL     1     -53.387  72.961 104.648  1.00  0.00     0.188 C 
ATOM     23  H3  UNL     1     -53.034  73.490 102.636  1.00  0.00     0.171 HD
HETATM   24  N1  UNL     1     -53.656  71.732 104.367  1.00  0.00    -0.373 N 
HETATM   25  N2  UNL     1     -53.432  73.385 106.003  1.00  0.00    -0.064 NA
ATOM     26  H12 UNL     1     -53.895  71.095 105.127  1.00  0.00     0.158 HD
ATOM     27  H11 UNL     1     -53.623  71.427 103.394  1.00  0.00     0.158 HD
HETATM   28  O1  UNL     1     -52.775  75.627 105.009  1.00  0.00    -0.271 OA
ENDBRANCH  19  20
ENDBRANCH  15  19
ENDBRANCH  10  13
ENDBRANCH   1   7
BRANCH   3  29
HETATM   29  S1  UNL     1     -39.830  75.435  99.752  1.00  0.00    -0.049 SA
BRANCH  29  30
HETATM   30  C12 UNL     1     -38.592  74.472 100.597  1.00  0.00     0.125 A 
HETATM   31  N6  UNL     1     -38.771  73.976 101.834  1.00  0.00    -0.183 N 
HETATM   32  C13 UNL     1     -37.826  73.254 102.454  1.00  0.00     0.678 A 
ATOM     33  H6  UNL     1     -39.653  74.153 102.315  1.00  0.00     0.185 HD
HETATM   34  N8  UNL     1     -36.662  73.019 101.814  1.00  0.00    -0.175 N 
HETATM   35  C14 UNL     1     -36.449  73.498 100.579  1.00  0.00     0.146 A 
ATOM     36  H8  UNL     1     -35.936  72.471 102.275  1.00  0.00     0.186 HD
HETATM   37  N9  UNL     1     -35.333  73.287  99.933  1.00  0.00    -0.383 N 
HETATM   38  C15 UNL     1     -37.408  74.244  99.922  1.00  0.00     0.137 A 
ATOM     39  H92 UNL     1     -34.625  72.737 100.419  1.00  0.00     0.157 HD
ATOM     40  H91 UNL     1     -35.171  73.651  98.994  1.00  0.00     0.157 HD
BRANCH  32  41
HETATM   41  N7  UNL     1     -37.991  72.771 103.648  1.00  0.00    -0.234 N 
ATOM     42  H72 UNL     1     -38.787  73.090 104.201  1.00  0.00     0.174 HD
ATOM     43  H71 UNL     1     -37.353  72.085 104.054  1.00  0.00     0.174 HD
ENDBRANCH  32  41
BRANCH  38  44
HETATM   44  N10 UNL     1     -37.169  74.749  98.608  1.00  0.00    -0.232 N 
HETATM   45  C16 UNL     1     -37.399  74.132  97.426  1.00  0.00     0.223 A 
HETATM   46  N11 UNL     1     -37.035  74.950  96.417  1.00  0.00    -0.277 N 
HETATM   47  N12 UNL     1     -36.591  76.048  96.999  1.00  0.00    -0.005 NA
ATOM     48  H11 UNL     1     -37.091  74.760  95.416  1.00  0.00     0.185 HD
HETATM   49  N13 UNL     1     -36.672  75.925  98.319  1.00  0.00    -0.218 N 
ATOM     50  H13 UNL     1     -36.392  76.632  98.998  1.00  0.00     0.206 HD
ENDBRANCH  38  44
ENDBRANCH  29  30
ENDBRANCH   3  29
TORSDOF 8
ENDMDL
MODEL 5
REMARK VINA RESULT: -10.353773237      1.652      3.364
REMARK  8 active torsions:
REMARK  status: ('A' for Active; 'I' for Inactive)
REMARK       I    between atoms: C1_4  and  N3_6 
REMARK       I    between atoms: N3_6  and  C2_8 
REMARK    1  A    between atoms: C2_8  and  C3_10 
REMARK    2  A    between atoms: C3_10  and  N4_11 
REMARK    3  A    between atoms: C5_13  and  C6_14 
REMARK    4  A    between atoms: C9_17  and  N5_18 
REMARK    5  A    between atoms: C11_20  and  S1_21 
REMARK    6  A    between atoms: S1_21  and  C12_22 
REMARK    7  A    between atoms: C13_25  and  N7_26 
REMARK    8  A    between atoms: C15_35  and  N10_36 
ROOT
HETATM    1  N5  UNL     1     -44.326  74.797 100.876  1.00  0.00    -0.248 N 
HETATM    2  C10 UNL     1     -43.652  73.627 100.807  1.00  0.00     0.152 A 
HETATM    3  C11 UNL     1     -42.358  73.853 100.401  1.00  0.00     0.106 A 
HETATM    4  N14 UNL     1     -42.274  75.187 100.230  1.00  0.00    -0.276 N 
ATOM      5  H14 UNL     1     -41.442  75.695  99.929  1.00  0.00     0.185 HD
HETATM    6  N15 UNL     1     -43.453  75.734 100.516  1.00  0.00    -0.015 NA
ENDROOT
BRANCH   1   7
HETATM    7  C9  UNL     1     -45.693  75.001 101.257  1.00  0.00     0.054 A 
HETATM    8  C8  UNL     1     -46.123  76.131 101.881  1.00  0.00     0.032 A 
HETATM    9  C7  UNL     1     -47.462  76.240 102.212  1.00  0.00     0.014 A 
HETATM   10  C6  UNL     1     -48.388  75.249 101.937  1.00  0.00    -0.023 A 
HETATM   11  C18 UNL     1     -47.921  74.108 101.301  1.00  0.00     0.014 A 
HETATM   12  C17 UNL     1     -46.604  74.001 100.976  1.00  0.00     0.032 A 
BRANCH  10  13
HETATM   13  C5  UNL     1     -49.799  75.367 102.288  1.00  0.00     0.008 A 
HETATM   14  C4  UNL     1     -50.443  76.363 102.987  1.00  0.00     0.124 A 
HETATM   15  N4  UNL     1     -51.754  76.078 103.088  1.00  0.00    -0.294 N 
HETATM   16  N16 UNL     1     -51.954  74.910 102.460  1.00  0.00    -0.309 N 
HETATM   17  C19 UNL     1     -50.786  74.456 101.965  1.00  0.00     0.121 A 
ATOM     18  H16 UNL     1     -52.853  74.437 102.371  1.00  0.00     0.186 HD
BRANCH  15  19
HETATM   19  C3  UNL     1     -52.783  76.857 103.741  1.00  0.00     0.251 C 
BRANCH  19  20
HETATM   20  C2  UNL     1     -53.157  76.185 104.999  1.00  0.00     0.243 C 
HETATM   21  N3  UNL     1     -53.136  76.859 106.262  1.00  0.00    -0.300 N 
HETATM   22  C1  UNL     1     -53.497  76.203 107.466  1.00  0.00     0.188 C 
ATOM     23  H3  UNL     1     -52.854  77.838 106.298  1.00  0.00     0.171 HD
HETATM   24  N1  UNL     1     -53.457  76.867 108.571  1.00  0.00    -0.373 N 
HETATM   25  N2  UNL     1     -53.902  74.842 107.493  1.00  0.00    -0.064 NA
ATOM     26  H12 UNL     1     -53.717  76.395 109.438  1.00  0.00     0.158 HD
ATOM     27  H11 UNL     1     -53.166  77.844 108.551  1.00  0.00     0.158 HD
HETATM   28  O1  UNL     1     -53.508  74.988 104.989  1.00  0.00    -0.271 OA
ENDBRANCH  19  20
ENDBRANCH  15  19
ENDBRANCH  10  13
ENDBRANCH   1   7
BRANCH   3  29
HETATM   29  S1  UNL     1     -41.097  72.617 100.166  1.00  0.00    -0.049 SA
BRANCH  29  30
HETATM   30  C12 UNL     1     -39.510  73.371 100.465  1.00  0.00     0.125 A 
HETATM   31  N6  UNL     1     -39.080  74.456  99.797  1.00  0.00    -0.183 N 
HETATM   32  C13 UNL     1     -37.882  75.008 100.036  1.00  0.00     0.678 A 
ATOM     33  H6  UNL     1     -39.683  74.871  99.086  1.00  0.00     0.185 HD
HETATM   34  N8  UNL     1     -37.087  74.459 100.976  1.00  0.00    -0.175 N 
HETATM   35  C14 UNL     1     -37.484  73.377 101.663  1.00  0.00     0.146 A 
ATOM     36  H8  UNL     1     -36.173  74.870 101.167  1.00  0.00     0.186 HD
HETATM   37  N9  UNL     1     -36.738  72.821 102.580  1.00  0.00    -0.383 N 
HETATM   38  C15 UNL     1     -38.714  72.791 101.433  1.00  0.00     0.137 A 
ATOM     39  H92 UNL     1     -35.830  73.254 102.750  1.00  0.00     0.157 HD
ATOM     40  H91 UNL     1     -37.040  71.999 103.103  1.00  0.00     0.157 HD
BRANCH  32  41
HETATM   41  N7  UNL     1     -37.458  76.056  99.394  1.00  0.00    -0.234 N 
ATOM     42  H72 UNL     1     -37.225  75.964  98.405  1.00  0.00     0.174 HD
ATOM     43  H71 UNL     1     -37.348  76.966  99.844  1.00  0.00     0.174 HD
ENDBRANCH  32  41
BRANCH  38  44
HETATM   44  N10 UNL     1     -39.125  71.639 102.170  1.00  0.00    -0.232 N 
HETATM   45  C16 UNL     1     -38.953  70.337 101.841  1.00  0.00     0.223 A 
HETATM   46  N11 UNL     1     -39.486  69.558 102.805  1.00  0.00    -0.277 N 
HETATM   47  N12 UNL     1     -39.971  70.396 103.702  1.00  0.00    -0.005 NA
ATOM     48  H11 UNL     1     -39.509  68.539 102.834  1.00  0.00     0.185 HD
HETATM   49  N13 UNL     1     -39.753  71.648 103.318  1.00  0.00    -0.218 N 
ATOM     50  H13 UNL     1     -40.030  72.483 103.833  1.00  0.00     0.206 HD
ENDBRANCH  38  44
ENDBRANCH  29  30
ENDBRANCH   3  29
TORSDOF 8
ENDMDL
