MODEL 1
REMARK VINA RESULT: -5.001101195      0.000      0.000
REMARK  2 active torsions:
REMARK  status: ('A' for Active; 'I' for Inactive)
REMARK    1  A    between atoms: C4_5  and  O2_7 
REMARK    2  A    between atoms: C6_9  and  O3_10 
ROOT
HETATM    1  C1  UNL     1      70.662  45.909  54.319  1.00  0.00     0.042 C 
HETATM    2  C2  UNL     1      71.440  45.804  53.070  1.00  0.00     0.149 C 
HETATM    3  O1  UNL     1      70.763  45.126  52.037  1.00  0.00    -0.381 OA
HETATM    4  C3  UNL     1      71.733  45.202  51.020  1.00  0.00     0.208 C 
HETATM    5  C4  UNL     1      71.998  46.708  50.982  1.00  0.00     0.103 C 
HETATM    6  C5  UNL     1      73.385  46.980  50.483  1.00  0.00     0.051 C 
HETATM    7  C6  UNL     1      71.872  47.089  52.460  1.00  0.00     0.182 C 
ENDROOT
BRANCH   5   8
HETATM    8  O2  UNL     1      71.012  47.311  50.215  1.00  0.00    -0.385 OA
ATOM      9  H2  UNL     1      70.669  46.669  49.605  1.00  0.00     0.210 HD
ENDBRANCH   5   8
BRANCH   7  10
HETATM   10  O3  UNL     1      71.009  48.138  52.617  1.00  0.00    -0.390 OA
ATOM     11  H3  UNL     1      70.945  48.731  51.877  1.00  0.00     0.210 HD
ENDBRANCH   7  10
TORSDOF 2
ENDMDL
MODEL 2
REMARK VINA RESULT: -4.931622657      1.746      2.270
REMARK  2 active torsions:
REMARK  status: ('A' for Active; 'I' for Inactive)
REMARK    1  A    between atoms: C4_5  and  O2_7 
REMARK    2  A    between atoms: C6_9  and  O3_10 
ROOT
HETATM    1  C1  UNL     1      70.915  43.041  54.093  1.00  0.00     0.042 C 
HETATM    2  C2  UNL     1      71.602  44.170  53.436  1.00  0.00     0.149 C 
HETATM    3  O1  UNL     1      72.440  43.781  52.372  1.00  0.00    -0.381 OA
HETATM    4  C3  UNL     1      72.921  45.040  51.969  1.00  0.00     0.208 C 
HETATM    5  C4  UNL     1      71.609  45.796  51.750  1.00  0.00     0.103 C 
HETATM    6  C5  UNL     1      71.818  47.268  51.948  1.00  0.00     0.051 C 
HETATM    7  C6  UNL     1      70.725  45.224  52.861  1.00  0.00     0.182 C 
ENDROOT
BRANCH   5   8
HETATM    8  O2  UNL     1      71.119  45.478  50.493  1.00  0.00    -0.385 OA
ATOM      9  H2  UNL     1      70.188  45.662  50.476  1.00  0.00     0.210 HD
ENDBRANCH   5   8
BRANCH   7  10
HETATM   10  O3  UNL     1      69.532  44.788  52.353  1.00  0.00    -0.390 OA
ATOM     11  H3  UNL     1      69.188  45.292  51.625  1.00  0.00     0.210 HD
ENDBRANCH   7  10
TORSDOF 2
ENDMDL
MODEL 3
REMARK VINA RESULT: -4.923485747      1.235      3.201
REMARK  2 active torsions:
REMARK  status: ('A' for Active; 'I' for Inactive)
REMARK    1  A    between atoms: C4_5  and  O2_7 
REMARK    2  A    between atoms: C6_9  and  O3_10 
ROOT
HETATM    1  C1  UNL     1      72.137  47.976  51.200  1.00  0.00     0.042 C 
HETATM    2  C2  UNL     1      71.876  46.944  52.222  1.00  0.00     0.149 C 
HETATM    3  O1  UNL     1      70.733  47.200  53.006  1.00  0.00    -0.381 OA
HETATM    4  C3  UNL     1      70.757  46.070  53.846  1.00  0.00     0.208 C 
HETATM    5  C4  UNL     1      70.813  44.942  52.814  1.00  0.00     0.103 C 
HETATM    6  C5  UNL     1      71.477  43.733  53.402  1.00  0.00     0.051 C 
HETATM    7  C6  UNL     1      71.687  45.558  51.718  1.00  0.00     0.182 C 
ENDROOT
BRANCH   5   8
HETATM    8  O2  UNL     1      69.526  44.693  52.361  1.00  0.00    -0.385 OA
ATOM      9  H2  UNL     1      69.315  43.784  52.535  1.00  0.00     0.210 HD
ENDBRANCH   5   8
BRANCH   7  10
HETATM   10  O3  UNL     1      71.079  45.451  50.498  1.00  0.00    -0.390 OA
ATOM     11  H3  UNL     1      71.426  46.014  49.816  1.00  0.00     0.210 HD
ENDBRANCH   7  10
TORSDOF 2
ENDMDL
MODEL 4
REMARK VINA RESULT: -4.731794441      1.952      3.580
REMARK  2 active torsions:
REMARK  status: ('A' for Active; 'I' for Inactive)
REMARK    1  A    between atoms: C4_5  and  O2_7 
REMARK    2  A    between atoms: C6_9  and  O3_10 
ROOT
HETATM    1  C1  UNL     1      71.795  46.799  51.110  1.00  0.00     0.042 C 
HETATM    2  C2  UNL     1      71.850  45.573  51.931  1.00  0.00     0.149 C 
HETATM    3  O1  UNL     1      72.661  45.695  53.076  1.00  0.00    -0.381 OA
HETATM    4  C3  UNL     1      72.500  44.409  53.625  1.00  0.00     0.208 C 
HETATM    5  C4  UNL     1      70.975  44.314  53.701  1.00  0.00     0.103 C 
HETATM    6  C5  UNL     1      70.540  42.881  53.631  1.00  0.00     0.051 C 
HETATM    7  C6  UNL     1      70.547  45.069  52.440  1.00  0.00     0.182 C 
ENDROOT
BRANCH   5   8
HETATM    8  O2  UNL     1      70.549  44.960  54.852  1.00  0.00    -0.385 OA
ATOM      9  H2  UNL     1      70.112  45.765  54.602  1.00  0.00     0.210 HD
ENDBRANCH   5   8
BRANCH   7  10
HETATM   10  O3  UNL     1      69.620  46.028  52.742  1.00  0.00    -0.390 OA
ATOM     11  H3  UNL     1      68.733  45.845  52.455  1.00  0.00     0.210 HD
ENDBRANCH   7  10
TORSDOF 2
ENDMDL
MODEL 5
REMARK VINA RESULT: -4.686219759      1.677      3.548
REMARK  2 active torsions:
REMARK  status: ('A' for Active; 'I' for Inactive)
REMARK    1  A    between atoms: C4_5  and  O2_7 
REMARK    2  A    between atoms: C6_9  and  O3_10 
ROOT
HETATM    1  C1  UNL     1      75.328  46.102  50.157  1.00  0.00     0.042 C 
HETATM    2  C2  UNL     1      74.088  46.677  50.715  1.00  0.00     0.149 C 
HETATM    3  O1  UNL     1      73.264  47.288  49.749  1.00  0.00    -0.381 OA
HETATM    4  C3  UNL     1      72.202  47.712  50.570  1.00  0.00     0.208 C 
HETATM    5  C4  UNL     1      71.829  46.401  51.264  1.00  0.00     0.103 C 
HETATM    6  C5  UNL     1      71.207  46.678  52.600  1.00  0.00     0.051 C 
HETATM    7  C6  UNL     1      73.195  45.731  51.434  1.00  0.00     0.182 C 
ENDROOT
BRANCH   5   8
HETATM    8  O2  UNL     1      71.005  45.672  50.419  1.00  0.00    -0.385 OA
ATOM      9  H2  UNL     1      70.807  44.841  50.832  1.00  0.00     0.210 HD
ENDBRANCH   5   8
BRANCH   7  10
HETATM   10  O3  UNL     1      73.172  44.454  50.946  1.00  0.00    -0.390 OA
ATOM     11  H3  UNL     1      72.390  43.952  51.148  1.00  0.00     0.210 HD
ENDBRANCH   7  10
TORSDOF 2
ENDMDL
