MODEL 1
REMARK VINA RESULT: -4.970394106      0.000      0.000
REMARK  2 active torsions:
REMARK  status: ('A' for Active; 'I' for Inactive)
REMARK    1  A    between atoms: C3_4  and  N1_5 
REMARK    2  A    between atoms: C4_9  and  O2_10 
ROOT
HETATM    1  C1  UNL     1      73.690  45.788  51.354  1.00  0.00     0.040 C 
HETATM    2  C2  UNL     1      72.316  45.979  51.851  1.00  0.00     0.126 C 
HETATM    3  O1  UNL     1      71.969  47.329  52.057  1.00  0.00    -0.352 OA
HETATM    4  C3  UNL     1      70.741  47.276  52.704  1.00  0.00     0.348 C 
HETATM    5  C4  UNL     1      70.677  45.990  53.466  1.00  0.00     0.180 C 
HETATM    6  C5  UNL     1      72.121  45.490  53.295  1.00  0.00     0.043 C 
HETATM    7  C6  UNL     1      72.222  44.017  53.420  1.00  0.00     0.015 C 
ENDROOT
BRANCH   4   8
HETATM    8  N1  UNL     1      70.545  48.425  53.583  1.00  0.00    -0.050 N 
ATOM      9  H13 UNL     1      69.574  48.502  53.884  1.00  0.00     0.277 HD
ATOM     10  H12 UNL     1      70.981  48.276  54.493  1.00  0.00     0.277 HD
ATOM     11  H11 UNL     1      70.871  49.291  53.152  1.00  0.00     0.277 HD
ENDBRANCH   4   8
BRANCH   5  12
HETATM   12  O2  UNL     1      69.884  45.104  52.742  1.00  0.00    -0.391 OA
ATOM     13  H2  UNL     1      69.223  44.756  53.329  1.00  0.00     0.210 HD
ENDBRANCH   5  12
TORSDOF 2
ENDMDL
MODEL 2
REMARK VINA RESULT: -4.926103778      2.014      2.455
REMARK  2 active torsions:
REMARK  status: ('A' for Active; 'I' for Inactive)
REMARK    1  A    between atoms: C3_4  and  N1_5 
REMARK    2  A    between atoms: C4_9  and  O2_10 
ROOT
HETATM    1  C1  UNL     1      74.536  45.072  53.920  1.00  0.00     0.040 C 
HETATM    2  C2  UNL     1      73.505  45.403  52.921  1.00  0.00     0.126 C 
HETATM    3  O1  UNL     1      72.323  45.928  53.479  1.00  0.00    -0.352 OA
HETATM    4  C3  UNL     1      71.431  45.977  52.415  1.00  0.00     0.348 C 
HETATM    5  C4  UNL     1      71.815  44.907  51.442  1.00  0.00     0.180 C 
HETATM    6  C5  UNL     1      72.890  44.165  52.251  1.00  0.00     0.043 C 
HETATM    7  C6  UNL     1      73.851  43.447  51.381  1.00  0.00     0.015 C 
ENDROOT
BRANCH   4   8
HETATM    8  N1  UNL     1      70.049  45.819  52.861  1.00  0.00    -0.050 N 
ATOM      9  H13 UNL     1      69.979  45.863  53.877  1.00  0.00     0.277 HD
ATOM     10  H12 UNL     1      69.488  46.638  52.628  1.00  0.00     0.277 HD
ATOM     11  H11 UNL     1      69.630  44.964  52.495  1.00  0.00     0.277 HD
ENDBRANCH   4   8
BRANCH   5  12
HETATM   12  O2  UNL     1      72.490  45.512  50.386  1.00  0.00    -0.391 OA
ATOM     13  H2  UNL     1      72.375  46.452  50.466  1.00  0.00     0.210 HD
ENDBRANCH   5  12
TORSDOF 2
ENDMDL
MODEL 3
REMARK VINA RESULT: -4.854300506      2.500      3.287
REMARK  2 active torsions:
REMARK  status: ('A' for Active; 'I' for Inactive)
REMARK    1  A    between atoms: C3_4  and  N1_5 
REMARK    2  A    between atoms: C4_9  and  O2_10 
ROOT
HETATM    1  C1  UNL     1      72.725  43.874  52.171  1.00  0.00     0.040 C 
HETATM    2  C2  UNL     1      72.523  45.033  51.285  1.00  0.00     0.126 C 
HETATM    3  O1  UNL     1      73.634  45.324  50.469  1.00  0.00    -0.352 OA
HETATM    4  C3  UNL     1      73.320  46.541  49.878  1.00  0.00     0.348 C 
HETATM    5  C4  UNL     1      72.404  47.279  50.802  1.00  0.00     0.180 C 
HETATM    6  C5  UNL     1      72.462  46.370  52.040  1.00  0.00     0.043 C 
HETATM    7  C6  UNL     1      71.251  46.496  52.885  1.00  0.00     0.015 C 
ENDROOT
BRANCH   4   8
HETATM    8  N1  UNL     1      74.518  47.322  49.581  1.00  0.00    -0.050 N 
ATOM      9  H13 UNL     1      74.569  48.160  50.159  1.00  0.00     0.277 HD
ATOM     10  H12 UNL     1      75.360  46.850  49.912  1.00  0.00     0.277 HD
ATOM     11  H11 UNL     1      74.584  47.549  48.589  1.00  0.00     0.277 HD
ENDBRANCH   4   8
BRANCH   5  12
HETATM   12  O2  UNL     1      71.109  47.158  50.306  1.00  0.00    -0.391 OA
ATOM     13  H2  UNL     1      70.509  47.440  50.987  1.00  0.00     0.210 HD
ENDBRANCH   5  12
TORSDOF 2
ENDMDL
MODEL 4
REMARK VINA RESULT: -4.852127615      2.428      3.080
REMARK  2 active torsions:
REMARK  status: ('A' for Active; 'I' for Inactive)
REMARK    1  A    between atoms: C3_4  and  N1_5 
REMARK    2  A    between atoms: C4_9  and  O2_10 
ROOT
HETATM    1  C1  UNL     1      73.752  45.166  53.554  1.00  0.00     0.040 C 
HETATM    2  C2  UNL     1      73.157  45.411  52.228  1.00  0.00     0.126 C 
HETATM    3  O1  UNL     1      74.087  45.835  51.260  1.00  0.00    -0.352 OA
HETATM    4  C3  UNL     1      73.309  46.199  50.168  1.00  0.00     0.348 C 
HETATM    5  C4  UNL     1      71.971  46.632  50.680  1.00  0.00     0.180 C 
HETATM    6  C5  UNL     1      72.242  46.644  52.194  1.00  0.00     0.043 C 
HETATM    7  C6  UNL     1      71.002  46.461  52.986  1.00  0.00     0.015 C 
ENDROOT
BRANCH   4   8
HETATM    8  N1  UNL     1      73.943  47.253  49.380  1.00  0.00    -0.050 N 
ATOM      9  H13 UNL     1      73.377  48.101  49.369  1.00  0.00     0.277 HD
ATOM     10  H12 UNL     1      74.770  47.620  49.849  1.00  0.00     0.277 HD
ATOM     11  H11 UNL     1      74.159  46.938  48.434  1.00  0.00     0.277 HD
ENDBRANCH   4   8
BRANCH   5  12
HETATM   12  O2  UNL     1      71.075  45.589  50.468  1.00  0.00    -0.391 OA
ATOM     13  H2  UNL     1      71.544  44.771  50.586  1.00  0.00     0.210 HD
ENDBRANCH   5  12
TORSDOF 2
ENDMDL
MODEL 5
REMARK VINA RESULT: -4.822196069      2.606      3.334
REMARK  2 active torsions:
REMARK  status: ('A' for Active; 'I' for Inactive)
REMARK    1  A    between atoms: C3_4  and  N1_5 
REMARK    2  A    between atoms: C4_9  and  O2_10 
ROOT
HETATM    1  C1  UNL     1      74.195  44.233  53.427  1.00  0.00     0.040 C 
HETATM    2  C2  UNL     1      72.735  44.383  53.564  1.00  0.00     0.126 C 
HETATM    3  O1  UNL     1      72.098  43.250  54.106  1.00  0.00    -0.352 OA
HETATM    4  C3  UNL     1      70.741  43.514  53.961  1.00  0.00     0.348 C 
HETATM    5  C4  UNL     1      70.571  44.421  52.784  1.00  0.00     0.180 C 
HETATM    6  C5  UNL     1      72.000  44.413  52.215  1.00  0.00     0.043 C 
HETATM    7  C6  UNL     1      72.296  45.633  51.428  1.00  0.00     0.015 C 
ENDROOT
BRANCH   4   8
HETATM    8  N1  UNL     1      69.966  42.286  53.804  1.00  0.00    -0.050 N 
ATOM      9  H13 UNL     1      70.555  41.511  53.501  1.00  0.00     0.277 HD
ATOM     10  H12 UNL     1      69.668  41.917  54.706  1.00  0.00     0.277 HD
ATOM     11  H11 UNL     1      69.174  42.419  53.175  1.00  0.00     0.277 HD
ENDBRANCH   4   8
BRANCH   5  12
HETATM   12  O2  UNL     1      70.365  45.710  53.264  1.00  0.00    -0.391 OA
ATOM     13  H2  UNL     1      70.993  45.866  53.961  1.00  0.00     0.210 HD
ENDBRANCH   5  12
TORSDOF 2
ENDMDL
