MODEL 1
REMARK VINA RESULT: -4.771222263      0.000      0.000
REMARK  2 active torsions:
REMARK  status: ('A' for Active; 'I' for Inactive)
REMARK    1  A    between atoms: C3_4  and  O1_6 
REMARK    2  A    between atoms: C6_9  and  O2_10 
ROOT
HETATM    1  C1  UNL     1      72.061  46.428  50.584  1.00  0.00     0.313 C 
HETATM    2  N1  UNL     1      71.479  45.575  51.564  1.00  0.00     0.115 N 
HETATM    3  C2  UNL     1      72.243  44.422  51.906  1.00  0.00     0.312 C 
HETATM    4  C3  UNL     1      72.007  44.158  53.366  1.00  0.00     0.085 C 
HETATM    5  C4  UNL     1      70.819  43.267  53.608  1.00  0.00     0.047 C 
HETATM    6  C5  UNL     1      71.694  45.519  53.926  1.00  0.00     0.103 C 
HETATM    7  C6  UNL     1      71.038  46.222  52.756  1.00  0.00     0.359 C 
ENDROOT
BRANCH   4   8
HETATM    8  O1  UNL     1      73.179  43.664  53.917  1.00  0.00    -0.388 OA
ATOM      9  H1  UNL     1      73.167  43.836  54.851  1.00  0.00     0.210 HD
ENDBRANCH   4   8
BRANCH   7  10
HETATM   10  O2  UNL     1      69.657  46.003  52.874  1.00  0.00    -0.368 OA
ATOM     11  H2  UNL     1      69.232  46.436  52.143  1.00  0.00     0.212 HD
ENDBRANCH   7  10
TORSDOF 2
ENDMDL
MODEL 2
REMARK VINA RESULT: -4.602372789      1.268      2.882
REMARK  2 active torsions:
REMARK  status: ('A' for Active; 'I' for Inactive)
REMARK    1  A    between atoms: C3_4  and  O1_6 
REMARK    2  A    between atoms: C6_9  and  O2_10 
ROOT
HETATM    1  C1  UNL     1      73.194  46.259  50.179  1.00  0.00     0.313 C 
HETATM    2  N1  UNL     1      72.710  46.083  51.507  1.00  0.00     0.115 N 
HETATM    3  C2  UNL     1      71.801  47.080  51.965  1.00  0.00     0.312 C 
HETATM    4  C3  UNL     1      70.815  46.391  52.866  1.00  0.00     0.085 C 
HETATM    5  C4  UNL     1      71.271  46.351  54.299  1.00  0.00     0.047 C 
HETATM    6  C5  UNL     1      70.784  44.980  52.344  1.00  0.00     0.103 C 
HETATM    7  C6  UNL     1      72.185  44.791  51.801  1.00  0.00     0.359 C 
ENDROOT
BRANCH   4   8
HETATM    8  O1  UNL     1      69.578  46.995  52.704  1.00  0.00    -0.388 OA
ATOM      9  H1  UNL     1      69.639  47.891  53.015  1.00  0.00     0.210 HD
ENDBRANCH   4   8
BRANCH   7  10
HETATM   10  O2  UNL     1      72.952  44.246  52.843  1.00  0.00    -0.368 OA
ATOM     11  H2  UNL     1      73.847  44.542  52.728  1.00  0.00     0.212 HD
ENDBRANCH   7  10
TORSDOF 2
ENDMDL
MODEL 3
REMARK VINA RESULT: -4.577386288      1.443      2.912
REMARK  2 active torsions:
REMARK  status: ('A' for Active; 'I' for Inactive)
REMARK    1  A    between atoms: C3_4  and  O1_6 
REMARK    2  A    between atoms: C6_9  and  O2_10 
ROOT
HETATM    1  C1  UNL     1      73.871  43.922  51.581  1.00  0.00     0.313 C 
HETATM    2  N1  UNL     1      72.992  44.457  52.565  1.00  0.00     0.115 N 
HETATM    3  C2  UNL     1      72.646  45.829  52.397  1.00  0.00     0.312 C 
HETATM    4  C3  UNL     1      71.228  45.982  52.870  1.00  0.00     0.085 C 
HETATM    5  C4  UNL     1      71.138  46.286  54.340  1.00  0.00     0.047 C 
HETATM    6  C5  UNL     1      70.627  44.622  52.635  1.00  0.00     0.103 C 
HETATM    7  C6  UNL     1      71.812  43.696  52.810  1.00  0.00     0.359 C 
ENDROOT
BRANCH   4   8
HETATM    8  O1  UNL     1      70.602  46.932  52.077  1.00  0.00    -0.388 OA
ATOM      9  H1  UNL     1      70.020  46.484  51.475  1.00  0.00     0.210 HD
ENDBRANCH   4   8
BRANCH   7  10
HETATM   10  O2  UNL     1      71.827  43.309  54.159  1.00  0.00    -0.368 OA
ATOM     11  H2  UNL     1      71.741  44.094  54.686  1.00  0.00     0.212 HD
ENDBRANCH   7  10
TORSDOF 2
ENDMDL
MODEL 4
REMARK VINA RESULT: -4.527084994      2.013      3.044
REMARK  2 active torsions:
REMARK  status: ('A' for Active; 'I' for Inactive)
REMARK    1  A    between atoms: C3_4  and  O1_6 
REMARK    2  A    between atoms: C6_9  and  O2_10 
ROOT
HETATM    1  C1  UNL     1      71.033  45.981  54.180  1.00  0.00     0.313 C 
HETATM    2  N1  UNL     1      71.927  46.264  53.109  1.00  0.00     0.115 N 
HETATM    3  C2  UNL     1      72.873  45.240  52.812  1.00  0.00     0.312 C 
HETATM    4  C3  UNL     1      73.090  45.264  51.325  1.00  0.00     0.085 C 
HETATM    5  C4  UNL     1      74.193  46.203  50.917  1.00  0.00     0.047 C 
HETATM    6  C5  UNL     1      71.793  45.802  50.786  1.00  0.00     0.103 C 
HETATM    7  C6  UNL     1      71.315  46.709  51.901  1.00  0.00     0.359 C 
ENDROOT
BRANCH   4   8
HETATM    8  O1  UNL     1      73.294  43.963  50.891  1.00  0.00    -0.388 OA
ATOM      9  H1  UNL     1      73.594  43.991  49.991  1.00  0.00     0.210 HD
ENDBRANCH   4   8
BRANCH   7  10
HETATM   10  O2  UNL     1      71.809  47.992  51.619  1.00  0.00    -0.368 OA
ATOM     11  H2  UNL     1      71.174  48.431  51.066  1.00  0.00     0.212 HD
ENDBRANCH   7  10
TORSDOF 2
ENDMDL
MODEL 5
REMARK VINA RESULT: -4.526978158      1.386      3.417
REMARK  2 active torsions:
REMARK  status: ('A' for Active; 'I' for Inactive)
REMARK    1  A    between atoms: C3_4  and  O1_6 
REMARK    2  A    between atoms: C6_9  and  O2_10 
ROOT
HETATM    1  C1  UNL     1      70.674  42.929  54.304  1.00  0.00     0.313 C 
HETATM    2  N1  UNL     1      71.292  43.626  53.228  1.00  0.00     0.115 N 
HETATM    3  C2  UNL     1      70.473  44.591  52.572  1.00  0.00     0.312 C 
HETATM    4  C3  UNL     1      71.376  45.717  52.154  1.00  0.00     0.085 C 
HETATM    5  C4  UNL     1      71.972  45.504  50.789  1.00  0.00     0.047 C 
HETATM    6  C5  UNL     1      72.491  45.672  53.164  1.00  0.00     0.103 C 
HETATM    7  C6  UNL     1      72.563  44.202  53.520  1.00  0.00     0.359 C 
ENDROOT
BRANCH   4   8
HETATM    8  O1  UNL     1      70.672  46.906  52.261  1.00  0.00    -0.388 OA
ATOM      9  H1  UNL     1      70.144  46.872  53.050  1.00  0.00     0.210 HD
ENDBRANCH   4   8
BRANCH   7  10
HETATM   10  O2  UNL     1      73.503  43.621  52.655  1.00  0.00    -0.368 OA
ATOM     11  H2  UNL     1      74.363  43.929  52.915  1.00  0.00     0.212 HD
ENDBRANCH   7  10
TORSDOF 2
ENDMDL
