MODEL 1
REMARK VINA RESULT: -4.888648874      0.000      0.000
REMARK  2 active torsions:
REMARK  status: ('A' for Active; 'I' for Inactive)
REMARK    1  A    between atoms: N1_4  and  O1_5 
REMARK    2  A    between atoms: C6_9  and  O2_10 
ROOT
HETATM    1  C1  UNL     1      72.887  43.808  51.674  1.00  0.00     0.014 C 
HETATM    2  C2  UNL     1      72.011  45.038  51.626  1.00  0.00     0.025 C 
HETATM    3  C3  UNL     1      72.860  46.264  51.480  1.00  0.00     0.127 C 
HETATM    4  N1  UNL     1      72.135  47.483  51.561  1.00  0.00    -0.199 NA
HETATM    5  C4  UNL     1      71.116  47.546  52.539  1.00  0.00     0.123 C 
HETATM    6  C5  UNL     1      71.064  46.414  53.502  1.00  0.00     0.049 C 
HETATM    7  C6  UNL     1      71.177  45.059  52.870  1.00  0.00     0.124 C 
ENDROOT
BRANCH   4   8
HETATM    8  O1  UNL     1      71.666  47.815  50.320  1.00  0.00    -0.313 OA
ATOM      9  H1  UNL     1      70.720  47.731  50.308  1.00  0.00     0.237 HD
ENDBRANCH   4   8
BRANCH   7  10
HETATM   10  O2  UNL     1      69.918  44.540  52.536  1.00  0.00    -0.395 OA
ATOM     11  H2  UNL     1      69.551  44.159  53.325  1.00  0.00     0.210 HD
ENDBRANCH   7  10
TORSDOF 2
ENDMDL
MODEL 2
REMARK VINA RESULT: -4.832613799      2.035      3.082
REMARK  2 active torsions:
REMARK  status: ('A' for Active; 'I' for Inactive)
REMARK    1  A    between atoms: N1_4  and  O1_5 
REMARK    2  A    between atoms: C6_9  and  O2_10 
ROOT
HETATM    1  C1  UNL     1      73.082  46.331  50.222  1.00  0.00     0.014 C 
HETATM    2  C2  UNL     1      72.333  45.298  51.030  1.00  0.00     0.025 C 
HETATM    3  C3  UNL     1      71.442  45.977  52.026  1.00  0.00     0.127 C 
HETATM    4  N1  UNL     1      70.795  45.088  52.925  1.00  0.00    -0.199 NA
HETATM    5  C4  UNL     1      71.574  44.015  53.417  1.00  0.00     0.123 C 
HETATM    6  C5  UNL     1      73.026  44.064  53.104  1.00  0.00     0.049 C 
HETATM    7  C6  UNL     1      73.339  44.398  51.677  1.00  0.00     0.124 C 
ENDROOT
BRANCH   4   8
HETATM    8  O1  UNL     1      69.626  44.650  52.368  1.00  0.00    -0.313 OA
ATOM      9  H1  UNL     1      69.003  44.452  53.057  1.00  0.00     0.237 HD
ENDBRANCH   4   8
BRANCH   7  10
HETATM   10  O2  UNL     1      73.436  43.244  50.886  1.00  0.00    -0.395 OA
ATOM     11  H2  UNL     1      74.204  42.766  51.176  1.00  0.00     0.210 HD
ENDBRANCH   7  10
TORSDOF 2
ENDMDL
MODEL 3
REMARK VINA RESULT: -4.792709679      1.980      3.363
REMARK  2 active torsions:
REMARK  status: ('A' for Active; 'I' for Inactive)
REMARK    1  A    between atoms: N1_4  and  O1_5 
REMARK    2  A    between atoms: C6_9  and  O2_10 
ROOT
HETATM    1  C1  UNL     1      71.230  46.842  53.276  1.00  0.00     0.014 C 
HETATM    2  C2  UNL     1      71.807  46.202  52.035  1.00  0.00     0.025 C 
HETATM    3  C3  UNL     1      73.083  45.491  52.375  1.00  0.00     0.127 C 
HETATM    4  N1  UNL     1      73.772  44.970  51.248  1.00  0.00    -0.199 NA
HETATM    5  C4  UNL     1      73.806  45.789  50.097  1.00  0.00     0.123 C 
HETATM    6  C5  UNL     1      73.300  47.177  50.267  1.00  0.00     0.049 C 
HETATM    7  C6  UNL     1      72.001  47.275  51.009  1.00  0.00     0.124 C 
ENDROOT
BRANCH   4   8
HETATM    8  O1  UNL     1      73.299  43.719  50.965  1.00  0.00    -0.313 OA
ATOM      9  H1  UNL     1      72.954  43.704  50.080  1.00  0.00     0.237 HD
ENDBRANCH   4   8
BRANCH   7  10
HETATM   10  O2  UNL     1      70.904  47.221  50.137  1.00  0.00    -0.395 OA
ATOM     11  H2  UNL     1      70.749  46.306  49.935  1.00  0.00     0.210 HD
ENDBRANCH   7  10
TORSDOF 2
ENDMDL
MODEL 4
REMARK VINA RESULT: -4.790423293      1.756      3.024
REMARK  2 active torsions:
REMARK  status: ('A' for Active; 'I' for Inactive)
REMARK    1  A    between atoms: N1_4  and  O1_5 
REMARK    2  A    between atoms: C6_9  and  O2_10 
ROOT
HETATM    1  C1  UNL     1      72.560  48.116  50.497  1.00  0.00     0.014 C 
HETATM    2  C2  UNL     1      72.005  46.923  51.241  1.00  0.00     0.025 C 
HETATM    3  C3  UNL     1      71.335  47.376  52.503  1.00  0.00     0.127 C 
HETATM    4  N1  UNL     1      70.898  46.314  53.339  1.00  0.00    -0.199 NA
HETATM    5  C4  UNL     1      71.772  45.209  53.461  1.00  0.00     0.123 C 
HETATM    6  C5  UNL     1      73.127  45.380  52.873  1.00  0.00     0.049 C 
HETATM    7  C6  UNL     1      73.133  45.972  51.496  1.00  0.00     0.124 C 
ENDROOT
BRANCH   4   8
HETATM    8  O1  UNL     1      69.643  45.926  52.962  1.00  0.00    -0.313 OA
ATOM      9  H1  UNL     1      69.015  46.207  53.618  1.00  0.00     0.237 HD
ENDBRANCH   4   8
BRANCH   7  10
HETATM   10  O2  UNL     1      73.073  44.979  50.507  1.00  0.00    -0.395 OA
ATOM     11  H2  UNL     1      72.662  44.217  50.898  1.00  0.00     0.210 HD
ENDBRANCH   7  10
TORSDOF 2
ENDMDL
MODEL 5
REMARK VINA RESULT: -4.746925281      1.371      3.551
REMARK  2 active torsions:
REMARK  status: ('A' for Active; 'I' for Inactive)
REMARK    1  A    between atoms: N1_4  and  O1_5 
REMARK    2  A    between atoms: C6_9  and  O2_10 
ROOT
HETATM    1  C1  UNL     1      70.975  48.292  53.330  1.00  0.00     0.014 C 
HETATM    2  C2  UNL     1      70.974  46.928  52.681  1.00  0.00     0.025 C 
HETATM    3  C3  UNL     1      71.319  45.880  53.697  1.00  0.00     0.127 C 
HETATM    4  N1  UNL     1      71.475  44.577  53.153  1.00  0.00    -0.199 NA
HETATM    5  C4  UNL     1      72.150  44.488  51.914  1.00  0.00     0.123 C 
HETATM    6  C5  UNL     1      72.797  45.737  51.432  1.00  0.00     0.049 C 
HETATM    7  C6  UNL     1      71.936  46.959  51.535  1.00  0.00     0.124 C 
ENDROOT
BRANCH   4   8
HETATM    8  O1  UNL     1      70.258  43.954  53.112  1.00  0.00    -0.313 OA
ATOM      9  H1  UNL     1      70.175  43.477  52.295  1.00  0.00     0.237 HD
ENDBRANCH   4   8
BRANCH   7  10
HETATM   10  O2  UNL     1      71.187  47.162  50.367  1.00  0.00    -0.395 OA
ATOM     11  H2  UNL     1      70.625  46.404  50.257  1.00  0.00     0.210 HD
ENDBRANCH   7  10
TORSDOF 2
ENDMDL
