MODEL 1
REMARK VINA RESULT: -8.619757108      0.000      0.000
REMARK  9 active torsions:
REMARK  status: ('A' for Active; 'I' for Inactive)
REMARK       I    between atoms: C1_2  and  N1_3 
REMARK       I    between atoms: C1_2  and  N4_20 
REMARK    1  A    between atoms: N1_3  and  N2_5 
REMARK       I    between atoms: N2_5  and  C2_7 
REMARK    2  A    between atoms: C2_7  and  C3_9 
REMARK       I    between atoms: C3_9  and  N3_11 
REMARK    3  A    between atoms: C4_12  and  O4_13 
REMARK    4  A    between atoms: C7_17  and  O5_18 
REMARK    5  A    between atoms: N4_20  and  S1_22 
REMARK    6  A    between atoms: S1_22  and  N5_25 
REMARK    7  A    between atoms: C9_27  and  C10_28 
REMARK    8  A    between atoms: C10_28  and  N6_29 
REMARK    9  A    between atoms: N6_29  and  C11_31 
ROOT
HETATM    1  O1  UNL     1      86.769  34.068  57.311  1.00  0.00    -0.245 OA
HETATM    2  C1  UNL     1      86.200  34.491  58.300  1.00  0.00     0.349 C 
HETATM    3  N1  UNL     1      86.730  34.663  59.572  1.00  0.00    -0.248 N 
ATOM      4  H1  UNL     1      86.076  35.042  60.256  1.00  0.00     0.192 HD
HETATM    5  N4  UNL     1      84.802  34.841  58.075  1.00  0.00    -0.216 N 
ATOM      6  H4  UNL     1      84.257  35.202  58.858  1.00  0.00     0.185 HD
ENDROOT
BRANCH   5   7
HETATM    7  S1  UNL     1      84.037  34.670  56.546  1.00  0.00     0.347 S 
HETATM    8  O6  UNL     1      82.577  35.095  56.757  1.00  0.00    -0.180 OA
HETATM    9  O7  UNL     1      84.044  33.284  56.015  1.00  0.00    -0.180 OA
BRANCH   7  10
HETATM   10  N5  UNL     1      84.727  35.821  55.423  1.00  0.00    -0.159 N 
HETATM   11  C8  UNL     1      84.248  36.129  54.207  1.00  0.00     0.160 A 
HETATM   12  C9  UNL     1      85.082  37.059  53.580  1.00  0.00     0.063 A 
HETATM   13  N8  UNL     1      86.055  37.275  54.477  1.00  0.00    -0.286 N 
HETATM   14  N9  UNL     1      85.827  36.529  55.573  1.00  0.00    -0.225 N 
ATOM     15  H8  UNL     1      86.845  37.907  54.349  1.00  0.00     0.188 HD
ATOM     16  H9  UNL     1      86.421  36.513  56.402  1.00  0.00     0.209 HD
BRANCH  12  17
HETATM   17  C10 UNL     1      84.894  37.608  52.217  1.00  0.00     0.179 C 
BRANCH  17  18
HETATM   18  N6  UNL     1      84.446  36.527  51.367  1.00  0.00    -0.383 N 
ATOM     19  H6  UNL     1      84.893  35.611  51.419  1.00  0.00     0.160 HD
BRANCH  18  20
HETATM   20  C11 UNL     1      83.383  36.755  50.467  1.00  0.00     0.045 A 
HETATM   21  C12 UNL     1      83.490  37.165  49.161  1.00  0.00     0.047 A 
HETATM   22  C13 UNL     1      82.216  37.297  48.633  1.00  0.00     0.090 A 
HETATM   23  N7  UNL     1      81.366  36.972  49.606  1.00  0.00    -0.373 N 
HETATM   24  C14 UNL     1      82.031  36.638  50.733  1.00  0.00     0.116 A 
ATOM     25  H7  UNL     1      80.350  36.974  49.513  1.00  0.00     0.164 HD
ENDBRANCH  18  20
ENDBRANCH  17  18
ENDBRANCH  12  17
ENDBRANCH   7  10
ENDBRANCH   5   7
BRANCH   3  26
HETATM   26  N2  UNL     1      87.960  34.415  60.053  1.00  0.00    -0.258 N 
HETATM   27  C2  UNL     1      89.141  35.202  60.107  1.00  0.00     0.328 C 
HETATM   28  O2  UNL     1      89.140  36.357  59.660  1.00  0.00    -0.261 OA
ATOM     29  H2  UNL     1      88.065  33.485  60.457  1.00  0.00     0.190 HD
BRANCH  27  30
HETATM   30  C3  UNL     1      90.352  34.643  60.684  1.00  0.00     0.325 C 
HETATM   31  O3  UNL     1      90.934  33.801  59.890  1.00  0.00    -0.261 OA
HETATM   32  N3  UNL     1      90.958  34.885  61.921  1.00  0.00    -0.233 N 
HETATM   33  C4  UNL     1      90.605  35.611  62.985  1.00  0.00     0.151 A 
HETATM   34  C7  UNL     1      92.205  34.370  62.189  1.00  0.00     0.151 A 
HETATM   35  C5  UNL     1      91.622  35.564  63.935  1.00  0.00     0.061 A 
HETATM   36  C6  UNL     1      92.613  34.789  63.429  1.00  0.00     0.061 A 
BRANCH  33  37
HETATM   37  O4  UNL     1      89.431  36.314  63.160  1.00  0.00    -0.346 OA
ATOM     38  H4  UNL     1      88.821  36.239  63.883  1.00  0.00     0.219 HD
ENDBRANCH  33  37
BRANCH  34  39
HETATM   39  O5  UNL     1      92.969  33.555  61.362  1.00  0.00    -0.346 OA
ATOM     40  H5  UNL     1      93.493  33.827  60.618  1.00  0.00     0.219 HD
ENDBRANCH  34  39
ENDBRANCH  27  30
ENDBRANCH   3  26
TORSDOF 9
ENDMDL
MODEL 2
REMARK VINA RESULT: -8.441284795      2.848      3.719
REMARK  9 active torsions:
REMARK  status: ('A' for Active; 'I' for Inactive)
REMARK       I    between atoms: C1_2  and  N1_3 
REMARK       I    between atoms: C1_2  and  N4_20 
REMARK    1  A    between atoms: N1_3  and  N2_5 
REMARK       I    between atoms: N2_5  and  C2_7 
REMARK    2  A    between atoms: C2_7  and  C3_9 
REMARK       I    between atoms: C3_9  and  N3_11 
REMARK    3  A    between atoms: C4_12  and  O4_13 
REMARK    4  A    between atoms: C7_17  and  O5_18 
REMARK    5  A    between atoms: N4_20  and  S1_22 
REMARK    6  A    between atoms: S1_22  and  N5_25 
REMARK    7  A    between atoms: C9_27  and  C10_28 
REMARK    8  A    between atoms: C10_28  and  N6_29 
REMARK    9  A    between atoms: N6_29  and  C11_31 
ROOT
HETATM    1  O1  UNL     1      87.694  34.978  57.623  1.00  0.00    -0.245 OA
HETATM    2  C1  UNL     1      86.837  34.593  58.397  1.00  0.00     0.349 C 
HETATM    3  N1  UNL     1      86.920  34.522  59.782  1.00  0.00    -0.248 N 
ATOM      4  H1  UNL     1      86.077  34.175  60.239  1.00  0.00     0.192 HD
HETATM    5  N4  UNL     1      85.603  34.164  57.750  1.00  0.00    -0.216 N 
ATOM      6  H4  UNL     1      84.837  33.827  58.333  1.00  0.00     0.185 HD
ENDROOT
BRANCH   5   7
HETATM    7  S1  UNL     1      85.385  34.204  56.046  1.00  0.00     0.347 S 
HETATM    8  O6  UNL     1      86.208  33.035  55.489  1.00  0.00    -0.180 OA
HETATM    9  O7  UNL     1      85.860  35.455  55.403  1.00  0.00    -0.180 OA
BRANCH   7  10
HETATM   10  N5  UNL     1      83.713  33.851  55.669  1.00  0.00    -0.159 N 
HETATM   11  C8  UNL     1      82.653  34.624  55.956  1.00  0.00     0.160 A 
HETATM   12  C9  UNL     1      81.473  34.001  55.541  1.00  0.00     0.063 A 
HETATM   13  N8  UNL     1      81.891  32.845  55.005  1.00  0.00    -0.286 N 
HETATM   14  N9  UNL     1      83.232  32.771  55.089  1.00  0.00    -0.225 N 
ATOM     15  H8  UNL     1      81.286  32.132  54.598  1.00  0.00     0.188 HD
ATOM     16  H9  UNL     1      83.795  31.991  54.752  1.00  0.00     0.209 HD
BRANCH  12  17
HETATM   17  C10 UNL     1      80.104  34.537  55.718  1.00  0.00     0.179 C 
BRANCH  17  18
HETATM   18  N6  UNL     1      79.331  34.156  54.557  1.00  0.00    -0.383 N 
ATOM     19  H6  UNL     1      79.000  33.197  54.449  1.00  0.00     0.160 HD
BRANCH  18  20
HETATM   20  C11 UNL     1      79.041  35.127  53.574  1.00  0.00     0.045 A 
HETATM   21  C12 UNL     1      77.891  35.221  52.830  1.00  0.00     0.047 A 
HETATM   22  C13 UNL     1      78.013  36.293  51.961  1.00  0.00     0.090 A 
HETATM   23  N7  UNL     1      79.212  36.828  52.183  1.00  0.00    -0.373 N 
HETATM   24  C14 UNL     1      79.867  36.152  53.151  1.00  0.00     0.116 A 
ATOM     25  H7  UNL     1      79.586  37.639  51.689  1.00  0.00     0.164 HD
ENDBRANCH  18  20
ENDBRANCH  17  18
ENDBRANCH  12  17
ENDBRANCH   7  10
ENDBRANCH   5   7
BRANCH   3  26
HETATM   26  N2  UNL     1      87.922  34.834  60.620  1.00  0.00    -0.258 N 
HETATM   27  C2  UNL     1      88.610  36.050  60.876  1.00  0.00     0.328 C 
HETATM   28  O2  UNL     1      88.294  37.083  60.270  1.00  0.00    -0.261 OA
ATOM     29  H2  UNL     1      88.252  34.047  61.178  1.00  0.00     0.190 HD
BRANCH  27  30
HETATM   30  C3  UNL     1      89.688  36.075  61.850  1.00  0.00     0.325 C 
HETATM   31  O3  UNL     1      89.504  36.972  62.767  1.00  0.00    -0.261 OA
HETATM   32  N3  UNL     1      90.845  35.293  61.937  1.00  0.00    -0.233 N 
HETATM   33  C4  UNL     1      91.376  34.357  61.147  1.00  0.00     0.151 A 
HETATM   34  C7  UNL     1      91.647  35.374  63.052  1.00  0.00     0.151 A 
HETATM   35  C5  UNL     1      92.519  33.837  61.751  1.00  0.00     0.061 A 
HETATM   36  C6  UNL     1      92.677  34.477  62.935  1.00  0.00     0.061 A 
BRANCH  33  37
HETATM   37  O4  UNL     1      90.905  33.937  59.921  1.00  0.00    -0.346 OA
ATOM     38  H4  UNL     1      91.319  34.060  59.076  1.00  0.00     0.219 HD
ENDBRANCH  33  37
BRANCH  34  39
HETATM   39  O5  UNL     1      91.477  36.214  64.146  1.00  0.00    -0.346 OA
ATOM     40  H5  UNL     1      91.520  37.163  64.150  1.00  0.00     0.219 HD
ENDBRANCH  34  39
ENDBRANCH  27  30
ENDBRANCH   3  26
TORSDOF 9
ENDMDL
MODEL 3
REMARK VINA RESULT: -8.284580855      1.033      1.839
REMARK  9 active torsions:
REMARK  status: ('A' for Active; 'I' for Inactive)
REMARK       I    between atoms: C1_2  and  N1_3 
REMARK       I    between atoms: C1_2  and  N4_20 
REMARK    1  A    between atoms: N1_3  and  N2_5 
REMARK       I    between atoms: N2_5  and  C2_7 
REMARK    2  A    between atoms: C2_7  and  C3_9 
REMARK       I    between atoms: C3_9  and  N3_11 
REMARK    3  A    between atoms: C4_12  and  O4_13 
REMARK    4  A    between atoms: C7_17  and  O5_18 
REMARK    5  A    between atoms: N4_20  and  S1_22 
REMARK    6  A    between atoms: S1_22  and  N5_25 
REMARK    7  A    between atoms: C9_27  and  C10_28 
REMARK    8  A    between atoms: C10_28  and  N6_29 
REMARK    9  A    between atoms: N6_29  and  C11_31 
ROOT
HETATM    1  O1  UNL     1      87.514  34.603  57.558  1.00  0.00    -0.245 OA
HETATM    2  C1  UNL     1      86.578  34.508  58.330  1.00  0.00     0.349 C 
HETATM    3  N1  UNL     1      86.592  34.708  59.705  1.00  0.00    -0.248 N 
ATOM      4  H1  UNL     1      85.688  34.584  60.160  1.00  0.00     0.192 HD
HETATM    5  N4  UNL     1      85.320  34.135  57.693  1.00  0.00    -0.216 N 
ATOM      6  H4  UNL     1      84.489  34.035  58.276  1.00  0.00     0.185 HD
ENDROOT
BRANCH   5   7
HETATM    7  S1  UNL     1      85.182  33.860  56.003  1.00  0.00     0.347 S 
HETATM    8  O6  UNL     1      83.821  33.180  55.798  1.00  0.00    -0.180 OA
HETATM    9  O7  UNL     1      86.232  32.973  55.444  1.00  0.00    -0.180 OA
BRANCH   7  10
HETATM   10  N5  UNL     1      85.092  35.398  55.173  1.00  0.00    -0.159 N 
HETATM   11  C8  UNL     1      84.158  35.766  54.281  1.00  0.00     0.160 A 
HETATM   12  C9  UNL     1      84.431  37.048  53.796  1.00  0.00     0.063 A 
HETATM   13  N8  UNL     1      85.551  37.405  54.441  1.00  0.00    -0.286 N 
HETATM   14  N9  UNL     1      85.933  36.408  55.261  1.00  0.00    -0.225 N 
ATOM     15  H8  UNL     1      86.039  38.293  54.328  1.00  0.00     0.188 HD
ATOM     16  H9  UNL     1      86.755  36.430  55.863  1.00  0.00     0.209 HD
BRANCH  12  17
HETATM   17  C10 UNL     1      83.640  37.773  52.775  1.00  0.00     0.179 C 
BRANCH  17  18
HETATM   18  N6  UNL     1      82.803  36.804  52.102  1.00  0.00    -0.383 N 
ATOM     19  H6  UNL     1      82.432  36.001  52.610  1.00  0.00     0.160 HD
BRANCH  18  20
HETATM   20  C11 UNL     1      82.506  36.985  50.734  1.00  0.00     0.045 A 
HETATM   21  C12 UNL     1      83.412  37.115  49.710  1.00  0.00     0.047 A 
HETATM   22  C13 UNL     1      82.717  37.302  48.526  1.00  0.00     0.090 A 
HETATM   23  N7  UNL     1      81.422  37.284  48.838  1.00  0.00    -0.373 N 
HETATM   24  C14 UNL     1      81.251  37.095  50.164  1.00  0.00     0.116 A 
ATOM     25  H7  UNL     1      80.662  37.396  48.166  1.00  0.00     0.164 HD
ENDBRANCH  18  20
ENDBRANCH  17  18
ENDBRANCH  12  17
ENDBRANCH   7  10
ENDBRANCH   5   7
BRANCH   3  26
HETATM   26  N2  UNL     1      87.595  35.039  60.535  1.00  0.00    -0.258 N 
HETATM   27  C2  UNL     1      88.600  36.041  60.468  1.00  0.00     0.328 C 
HETATM   28  O2  UNL     1      88.641  36.818  59.504  1.00  0.00    -0.261 OA
ATOM     29  H2  UNL     1      87.644  34.461  61.373  1.00  0.00     0.190 HD
BRANCH  27  30
HETATM   30  C3  UNL     1      89.582  36.147  61.533  1.00  0.00     0.325 C 
HETATM   31  O3  UNL     1      89.319  37.115  62.352  1.00  0.00    -0.261 OA
HETATM   32  N3  UNL     1      90.719  35.375  61.794  1.00  0.00    -0.233 N 
HETATM   33  C4  UNL     1      91.316  34.377  61.137  1.00  0.00     0.151 A 
HETATM   34  C7  UNL     1      91.414  35.548  62.968  1.00  0.00     0.151 A 
HETATM   35  C5  UNL     1      92.392  33.908  61.886  1.00  0.00     0.061 A 
HETATM   36  C6  UNL     1      92.444  34.644  63.024  1.00  0.00     0.061 A 
BRANCH  33  37
HETATM   37  O4  UNL     1      90.959  33.857  59.911  1.00  0.00    -0.346 OA
ATOM     38  H4  UNL     1      91.386  33.151  59.441  1.00  0.00     0.219 HD
ENDBRANCH  33  37
BRANCH  34  39
HETATM   39  O5  UNL     1      91.148  36.474  63.969  1.00  0.00    -0.346 OA
ATOM     40  H5  UNL     1      90.294  36.741  64.289  1.00  0.00     0.219 HD
ENDBRANCH  34  39
ENDBRANCH  27  30
ENDBRANCH   3  26
TORSDOF 9
ENDMDL
MODEL 4
REMARK VINA RESULT: -8.212520127      2.669     11.864
REMARK  9 active torsions:
REMARK  status: ('A' for Active; 'I' for Inactive)
REMARK       I    between atoms: C1_2  and  N1_3 
REMARK       I    between atoms: C1_2  and  N4_20 
REMARK    1  A    between atoms: N1_3  and  N2_5 
REMARK       I    between atoms: N2_5  and  C2_7 
REMARK    2  A    between atoms: C2_7  and  C3_9 
REMARK       I    between atoms: C3_9  and  N3_11 
REMARK    3  A    between atoms: C4_12  and  O4_13 
REMARK    4  A    between atoms: C7_17  and  O5_18 
REMARK    5  A    between atoms: N4_20  and  S1_22 
REMARK    6  A    between atoms: S1_22  and  N5_25 
REMARK    7  A    between atoms: C9_27  and  C10_28 
REMARK    8  A    between atoms: C10_28  and  N6_29 
REMARK    9  A    between atoms: N6_29  and  C11_31 
ROOT
HETATM    1  O1  UNL     1      84.976  34.636  54.727  1.00  0.00    -0.245 OA
HETATM    2  C1  UNL     1      84.671  35.653  55.322  1.00  0.00     0.349 C 
HETATM    3  N1  UNL     1      83.822  36.664  54.889  1.00  0.00    -0.248 N 
ATOM      4  H1  UNL     1      83.698  37.426  55.554  1.00  0.00     0.192 HD
HETATM    5  N4  UNL     1      85.295  35.782  56.633  1.00  0.00    -0.216 N 
ATOM      6  H4  UNL     1      85.089  36.609  57.194  1.00  0.00     0.185 HD
ENDROOT
BRANCH   5   7
HETATM    7  S1  UNL     1      86.363  34.598  57.273  1.00  0.00     0.347 S 
HETATM    8  O6  UNL     1      87.652  34.703  56.447  1.00  0.00    -0.180 OA
HETATM    9  O7  UNL     1      85.858  33.206  57.171  1.00  0.00    -0.180 OA
BRANCH   7  10
HETATM   10  N5  UNL     1      86.794  35.035  58.912  1.00  0.00    -0.159 N 
HETATM   11  C8  UNL     1      87.905  35.685  59.295  1.00  0.00     0.160 A 
HETATM   12  C9  UNL     1      87.930  35.824  60.686  1.00  0.00     0.063 A 
HETATM   13  N8  UNL     1      86.795  35.233  61.088  1.00  0.00    -0.286 N 
HETATM   14  N9  UNL     1      86.128  34.768  60.016  1.00  0.00    -0.225 N 
ATOM     15  H8  UNL     1      86.486  35.149  62.057  1.00  0.00     0.188 HD
ATOM     16  H9  UNL     1      85.234  34.278  60.053  1.00  0.00     0.209 HD
BRANCH  12  17
HETATM   17  C10 UNL     1      89.013  36.457  61.472  1.00  0.00     0.179 C 
BRANCH  17  18
HETATM   18  N6  UNL     1      90.157  35.573  61.433  1.00  0.00    -0.383 N 
ATOM     19  H6  UNL     1      90.449  35.146  60.553  1.00  0.00     0.160 HD
BRANCH  18  20
HETATM   20  C11 UNL     1      90.863  35.308  62.626  1.00  0.00     0.045 A 
HETATM   21  C12 UNL     1      90.413  35.514  63.906  1.00  0.00     0.047 A 
HETATM   22  C13 UNL     1      91.417  35.155  64.791  1.00  0.00     0.090 A 
HETATM   23  N7  UNL     1      92.446  34.742  64.052  1.00  0.00    -0.373 N 
HETATM   24  C14 UNL     1      92.152  34.820  62.736  1.00  0.00     0.116 A 
ATOM     25  H7  UNL     1      93.335  34.412  64.428  1.00  0.00     0.164 HD
ENDBRANCH  18  20
ENDBRANCH  17  18
ENDBRANCH  12  17
ENDBRANCH   7  10
ENDBRANCH   5   7
BRANCH   3  26
HETATM   26  N2  UNL     1      83.136  36.806  53.743  1.00  0.00    -0.258 N 
HETATM   27  C2  UNL     1      82.095  36.041  53.151  1.00  0.00     0.328 C 
HETATM   28  O2  UNL     1      81.657  35.036  53.727  1.00  0.00    -0.261 OA
ATOM     29  H2  UNL     1      83.416  37.617  53.193  1.00  0.00     0.190 HD
BRANCH  27  30
HETATM   30  C3  UNL     1      81.552  36.440  51.864  1.00  0.00     0.325 C 
HETATM   31  O3  UNL     1      80.274  36.648  51.912  1.00  0.00    -0.261 OA
HETATM   32  N3  UNL     1      82.189  36.634  50.635  1.00  0.00    -0.233 N 
HETATM   33  C4  UNL     1      83.443  36.444  50.216  1.00  0.00     0.151 A 
HETATM   34  C7  UNL     1      81.499  37.187  49.581  1.00  0.00     0.151 A 
HETATM   35  C5  UNL     1      83.560  36.872  48.896  1.00  0.00     0.061 A 
HETATM   36  C6  UNL     1      82.345  37.333  48.511  1.00  0.00     0.061 A 
BRANCH  33  37
HETATM   37  O4  UNL     1      84.490  35.912  50.939  1.00  0.00    -0.346 OA
ATOM     38  H4  UNL     1      85.378  36.245  50.990  1.00  0.00     0.219 HD
ENDBRANCH  33  37
BRANCH  34  39
HETATM   39  O5  UNL     1      80.160  37.557  49.560  1.00  0.00    -0.346 OA
ATOM     40  H5  UNL     1      79.748  38.178  48.971  1.00  0.00     0.219 HD
ENDBRANCH  34  39
ENDBRANCH  27  30
ENDBRANCH   3  26
TORSDOF 9
ENDMDL
MODEL 5
REMARK VINA RESULT: -8.181583205      2.533      4.242
REMARK  9 active torsions:
REMARK  status: ('A' for Active; 'I' for Inactive)
REMARK       I    between atoms: C1_2  and  N1_3 
REMARK       I    between atoms: C1_2  and  N4_20 
REMARK    1  A    between atoms: N1_3  and  N2_5 
REMARK       I    between atoms: N2_5  and  C2_7 
REMARK    2  A    between atoms: C2_7  and  C3_9 
REMARK       I    between atoms: C3_9  and  N3_11 
REMARK    3  A    between atoms: C4_12  and  O4_13 
REMARK    4  A    between atoms: C7_17  and  O5_18 
REMARK    5  A    between atoms: N4_20  and  S1_22 
REMARK    6  A    between atoms: S1_22  and  N5_25 
REMARK    7  A    between atoms: C9_27  and  C10_28 
REMARK    8  A    between atoms: C10_28  and  N6_29 
REMARK    9  A    between atoms: N6_29  and  C11_31 
ROOT
HETATM    1  O1  UNL     1      87.103  34.162  57.048  1.00  0.00    -0.245 OA
HETATM    2  C1  UNL     1      86.423  34.461  58.011  1.00  0.00     0.349 C 
HETATM    3  N1  UNL     1      86.835  34.574  59.334  1.00  0.00    -0.248 N 
ATOM      4  H1  UNL     1      86.098  34.847  59.984  1.00  0.00     0.192 HD
HETATM    5  N4  UNL     1      85.024  34.719  57.693  1.00  0.00    -0.216 N 
ATOM      6  H4  UNL     1      84.390  34.975  58.450  1.00  0.00     0.185 HD
ENDROOT
BRANCH   5   7
HETATM    7  S1  UNL     1      84.400  34.609  56.096  1.00  0.00     0.347 S 
HETATM    8  O6  UNL     1      82.881  34.789  56.225  1.00  0.00    -0.180 OA
HETATM    9  O7  UNL     1      84.659  33.308  55.431  1.00  0.00    -0.180 OA
BRANCH   7  10
HETATM   10  N5  UNL     1      84.977  35.968  55.156  1.00  0.00    -0.159 N 
HETATM   11  C8  UNL     1      85.732  36.983  55.608  1.00  0.00     0.160 A 
HETATM   12  C9  UNL     1      85.965  37.905  54.584  1.00  0.00     0.063 A 
HETATM   13  N8  UNL     1      85.320  37.386  53.529  1.00  0.00    -0.286 N 
HETATM   14  N9  UNL     1      84.735  36.228  53.888  1.00  0.00    -0.225 N 
ATOM     15  H8  UNL     1      85.278  37.804  52.600  1.00  0.00     0.188 HD
ATOM     16  H9  UNL     1      84.184  35.636  53.267  1.00  0.00     0.209 HD
BRANCH  12  17
HETATM   17  C10 UNL     1      86.728  39.168  54.715  1.00  0.00     0.179 C 
BRANCH  17  18
HETATM   18  N6  UNL     1      88.041  38.945  54.150  1.00  0.00    -0.383 N 
ATOM     19  H6  UNL     1      88.150  38.767  53.151  1.00  0.00     0.160 HD
BRANCH  18  20
HETATM   20  C11 UNL     1      89.169  38.978  54.997  1.00  0.00     0.045 A 
HETATM   21  C12 UNL     1      90.470  38.723  54.638  1.00  0.00     0.047 A 
HETATM   22  C13 UNL     1      91.269  38.832  55.765  1.00  0.00     0.090 A 
HETATM   23  N7  UNL     1      90.460  39.146  56.776  1.00  0.00    -0.373 N 
HETATM   24  C14 UNL     1      89.181  39.243  56.354  1.00  0.00     0.116 A 
ATOM     25  H7  UNL     1      90.765  39.294  57.738  1.00  0.00     0.164 HD
ENDBRANCH  18  20
ENDBRANCH  17  18
ENDBRANCH  12  17
ENDBRANCH   7  10
ENDBRANCH   5   7
BRANCH   3  26
HETATM   26  N2  UNL     1      88.038  34.384  59.899  1.00  0.00    -0.258 N 
HETATM   27  C2  UNL     1      89.173  35.228  60.036  1.00  0.00     0.328 C 
HETATM   28  O2  UNL     1      89.147  36.383  59.590  1.00  0.00    -0.261 OA
ATOM     29  H2  UNL     1      88.160  33.459  60.309  1.00  0.00     0.190 HD
BRANCH  27  30
HETATM   30  C3  UNL     1      90.366  34.727  60.696  1.00  0.00     0.325 C 
HETATM   31  O3  UNL     1      91.048  33.925  59.941  1.00  0.00    -0.261 OA
HETATM   32  N3  UNL     1      90.867  34.987  61.976  1.00  0.00    -0.233 N 
HETATM   33  C4  UNL     1      90.400  35.682  63.016  1.00  0.00     0.151 A 
HETATM   34  C7  UNL     1      92.117  34.535  62.330  1.00  0.00     0.151 A 
HETATM   35  C5  UNL     1      91.347  35.678  64.038  1.00  0.00     0.061 A 
HETATM   36  C6  UNL     1      92.411  34.962  63.600  1.00  0.00     0.061 A 
BRANCH  33  37
HETATM   37  O4  UNL     1      89.182  36.322  63.109  1.00  0.00    -0.346 OA
ATOM     38  H4  UNL     1      88.795  36.912  62.474  1.00  0.00     0.219 HD
ENDBRANCH  33  37
BRANCH  34  39
HETATM   39  O5  UNL     1      92.981  33.769  61.557  1.00  0.00    -0.346 OA
ATOM     40  H5  UNL     1      93.523  33.046  61.850  1.00  0.00     0.219 HD
ENDBRANCH  34  39
ENDBRANCH  27  30
ENDBRANCH   3  26
TORSDOF 9
ENDMDL
