MODEL 1
REMARK VINA RESULT: -7.328136381      0.000      0.000
REMARK  8 active torsions:
REMARK  status: ('A' for Active; 'I' for Inactive)
REMARK    1  A    between atoms: C2_2  and  C3_3 
REMARK    2  A    between atoms: C3_3  and  C4_4 
REMARK    3  A    between atoms: N3_11  and  C6_12 
REMARK    4  A    between atoms: C9_15  and  N4_16 
REMARK       I    between atoms: N4_16  and  C10_18 
REMARK    5  A    between atoms: C10_18  and  C11_20 
REMARK    6  A    between atoms: C12_23  and  N6_24 
REMARK    7  A    between atoms: C14_31  and  C15_32 
REMARK       I    between atoms: C15_32  and  N9_34 
REMARK    8  A    between atoms: N9_34  and  N10_36 
ROOT
HETATM    1  C6  UNL     1      84.684  36.954  53.538  1.00  0.00     0.121 A 
HETATM    2  C7  UNL     1      85.691  37.814  53.878  1.00  0.00     0.052 A 
HETATM    3  C8  UNL     1      86.521  37.548  54.963  1.00  0.00     0.036 A 
HETATM    4  C9  UNL     1      86.320  36.388  55.709  1.00  0.00     0.068 A 
HETATM    5  C14 UNL     1      85.313  35.541  55.355  1.00  0.00     0.131 A 
HETATM    6  N11 UNL     1      84.510  35.852  54.262  1.00  0.00    -0.335 N 
ATOM      7  H11 UNL     1      83.759  35.211  54.007  1.00  0.00     0.168 HD
ENDROOT
BRANCH   4   8
HETATM    8  N4  UNL     1      87.103  36.206  56.850  1.00  0.00    -0.318 N 
HETATM    9  C10 UNL     1      86.837  36.560  58.183  1.00  0.00     0.292 C 
HETATM   10  O3  UNL     1      85.799  37.135  58.517  1.00  0.00    -0.264 OA
ATOM     11  H4  UNL     1      88.000  35.748  56.693  1.00  0.00     0.169 HD
BRANCH   9  12
HETATM   12  C11 UNL     1      87.798  36.255  59.234  1.00  0.00     0.204 A 
HETATM   13  N5  UNL     1      88.722  35.263  59.245  1.00  0.00    -0.169 N 
HETATM   14  C12 UNL     1      89.435  35.299  60.371  1.00  0.00     0.694 A 
ATOM     15  H5  UNL     1      88.855  34.584  58.496  1.00  0.00     0.186 HD
HETATM   16  N7  UNL     1      88.978  36.312  61.096  1.00  0.00    -0.127 N 
HETATM   17  C13 UNL     1      89.453  36.733  62.380  1.00  0.00     0.197 C 
HETATM   18  N8  UNL     1      87.992  36.888  60.412  1.00  0.00    -0.264 N 
ATOM     19  H8  UNL     1      87.457  37.696  60.733  1.00  0.00     0.189 HD
BRANCH  14  20
HETATM   20  N6  UNL     1      90.377  34.488  60.677  1.00  0.00    -0.233 N 
ATOM     21  H62 UNL     1      90.876  33.854  60.051  1.00  0.00     0.174 HD
ATOM     22  H61 UNL     1      90.771  34.367  61.609  1.00  0.00     0.174 HD
ENDBRANCH  14  20
ENDBRANCH   9  12
ENDBRANCH   4   8
BRANCH   5  23
HETATM   23  C15 UNL     1      85.072  34.292  56.020  1.00  0.00     0.288 C 
HETATM   24  O4  UNL     1      84.422  34.147  57.037  1.00  0.00    -0.264 OA
HETATM   25  N9  UNL     1      85.634  33.085  55.459  1.00  0.00    -0.271 N 
ATOM     26  H9  UNL     1      86.184  33.154  54.603  1.00  0.00     0.189 HD
BRANCH  25  27
HETATM   27  N10 UNL     1      85.455  31.824  56.040  1.00  0.00    -0.342 N 
ATOM     28 2H10 UNL     1      85.707  31.007  55.483  1.00  0.00     0.176 HD
ATOM     29 1H10 UNL     1      85.087  31.698  56.983  1.00  0.00     0.176 HD
ENDBRANCH  25  27
ENDBRANCH   5  23
BRANCH   1  30
HETATM   30  N3  UNL     1      83.841  37.295  52.444  1.00  0.00    -0.240 N 
HETATM   31  C5  UNL     1      83.122  36.441  51.576  1.00  0.00     0.204 C 
HETATM   32  N1  UNL     1      82.261  36.940  50.843  1.00  0.00    -0.335 N 
HETATM   33  N2  UNL     1      83.405  35.014  51.553  1.00  0.00    -0.062 NA
HETATM   34  C3  UNL     1      81.987  38.321  50.862  1.00  0.00     0.190 C 
ATOM     35  H1  UNL     1      81.737  36.337  50.209  1.00  0.00     0.164 HD
HETATM   36  S1  UNL     1      83.416  38.925  51.848  1.00  0.00    -0.000 SA
BRANCH  34  37
HETATM   37  C2  UNL     1      80.685  38.737  51.491  1.00  0.00     0.051 C 
HETATM   38  C1  UNL     1      79.662  37.671  51.621  1.00  0.00     0.009 C 
ENDBRANCH  34  37
BRANCH  34  39
HETATM   39  C4  UNL     1      82.148  38.884  49.501  1.00  0.00     0.215 C 
HETATM   40  O1  UNL     1      81.171  39.354  48.882  1.00  0.00    -0.645 OA
HETATM   41  O2  UNL     1      83.397  38.885  48.925  1.00  0.00    -0.645 OA
ENDBRANCH  34  39
ENDBRANCH   1  30
TORSDOF 8
ENDMDL
MODEL 2
REMARK VINA RESULT: -7.251219084      4.216     10.479
REMARK  8 active torsions:
REMARK  status: ('A' for Active; 'I' for Inactive)
REMARK    1  A    between atoms: C2_2  and  C3_3 
REMARK    2  A    between atoms: C3_3  and  C4_4 
REMARK    3  A    between atoms: N3_11  and  C6_12 
REMARK    4  A    between atoms: C9_15  and  N4_16 
REMARK       I    between atoms: N4_16  and  C10_18 
REMARK    5  A    between atoms: C10_18  and  C11_20 
REMARK    6  A    between atoms: C12_23  and  N6_24 
REMARK    7  A    between atoms: C14_31  and  C15_32 
REMARK       I    between atoms: C15_32  and  N9_34 
REMARK    8  A    between atoms: N9_34  and  N10_36 
ROOT
HETATM    1  C6  UNL     1      87.568  35.622  60.476  1.00  0.00     0.121 A 
HETATM    2  C7  UNL     1      86.282  35.257  60.765  1.00  0.00     0.052 A 
HETATM    3  C8  UNL     1      85.351  35.062  59.750  1.00  0.00     0.036 A 
HETATM    4  C9  UNL     1      85.738  35.240  58.423  1.00  0.00     0.068 A 
HETATM    5  C14 UNL     1      87.024  35.601  58.153  1.00  0.00     0.131 A 
HETATM    6  N11 UNL     1      87.918  35.785  59.203  1.00  0.00    -0.335 N 
ATOM      7  H11 UNL     1      88.877  36.056  58.989  1.00  0.00     0.168 HD
ENDROOT
BRANCH   4   8
HETATM    8  N4  UNL     1      84.753  35.137  57.440  1.00  0.00    -0.318 N 
HETATM    9  C10 UNL     1      84.449  34.063  56.588  1.00  0.00     0.292 C 
HETATM   10  O3  UNL     1      85.084  33.006  56.608  1.00  0.00    -0.264 OA
ATOM     11  H4  UNL     1      84.168  35.964  57.322  1.00  0.00     0.169 HD
BRANCH   9  12
HETATM   12  C11 UNL     1      83.353  34.163  55.634  1.00  0.00     0.204 A 
HETATM   13  N5  UNL     1      82.353  33.270  55.429  1.00  0.00    -0.169 N 
HETATM   14  C12 UNL     1      81.523  33.705  54.481  1.00  0.00     0.694 A 
ATOM     15  H5  UNL     1      82.250  32.388  55.931  1.00  0.00     0.186 HD
HETATM   16  N7  UNL     1      81.978  34.881  54.065  1.00  0.00    -0.127 N 
HETATM   17  C13 UNL     1      81.398  35.721  53.062  1.00  0.00     0.197 C 
HETATM   18  N8  UNL     1      83.081  35.156  54.759  1.00  0.00    -0.264 N 
ATOM     19  H8  UNL     1      83.642  36.001  54.646  1.00  0.00     0.189 HD
BRANCH  14  20
HETATM   20  N6  UNL     1      80.487  33.081  54.061  1.00  0.00    -0.233 N 
ATOM     21  H62 UNL     1      80.335  32.072  54.050  1.00  0.00     0.174 HD
ATOM     22  H61 UNL     1      79.651  33.520  53.677  1.00  0.00     0.174 HD
ENDBRANCH  14  20
ENDBRANCH   9  12
ENDBRANCH   4   8
BRANCH   5  23
HETATM   23  C15 UNL     1      87.533  35.742  56.818  1.00  0.00     0.288 C 
HETATM   24  O4  UNL     1      87.776  34.828  56.054  1.00  0.00    -0.264 OA
HETATM   25  N9  UNL     1      87.788  37.070  56.308  1.00  0.00    -0.271 N 
ATOM     26  H9  UNL     1      87.596  37.869  56.910  1.00  0.00     0.189 HD
BRANCH  25  27
HETATM   27  N10 UNL     1      88.287  37.304  55.021  1.00  0.00    -0.342 N 
ATOM     28 2H10 UNL     1      87.623  37.594  54.303  1.00  0.00     0.176 HD
ATOM     29 1H10 UNL     1      89.273  37.196  54.783  1.00  0.00     0.176 HD
ENDBRANCH  25  27
ENDBRANCH   5  23
BRANCH   1  30
HETATM   30  N3  UNL     1      88.469  35.846  61.554  1.00  0.00    -0.240 N 
HETATM   31  C5  UNL     1      89.861  35.604  61.615  1.00  0.00     0.204 C 
HETATM   32  N1  UNL     1      90.499  36.090  62.555  1.00  0.00    -0.335 N 
HETATM   33  N2  UNL     1      90.508  34.796  60.594  1.00  0.00    -0.062 NA
HETATM   34  C3  UNL     1      89.874  36.871  63.547  1.00  0.00     0.190 C 
ATOM     35  H1  UNL     1      91.503  35.921  62.615  1.00  0.00     0.164 HD
HETATM   36  S1  UNL     1      88.108  36.531  63.165  1.00  0.00    -0.000 SA
BRANCH  34  37
HETATM   37  C2  UNL     1      90.158  38.348  63.513  1.00  0.00     0.051 C 
HETATM   38  C1  UNL     1      89.250  39.159  62.667  1.00  0.00     0.009 C 
ENDBRANCH  34  37
BRANCH  34  39
HETATM   39  C4  UNL     1      90.133  36.288  64.884  1.00  0.00     0.215 C 
HETATM   40  O1  UNL     1      89.428  35.357  65.324  1.00  0.00    -0.645 OA
HETATM   41  O2  UNL     1      91.170  36.786  65.639  1.00  0.00    -0.645 OA
ENDBRANCH  34  39
ENDBRANCH   1  30
TORSDOF 8
ENDMDL
MODEL 3
REMARK VINA RESULT: -7.191777515      1.104      1.225
REMARK  8 active torsions:
REMARK  status: ('A' for Active; 'I' for Inactive)
REMARK    1  A    between atoms: C2_2  and  C3_3 
REMARK    2  A    between atoms: C3_3  and  C4_4 
REMARK    3  A    between atoms: N3_11  and  C6_12 
REMARK    4  A    between atoms: C9_15  and  N4_16 
REMARK       I    between atoms: N4_16  and  C10_18 
REMARK    5  A    between atoms: C10_18  and  C11_20 
REMARK    6  A    between atoms: C12_23  and  N6_24 
REMARK    7  A    between atoms: C14_31  and  C15_32 
REMARK       I    between atoms: C15_32  and  N9_34 
REMARK    8  A    between atoms: N9_34  and  N10_36 
ROOT
HETATM    1  C6  UNL     1      85.137  36.748  54.079  1.00  0.00     0.121 A 
HETATM    2  C7  UNL     1      85.995  37.729  54.497  1.00  0.00     0.052 A 
HETATM    3  C8  UNL     1      86.816  37.534  55.603  1.00  0.00     0.036 A 
HETATM    4  C9  UNL     1      86.763  36.322  56.290  1.00  0.00     0.068 A 
HETATM    5  C14 UNL     1      85.905  35.355  55.857  1.00  0.00     0.131 A 
HETATM    6  N11 UNL     1      85.103  35.599  54.747  1.00  0.00    -0.335 N 
ATOM      7  H11 UNL     1      84.464  34.868  54.434  1.00  0.00     0.168 HD
ENDROOT
BRANCH   4   8
HETATM    8  N4  UNL     1      87.524  36.201  57.453  1.00  0.00    -0.318 N 
HETATM    9  C10 UNL     1      87.261  36.678  58.747  1.00  0.00     0.292 C 
HETATM   10  O3  UNL     1      86.247  37.326  59.017  1.00  0.00    -0.264 OA
ATOM     11  H4  UNL     1      88.400  35.690  57.348  1.00  0.00     0.169 HD
BRANCH   9  12
HETATM   12  C11 UNL     1      88.195  36.419  59.834  1.00  0.00     0.204 A 
HETATM   13  N5  UNL     1      89.200  35.509  59.860  1.00  0.00    -0.169 N 
HETATM   14  C12 UNL     1      89.854  35.565  61.020  1.00  0.00     0.694 A 
ATOM     15  H5  UNL     1      89.425  34.869  59.097  1.00  0.00     0.186 HD
HETATM   16  N7  UNL     1      89.279  36.510  61.753  1.00  0.00    -0.127 N 
HETATM   17  C13 UNL     1      89.656  36.925  63.071  1.00  0.00     0.197 C 
HETATM   18  N8  UNL     1      88.279  37.024  61.040  1.00  0.00    -0.264 N 
ATOM     19  H8  UNL     1      87.663  37.772  61.359  1.00  0.00     0.189 HD
BRANCH  14  20
HETATM   20  N6  UNL     1      90.847  34.826  61.346  1.00  0.00    -0.233 N 
ATOM     21  H62 UNL     1      91.129  33.944  60.918  1.00  0.00     0.174 HD
ATOM     22  H61 UNL     1      91.512  35.028  62.093  1.00  0.00     0.174 HD
ENDBRANCH  14  20
ENDBRANCH   9  12
ENDBRANCH   4   8
BRANCH   5  23
HETATM   23  C15 UNL     1      85.827  34.054  56.458  1.00  0.00     0.288 C 
HETATM   24  O4  UNL     1      86.025  33.804  57.632  1.00  0.00    -0.264 OA
HETATM   25  N9  UNL     1      85.488  32.923  55.625  1.00  0.00    -0.271 N 
ATOM     26  H9  UNL     1      85.310  33.082  54.634  1.00  0.00     0.189 HD
BRANCH  25  27
HETATM   27  N10 UNL     1      85.393  31.618  56.122  1.00  0.00    -0.342 N 
ATOM     28 2H10 UNL     1      85.047  31.498  57.074  1.00  0.00     0.176 HD
ATOM     29 1H10 UNL     1      85.654  30.798  55.573  1.00  0.00     0.176 HD
ENDBRANCH  25  27
ENDBRANCH   5  23
BRANCH   1  30
HETATM   30  N3  UNL     1      84.292  37.015  52.966  1.00  0.00    -0.240 N 
HETATM   31  C5  UNL     1      83.085  36.379  52.594  1.00  0.00     0.204 C 
HETATM   32  N1  UNL     1      82.381  36.917  51.732  1.00  0.00    -0.335 N 
HETATM   33  N2  UNL     1      82.698  35.122  53.215  1.00  0.00    -0.062 NA
HETATM   34  C3  UNL     1      82.754  38.133  51.128  1.00  0.00     0.190 C 
ATOM     35  H1  UNL     1      81.509  36.468  51.451  1.00  0.00     0.164 HD
HETATM   36  S1  UNL     1      84.495  38.264  51.704  1.00  0.00    -0.000 SA
BRANCH  34  37
HETATM   37  C2  UNL     1      81.962  39.349  51.527  1.00  0.00     0.051 C 
HETATM   38  C1  UNL     1      82.681  40.341  52.361  1.00  0.00     0.009 C 
ENDBRANCH  34  37
BRANCH  34  39
HETATM   39  C4  UNL     1      82.811  37.967  49.657  1.00  0.00     0.215 C 
HETATM   40  O1  UNL     1      81.964  37.273  49.058  1.00  0.00    -0.645 OA
HETATM   41  O2  UNL     1      83.813  38.595  48.954  1.00  0.00    -0.645 OA
ENDBRANCH  34  39
ENDBRANCH   1  30
TORSDOF 8
ENDMDL
MODEL 4
REMARK VINA RESULT: -7.030014048      2.096      3.229
REMARK  8 active torsions:
REMARK  status: ('A' for Active; 'I' for Inactive)
REMARK    1  A    between atoms: C2_2  and  C3_3 
REMARK    2  A    between atoms: C3_3  and  C4_4 
REMARK    3  A    between atoms: N3_11  and  C6_12 
REMARK    4  A    between atoms: C9_15  and  N4_16 
REMARK       I    between atoms: N4_16  and  C10_18 
REMARK    5  A    between atoms: C10_18  and  C11_20 
REMARK    6  A    between atoms: C12_23  and  N6_24 
REMARK    7  A    between atoms: C14_31  and  C15_32 
REMARK       I    between atoms: C15_32  and  N9_34 
REMARK    8  A    between atoms: N9_34  and  N10_36 
ROOT
HETATM    1  C6  UNL     1      84.971  37.295  54.364  1.00  0.00     0.121 A 
HETATM    2  C7  UNL     1      84.535  36.499  55.387  1.00  0.00     0.052 A 
HETATM    3  C8  UNL     1      85.359  36.217  56.472  1.00  0.00     0.036 A 
HETATM    4  C9  UNL     1      86.645  36.755  56.513  1.00  0.00     0.068 A 
HETATM    5  C14 UNL     1      87.061  37.548  55.485  1.00  0.00     0.131 A 
HETATM    6  N11 UNL     1      86.200  37.800  54.422  1.00  0.00    -0.335 N 
ATOM      7  H11 UNL     1      86.523  38.394  53.659  1.00  0.00     0.168 HD
ENDROOT
BRANCH   4   8
HETATM    8  N4  UNL     1      87.478  36.368  57.562  1.00  0.00    -0.318 N 
HETATM    9  C10 UNL     1      87.488  36.794  58.901  1.00  0.00     0.292 C 
HETATM   10  O3  UNL     1      86.702  37.643  59.327  1.00  0.00    -0.264 OA
ATOM     11  H4  UNL     1      88.185  35.672  57.323  1.00  0.00     0.169 HD
BRANCH   9  12
HETATM   12  C11 UNL     1      88.446  36.238  59.846  1.00  0.00     0.204 A 
HETATM   13  N5  UNL     1      89.348  35.251  59.623  1.00  0.00    -0.169 N 
HETATM   14  C12 UNL     1      90.066  35.014  60.721  1.00  0.00     0.694 A 
ATOM     15  H5  UNL     1      89.462  34.757  58.738  1.00  0.00     0.186 HD
HETATM   16  N7  UNL     1      89.635  35.845  61.662  1.00  0.00    -0.127 N 
HETATM   17  C13 UNL     1      90.125  35.953  63.003  1.00  0.00     0.197 C 
HETATM   18  N8  UNL     1      88.659  36.582  61.136  1.00  0.00    -0.264 N 
ATOM     19  H8  UNL     1      88.144  37.307  61.637  1.00  0.00     0.189 HD
BRANCH  14  20
HETATM   20  N6  UNL     1      90.991  34.135  60.826  1.00  0.00    -0.233 N 
ATOM     21  H62 UNL     1      91.065  33.395  61.524  1.00  0.00     0.174 HD
ATOM     22  H61 UNL     1      91.796  34.050  60.205  1.00  0.00     0.174 HD
ENDBRANCH  14  20
ENDBRANCH   9  12
ENDBRANCH   4   8
BRANCH   5  23
HETATM   23  C15 UNL     1      88.340  38.200  55.471  1.00  0.00     0.288 C 
HETATM   24  O4  UNL     1      88.702  39.064  56.246  1.00  0.00    -0.264 OA
HETATM   25  N9  UNL     1      89.303  37.821  54.462  1.00  0.00    -0.271 N 
ATOM     26  H9  UNL     1      89.047  37.097  53.791  1.00  0.00     0.189 HD
BRANCH  25  27
HETATM   27  N10 UNL     1      90.572  38.404  54.368  1.00  0.00    -0.342 N 
ATOM     28 2H10 UNL     1      90.619  39.419  54.273  1.00  0.00     0.176 HD
ATOM     29 1H10 UNL     1      91.434  37.858  54.392  1.00  0.00     0.176 HD
ENDBRANCH  25  27
ENDBRANCH   5  23
BRANCH   1  30
HETATM   30  N3  UNL     1      84.101  37.519  53.260  1.00  0.00    -0.240 N 
HETATM   31  C5  UNL     1      83.983  38.664  52.439  1.00  0.00     0.204 C 
HETATM   32  N1  UNL     1      83.339  38.568  51.390  1.00  0.00    -0.335 N 
HETATM   33  N2  UNL     1      84.604  39.917  52.838  1.00  0.00    -0.062 NA
HETATM   34  C3  UNL     1      82.734  37.357  51.002  1.00  0.00     0.190 C 
ATOM     35  H1  UNL     1      83.242  39.387  50.789  1.00  0.00     0.164 HD
HETATM   36  S1  UNL     1      82.899  36.397  52.561  1.00  0.00    -0.000 SA
BRANCH  34  37
HETATM   37  C2  UNL     1      83.373  36.628  49.851  1.00  0.00     0.051 C 
HETATM   38  C1  UNL     1      83.188  37.244  48.515  1.00  0.00     0.009 C 
ENDBRANCH  34  37
BRANCH  34  39
HETATM   39  C4  UNL     1      81.283  37.565  50.789  1.00  0.00     0.215 C 
HETATM   40  O1  UNL     1      80.495  36.597  50.762  1.00  0.00    -0.645 OA
HETATM   41  O2  UNL     1      80.811  38.846  50.622  1.00  0.00    -0.645 OA
ENDBRANCH  34  39
ENDBRANCH   1  30
TORSDOF 8
ENDMDL
MODEL 5
REMARK VINA RESULT: -6.992839050      2.355      3.478
REMARK  8 active torsions:
REMARK  status: ('A' for Active; 'I' for Inactive)
REMARK    1  A    between atoms: C2_2  and  C3_3 
REMARK    2  A    between atoms: C3_3  and  C4_4 
REMARK    3  A    between atoms: N3_11  and  C6_12 
REMARK    4  A    between atoms: C9_15  and  N4_16 
REMARK       I    between atoms: N4_16  and  C10_18 
REMARK    5  A    between atoms: C10_18  and  C11_20 
REMARK    6  A    between atoms: C12_23  and  N6_24 
REMARK    7  A    between atoms: C14_31  and  C15_32 
REMARK       I    between atoms: C15_32  and  N9_34 
REMARK    8  A    between atoms: N9_34  and  N10_36 
ROOT
HETATM    1  C6  UNL     1      85.677  37.905  54.018  1.00  0.00     0.121 A 
HETATM    2  C7  UNL     1      85.019  37.270  55.035  1.00  0.00     0.052 A 
HETATM    3  C8  UNL     1      85.675  36.952  56.220  1.00  0.00     0.036 A 
HETATM    4  C9  UNL     1      87.020  37.288  56.369  1.00  0.00     0.068 A 
HETATM    5  C14 UNL     1      87.659  37.924  55.346  1.00  0.00     0.131 A 
HETATM    6  N11 UNL     1      86.959  38.218  54.180  1.00  0.00    -0.335 N 
ATOM      7  H11 UNL     1      87.448  38.693  53.422  1.00  0.00     0.168 HD
ENDROOT
BRANCH   4   8
HETATM    8  N4  UNL     1      87.672  36.863  57.527  1.00  0.00    -0.318 N 
HETATM    9  C10 UNL     1      87.610  37.383  58.830  1.00  0.00     0.292 C 
HETATM   10  O3  UNL     1      86.924  38.368  59.115  1.00  0.00    -0.264 OA
ATOM     11  H4  UNL     1      88.284  36.056  57.410  1.00  0.00     0.169 HD
BRANCH   9  12
HETATM   12  C11 UNL     1      88.368  36.766  59.909  1.00  0.00     0.204 A 
HETATM   13  N5  UNL     1      88.140  36.868  61.242  1.00  0.00    -0.169 N 
HETATM   14  C12 UNL     1      89.035  36.155  61.927  1.00  0.00     0.694 A 
ATOM     15  H5  UNL     1      87.389  37.415  61.663  1.00  0.00     0.186 HD
HETATM   16  N7  UNL     1      89.847  35.587  61.045  1.00  0.00    -0.127 N 
HETATM   17  C13 UNL     1      90.953  34.723  61.327  1.00  0.00     0.197 C 
HETATM   18  N8  UNL     1      89.446  35.955  59.830  1.00  0.00    -0.264 N 
ATOM     19  H8  UNL     1      89.892  35.664  58.959  1.00  0.00     0.189 HD
BRANCH  14  20
HETATM   20  N6  UNL     1      89.084  36.059  63.203  1.00  0.00    -0.233 N 
ATOM     21  H62 UNL     1      88.436  35.557  63.811  1.00  0.00     0.174 HD
ATOM     22  H61 UNL     1      89.799  36.476  63.798  1.00  0.00     0.174 HD
ENDBRANCH  14  20
ENDBRANCH   9  12
ENDBRANCH   4   8
BRANCH   5  23
HETATM   23  C15 UNL     1      89.021  38.369  55.432  1.00  0.00     0.288 C 
HETATM   24  O4  UNL     1      89.502  38.996  56.356  1.00  0.00    -0.264 OA
HETATM   25  N9  UNL     1      89.923  38.062  54.345  1.00  0.00    -0.271 N 
ATOM     26  H9  UNL     1      89.566  37.534  53.549  1.00  0.00     0.189 HD
BRANCH  25  27
HETATM   27  N10 UNL     1      91.265  38.458  54.340  1.00  0.00    -0.342 N 
ATOM     28 2H10 UNL     1      91.846  38.170  55.128  1.00  0.00     0.176 HD
ATOM     29 1H10 UNL     1      91.674  39.014  53.588  1.00  0.00     0.176 HD
ENDBRANCH  25  27
ENDBRANCH   5  23
BRANCH   1  30
HETATM   30  N3  UNL     1      84.969  38.170  52.813  1.00  0.00    -0.240 N 
HETATM   31  C5  UNL     1      85.466  38.627  51.571  1.00  0.00     0.204 C 
HETATM   32  N1  UNL     1      84.725  38.565  50.584  1.00  0.00    -0.335 N 
HETATM   33  N2  UNL     1      86.816  39.161  51.476  1.00  0.00    -0.062 NA
HETATM   34  C3  UNL     1      83.418  38.051  50.674  1.00  0.00     0.190 C 
ATOM     35  H1  UNL     1      85.070  38.894  49.682  1.00  0.00     0.164 HD
HETATM   36  S1  UNL     1      83.219  37.981  52.501  1.00  0.00    -0.000 SA
BRANCH  34  37
HETATM   37  C2  UNL     1      83.186  36.698  50.056  1.00  0.00     0.051 C 
HETATM   38  C1  UNL     1      83.384  35.536  50.954  1.00  0.00     0.009 C 
ENDBRANCH  34  37
BRANCH  34  39
HETATM   39  C4  UNL     1      82.447  39.057  50.185  1.00  0.00     0.215 C 
HETATM   40  O1  UNL     1      82.676  39.718  49.152  1.00  0.00    -0.645 OA
HETATM   41  O2  UNL     1      81.280  39.253  50.887  1.00  0.00    -0.645 OA
ENDBRANCH  34  39
ENDBRANCH   1  30
TORSDOF 8
ENDMDL
