MODEL 1
REMARK VINA RESULT: -8.538843277      0.000      0.000
REMARK  2 active torsions:
REMARK  status: ('A' for Active; 'I' for Inactive)
REMARK    1  A    between atoms: C2_3  and  N2_4 
REMARK       I    between atoms: N2_4  and  C3_6 
REMARK    2  A    between atoms: C3_6  and  C4_8 
ROOT
HETATM    1  N1  UNL     1      20.133  67.319   9.084  1.00  0.00    -0.195 NA
HETATM    2  C1  UNL     1      19.641  67.691   8.106  1.00  0.00     0.091 C 
HETATM    3  C2  UNL     1      19.021  68.153   6.838  1.00  0.00     0.122 C 
HETATM    4  C10 UNL     1      19.900  67.734   5.723  1.00  0.00     0.046 C 
HETATM    5  C11 UNL     1      20.520  68.877   4.950  1.00  0.00     0.004 C 
HETATM    6  C12 UNL     1      21.123  69.806   5.965  1.00  0.00     0.000 C 
HETATM    7  C13 UNL     1      19.994  70.480   6.686  1.00  0.00     0.004 C 
HETATM    8  C14 UNL     1      18.833  69.629   6.989  1.00  0.00     0.046 C 
ENDROOT
BRANCH   3   9
HETATM    9  N2  UNL     1      17.757  67.467   6.727  1.00  0.00    -0.333 N 
HETATM   10  C3  UNL     1      16.806  67.724   5.721  1.00  0.00     0.276 C 
HETATM   11  O1  UNL     1      17.013  68.582   4.844  1.00  0.00    -0.265 OA
ATOM     12  H2  UNL     1      17.539  66.750   7.420  1.00  0.00     0.164 HD
BRANCH  10  13
HETATM   13  C4  UNL     1      15.517  66.994   5.648  1.00  0.00     0.144 A 
HETATM   14  N3  UNL     1      15.121  66.118   4.751  1.00  0.00    -0.332 N 
HETATM   15  C5  UNL     1      13.934  65.572   4.854  1.00  0.00     0.115 A 
ATOM     16  H3  UNL     1      15.736  65.864   3.977  1.00  0.00     0.168 HD
HETATM   17  C6  UNL     1      13.163  65.958   5.917  1.00  0.00     0.029 A 
HETATM   18  N4  UNL     1      13.373  64.593   3.937  1.00  0.00    -0.375 N 
HETATM   19  S1  UNL     1      14.178  67.078   6.706  1.00  0.00    -0.068 SA
HETATM   20  C7  UNL     1      11.775  65.421   6.177  1.00  0.00     0.052 C 
HETATM   21  C8  UNL     1      11.825  63.986   5.657  1.00  0.00     0.025 C 
HETATM   22  C9  UNL     1      12.048  64.119   4.165  1.00  0.00     0.121 C 
ATOM     23  H4  UNL     1      13.917  64.252   3.144  1.00  0.00     0.161 HD
ENDBRANCH  10  13
ENDBRANCH   3   9
TORSDOF 2
ENDMDL
MODEL 2
REMARK VINA RESULT: -8.451096478      1.432      1.761
REMARK  2 active torsions:
REMARK  status: ('A' for Active; 'I' for Inactive)
REMARK    1  A    between atoms: C2_3  and  N2_4 
REMARK       I    between atoms: N2_4  and  C3_6 
REMARK    2  A    between atoms: C3_6  and  C4_8 
ROOT
HETATM    1  N1  UNL     1      18.949  67.139   9.515  1.00  0.00    -0.195 NA
HETATM    2  C1  UNL     1      18.490  67.569   8.546  1.00  0.00     0.091 C 
HETATM    3  C2  UNL     1      17.915  68.111   7.287  1.00  0.00     0.122 C 
HETATM    4  C10 UNL     1      18.950  68.007   6.235  1.00  0.00     0.046 C 
HETATM    5  C11 UNL     1      19.431  69.336   5.693  1.00  0.00     0.004 C 
HETATM    6  C12 UNL     1      19.771  70.187   6.884  1.00  0.00     0.000 C 
HETATM    7  C13 UNL     1      18.482  70.559   7.555  1.00  0.00     0.004 C 
HETATM    8  C14 UNL     1      17.463  69.499   7.609  1.00  0.00     0.046 C 
ENDROOT
BRANCH   3   9
HETATM    9  N2  UNL     1      16.804  67.258   6.945  1.00  0.00    -0.333 N 
HETATM   10  C3  UNL     1      15.990  67.442   5.811  1.00  0.00     0.276 C 
HETATM   11  O1  UNL     1      16.194  68.377   5.017  1.00  0.00    -0.265 OA
ATOM     12  H2  UNL     1      16.596  66.473   7.562  1.00  0.00     0.164 HD
BRANCH  10  13
HETATM   13  C4  UNL     1      14.855  66.539   5.500  1.00  0.00     0.144 A 
HETATM   14  N3  UNL     1      13.739  66.364   6.175  1.00  0.00    -0.332 N 
HETATM   15  C5  UNL     1      12.843  65.512   5.740  1.00  0.00     0.115 A 
ATOM     16  H3  UNL     1      13.573  66.889   7.033  1.00  0.00     0.168 HD
HETATM   17  C6  UNL     1      13.132  64.843   4.581  1.00  0.00     0.029 A 
HETATM   18  N4  UNL     1      11.572  65.223   6.384  1.00  0.00    -0.375 N 
HETATM   19  S1  UNL     1      14.667  65.469   4.182  1.00  0.00    -0.068 SA
HETATM   20  C7  UNL     1      12.204  63.833   3.950  1.00  0.00     0.052 C 
HETATM   21  C8  UNL     1      10.806  64.340   4.296  1.00  0.00     0.025 C 
HETATM   22  C9  UNL     1      10.717  64.240   5.805  1.00  0.00     0.121 C 
ATOM     23  H4  UNL     1      11.297  65.715   7.234  1.00  0.00     0.161 HD
ENDBRANCH  10  13
ENDBRANCH   3   9
TORSDOF 2
ENDMDL
MODEL 3
REMARK VINA RESULT: -8.175820006      1.829      2.638
REMARK  2 active torsions:
REMARK  status: ('A' for Active; 'I' for Inactive)
REMARK    1  A    between atoms: C2_3  and  N2_4 
REMARK       I    between atoms: N2_4  and  C3_6 
REMARK    2  A    between atoms: C3_6  and  C4_8 
ROOT
HETATM    1  N1  UNL     1      16.404  70.547   7.983  1.00  0.00    -0.195 NA
HETATM    2  C1  UNL     1      16.855  69.496   7.817  1.00  0.00     0.091 C 
HETATM    3  C2  UNL     1      17.433  68.140   7.627  1.00  0.00     0.122 C 
HETATM    4  C10 UNL     1      17.949  67.679   8.935  1.00  0.00     0.046 C 
HETATM    5  C11 UNL     1      19.449  67.481   8.984  1.00  0.00     0.004 C 
HETATM    6  C12 UNL     1      20.065  68.732   8.425  1.00  0.00     0.000 C 
HETATM    7  C13 UNL     1      19.790  68.750   6.950  1.00  0.00     0.004 C 
HETATM    8  C14 UNL     1      18.456  68.281   6.545  1.00  0.00     0.046 C 
ENDROOT
BRANCH   3   9
HETATM    9  N2  UNL     1      16.345  67.285   7.219  1.00  0.00    -0.333 N 
HETATM   10  C3  UNL     1      15.737  67.334   5.950  1.00  0.00     0.276 C 
HETATM   11  O1  UNL     1      16.121  68.140   5.084  1.00  0.00    -0.265 OA
ATOM     12  H2  UNL     1      15.994  66.603   7.892  1.00  0.00     0.164 HD
BRANCH  10  13
HETATM   13  C4  UNL     1      14.618  66.436   5.577  1.00  0.00     0.144 A 
HETATM   14  N3  UNL     1      13.477  66.245   6.203  1.00  0.00    -0.332 N 
HETATM   15  C5  UNL     1      12.601  65.401   5.716  1.00  0.00     0.115 A 
ATOM     16  H3  UNL     1      13.276  66.752   7.065  1.00  0.00     0.168 HD
HETATM   17  C6  UNL     1      12.937  64.756   4.556  1.00  0.00     0.029 A 
HETATM   18  N4  UNL     1      11.306  65.096   6.303  1.00  0.00    -0.375 N 
HETATM   19  S1  UNL     1      14.486  65.393   4.231  1.00  0.00    -0.068 SA
HETATM   20  C7  UNL     1      12.038  63.757   3.868  1.00  0.00     0.052 C 
HETATM   21  C8  UNL     1      10.625  64.254   4.169  1.00  0.00     0.025 C 
HETATM   22  C9  UNL     1      10.477  64.123   5.671  1.00  0.00     0.121 C 
ATOM     23  H4  UNL     1      10.996  65.569   7.152  1.00  0.00     0.161 HD
ENDBRANCH  10  13
ENDBRANCH   3   9
TORSDOF 2
ENDMDL
MODEL 4
REMARK VINA RESULT: -8.116781815      1.992      2.807
REMARK  2 active torsions:
REMARK  status: ('A' for Active; 'I' for Inactive)
REMARK    1  A    between atoms: C2_3  and  N2_4 
REMARK       I    between atoms: N2_4  and  C3_6 
REMARK    2  A    between atoms: C3_6  and  C4_8 
ROOT
HETATM    1  N1  UNL     1      18.803  69.658   3.194  1.00  0.00    -0.195 NA
HETATM    2  C1  UNL     1      18.440  69.174   4.179  1.00  0.00     0.091 C 
HETATM    3  C2  UNL     1      17.962  68.570   5.450  1.00  0.00     0.122 C 
HETATM    4  C10 UNL     1      17.516  69.669   6.334  1.00  0.00     0.046 C 
HETATM    5  C11 UNL     1      18.330  69.826   7.601  1.00  0.00     0.004 C 
HETATM    6  C12 UNL     1      19.773  69.847   7.183  1.00  0.00     0.000 C 
HETATM    7  C13 UNL     1      20.134  68.461   6.738  1.00  0.00     0.004 C 
HETATM    8  C14 UNL     1      19.101  67.751   5.967  1.00  0.00     0.046 C 
ENDROOT
BRANCH   3   9
HETATM    9  N2  UNL     1      16.829  67.746   5.110  1.00  0.00    -0.333 N 
HETATM   10  C3  UNL     1      15.947  67.188   6.056  1.00  0.00     0.276 C 
HETATM   11  O1  UNL     1      16.104  67.385   7.274  1.00  0.00    -0.265 OA
ATOM     12  H2  UNL     1      16.654  67.556   4.123  1.00  0.00     0.164 HD
BRANCH  10  13
HETATM   13  C4  UNL     1      14.795  66.343   5.659  1.00  0.00     0.144 A 
HETATM   14  N3  UNL     1      13.634  66.207   6.261  1.00  0.00    -0.332 N 
HETATM   15  C5  UNL     1      12.729  65.405   5.755  1.00  0.00     0.115 A 
ATOM     16  H3  UNL     1      13.438  66.723   7.119  1.00  0.00     0.168 HD
HETATM   17  C6  UNL     1      13.059  64.745   4.602  1.00  0.00     0.029 A 
HETATM   18  N4  UNL     1      11.409  65.161   6.315  1.00  0.00    -0.375 N 
HETATM   19  S1  UNL     1      14.642  65.308   4.310  1.00  0.00    -0.068 SA
HETATM   20  C7  UNL     1      12.128  63.789   3.895  1.00  0.00     0.052 C 
HETATM   21  C8  UNL     1      10.734  64.353   4.167  1.00  0.00     0.025 C 
HETATM   22  C9  UNL     1      10.549  64.229   5.665  1.00  0.00     0.121 C 
ATOM     23  H4  UNL     1      11.104  65.649   7.158  1.00  0.00     0.161 HD
ENDBRANCH  10  13
ENDBRANCH   3   9
TORSDOF 2
ENDMDL
MODEL 5
REMARK VINA RESULT: -8.021230724      3.184      7.411
REMARK  2 active torsions:
REMARK  status: ('A' for Active; 'I' for Inactive)
REMARK    1  A    between atoms: C2_3  and  N2_4 
REMARK       I    between atoms: N2_4  and  C3_6 
REMARK    2  A    between atoms: C3_6  and  C4_8 
ROOT
HETATM    1  N1  UNL     1      12.619  66.938   7.404  1.00  0.00    -0.195 NA
HETATM    2  C1  UNL     1      13.706  67.063   7.030  1.00  0.00     0.091 C 
HETATM    3  C2  UNL     1      15.098  67.244   6.543  1.00  0.00     0.122 C 
HETATM    4  C10 UNL     1      15.099  68.370   5.582  1.00  0.00     0.046 C 
HETATM    5  C11 UNL     1      15.461  67.984   4.164  1.00  0.00     0.004 C 
HETATM    6  C12 UNL     1      14.605  66.802   3.809  1.00  0.00     0.000 C 
HETATM    7  C13 UNL     1      15.105  65.629   4.599  1.00  0.00     0.004 C 
HETATM    8  C14 UNL     1      15.510  65.921   5.983  1.00  0.00     0.046 C 
ENDROOT
BRANCH   3   9
HETATM    9  N2  UNL     1      15.890  67.604   7.693  1.00  0.00    -0.333 N 
HETATM   10  C3  UNL     1      17.271  67.878   7.645  1.00  0.00     0.276 C 
HETATM   11  O1  UNL     1      17.899  67.827   6.573  1.00  0.00    -0.265 OA
ATOM     12  H2  UNL     1      15.422  67.663   8.598  1.00  0.00     0.164 HD
BRANCH  10  13
HETATM   13  C4  UNL     1      18.045  68.241   8.856  1.00  0.00     0.144 A 
HETATM   14  N3  UNL     1      17.669  68.187  10.115  1.00  0.00    -0.332 N 
HETATM   15  C5  UNL     1      18.502  68.554  11.059  1.00  0.00     0.115 A 
ATOM     16  H3  UNL     1      16.733  67.861  10.356  1.00  0.00     0.168 HD
HETATM   17  C6  UNL     1      19.741  68.980  10.663  1.00  0.00     0.029 A 
HETATM   18  N4  UNL     1      18.218  68.544  12.485  1.00  0.00    -0.375 N 
HETATM   19  S1  UNL     1      19.644  68.833   8.967  1.00  0.00    -0.068 SA
HETATM   20  C7  UNL     1      20.812  69.434  11.627  1.00  0.00     0.052 C 
HETATM   21  C8  UNL     1      20.579  68.584  12.874  1.00  0.00     0.025 C 
HETATM   22  C9  UNL     1      19.219  69.010  13.388  1.00  0.00     0.121 C 
ATOM     23  H4  UNL     1      17.319  68.210  12.834  1.00  0.00     0.161 HD
ENDBRANCH  10  13
ENDBRANCH   3   9
TORSDOF 2
ENDMDL
