MODEL 1
REMARK VINA RESULT: -8.303226170      0.000      0.000
REMARK  4 active torsions:
REMARK  status: ('A' for Active; 'I' for Inactive)
REMARK    1  A    between atoms: C5_5  and  O1_6 
REMARK    2  A    between atoms: C5_5  and  C6_8 
REMARK    3  A    between atoms: C8_10  and  C9_11 
REMARK    4  A    between atoms: C14_16  and  N1_17 
ROOT
HETATM    1  C6  UNL     1      15.097  66.715   5.652  1.00  0.00     0.069 A 
HETATM    2  C7  UNL     1      16.172  67.520   5.369  1.00  0.00     0.065 A 
HETATM    3  C8  UNL     1      16.698  67.941   6.568  1.00  0.00     0.084 A 
HETATM    4  O2  UNL     1      15.961  67.404   7.505  1.00  0.00    -0.242 OA
HETATM    5  N2  UNL     1      15.006  66.676   6.982  1.00  0.00    -0.262 N 
ATOM      6  H2  UNL     1      14.303  66.158   7.510  1.00  0.00     0.194 HD
ENDROOT
BRANCH   1   7
HETATM    7  C5  UNL     1      14.211  66.054   4.701  1.00  0.00     0.106 C 
HETATM    8  C4  UNL     1      12.762  66.027   5.173  1.00  0.00     0.081 C 
HETATM    9  C2  UNL     1      12.066  64.761   4.705  1.00  0.00     0.057 C 
HETATM   10  C1  UNL     1      10.615  65.140   4.444  1.00  0.00     0.045 C 
HETATM   11  C3  UNL     1      12.039  63.712   5.799  1.00  0.00     0.045 C 
HETATM   12  O3  UNL     1      12.569  64.264   3.534  1.00  0.00    -0.381 OA
HETATM   13  C16 UNL     1      13.894  63.949   3.520  1.00  0.00     0.172 C 
HETATM   14  C15 UNL     1      14.724  64.625   4.552  1.00  0.00     0.071 C 
BRANCH   7  15
HETATM   15  O1  UNL     1      14.178  66.642   3.451  1.00  0.00    -0.383 OA
ATOM     16  H1  UNL     1      14.530  67.516   3.574  1.00  0.00     0.211 HD
ENDBRANCH   7  15
ENDBRANCH   1   7
BRANCH   3  17
HETATM   17  C9  UNL     1      17.878  68.834   6.705  1.00  0.00     0.075 C 
HETATM   18  C10 UNL     1      18.748  68.942   5.524  1.00  0.00     0.013 C 
HETATM   19  C11 UNL     1      19.928  68.037   5.482  1.00  0.00     0.001 C 
HETATM   20  C12 UNL     1      20.683  68.179   6.819  1.00  0.00     0.002 C 
HETATM   21  C13 UNL     1      19.753  67.598   7.843  1.00  0.00     0.033 C 
HETATM   22  C14 UNL     1      18.569  68.493   8.010  1.00  0.00     0.194 C 
BRANCH  22  23
HETATM   23  N1  UNL     1      18.815  69.658   8.825  1.00  0.00    -0.074 N 
ATOM     24  H13 UNL     1      19.719  70.075   8.605  1.00  0.00     0.274 HD
ATOM     25  H12 UNL     1      18.207  70.430   8.553  1.00  0.00     0.274 HD
ATOM     26  H11 UNL     1      18.734  69.460   9.822  1.00  0.00     0.274 HD
ENDBRANCH  22  23
ENDBRANCH   3  17
TORSDOF 4
ENDMDL
MODEL 2
REMARK VINA RESULT: -7.912642045      3.927      6.900
REMARK  4 active torsions:
REMARK  status: ('A' for Active; 'I' for Inactive)
REMARK    1  A    between atoms: C5_5  and  O1_6 
REMARK    2  A    between atoms: C5_5  and  C6_8 
REMARK    3  A    between atoms: C8_10  and  C9_11 
REMARK    4  A    between atoms: C14_16  and  N1_17 
ROOT
HETATM    1  C6  UNL     1      17.253  68.833   6.931  1.00  0.00     0.069 A 
HETATM    2  C7  UNL     1      17.912  68.655   5.739  1.00  0.00     0.065 A 
HETATM    3  C8  UNL     1      16.961  68.576   4.750  1.00  0.00     0.084 A 
HETATM    4  O2  UNL     1      15.801  68.701   5.340  1.00  0.00    -0.242 OA
HETATM    5  N2  UNL     1      15.953  68.853   6.632  1.00  0.00    -0.262 N 
ATOM      6  H2  UNL     1      15.195  68.968   7.306  1.00  0.00     0.194 HD
ENDROOT
BRANCH   1   7
HETATM    7  C5  UNL     1      17.841  68.950   8.260  1.00  0.00     0.106 C 
HETATM    8  C4  UNL     1      19.114  69.787   8.265  1.00  0.00     0.081 C 
HETATM    9  C2  UNL     1      20.094  69.273   9.305  1.00  0.00     0.057 C 
HETATM   10  C1  UNL     1      20.837  70.491   9.835  1.00  0.00     0.045 C 
HETATM   11  C3  UNL     1      21.144  68.378   8.676  1.00  0.00     0.045 C 
HETATM   12  O3  UNL     1      19.488  68.673  10.375  1.00  0.00    -0.381 OA
HETATM   13  C16 UNL     1      18.685  67.607  10.107  1.00  0.00     0.172 C 
HETATM   14  C15 UNL     1      18.164  67.530   8.717  1.00  0.00     0.071 C 
BRANCH   7  15
HETATM   15  O1  UNL     1      17.013  69.535   9.199  1.00  0.00    -0.383 OA
ATOM     16  H1  UNL     1      17.512  69.539  10.008  1.00  0.00     0.211 HD
ENDBRANCH   7  15
ENDBRANCH   1   7
BRANCH   3  17
HETATM   17  C9  UNL     1      17.258  68.383   3.307  1.00  0.00     0.075 C 
HETATM   18  C10 UNL     1      18.654  68.064   2.972  1.00  0.00     0.013 C 
HETATM   19  C11 UNL     1      19.526  69.210   2.597  1.00  0.00     0.001 C 
HETATM   20  C12 UNL     1      18.800  70.022   1.507  1.00  0.00     0.002 C 
HETATM   21  C13 UNL     1      17.612  70.618   2.205  1.00  0.00     0.033 C 
HETATM   22  C14 UNL     1      16.639  69.538   2.547  1.00  0.00     0.194 C 
BRANCH  22  23
HETATM   23  N1  UNL     1      15.826  69.099   1.440  1.00  0.00    -0.074 N 
ATOM     24  H13 UNL     1      14.837  69.267   1.621  1.00  0.00     0.274 HD
ATOM     25  H12 UNL     1      15.950  69.705   0.630  1.00  0.00     0.274 HD
ATOM     26  H11 UNL     1      15.994  68.123   1.197  1.00  0.00     0.274 HD
ENDBRANCH  22  23
ENDBRANCH   3  17
TORSDOF 4
ENDMDL
MODEL 3
REMARK VINA RESULT: -7.793837477      2.703      7.682
REMARK  4 active torsions:
REMARK  status: ('A' for Active; 'I' for Inactive)
REMARK    1  A    between atoms: C5_5  and  O1_6 
REMARK    2  A    between atoms: C5_5  and  C6_8 
REMARK    3  A    between atoms: C8_10  and  C9_11 
REMARK    4  A    between atoms: C14_16  and  N1_17 
ROOT
HETATM    1  C6  UNL     1      18.244  68.502   7.464  1.00  0.00     0.069 A 
HETATM    2  C7  UNL     1      16.885  68.464   7.268  1.00  0.00     0.065 A 
HETATM    3  C8  UNL     1      16.669  68.166   5.943  1.00  0.00     0.084 A 
HETATM    4  O2  UNL     1      17.849  68.037   5.395  1.00  0.00    -0.242 OA
HETATM    5  N2  UNL     1      18.794  68.234   6.279  1.00  0.00    -0.262 N 
ATOM      6  H2  UNL     1      19.797  68.190   6.092  1.00  0.00     0.194 HD
ENDROOT
BRANCH   1   7
HETATM    7  C5  UNL     1      18.952  68.801   8.704  1.00  0.00     0.106 C 
HETATM    8  C4  UNL     1      19.943  69.948   8.549  1.00  0.00     0.081 C 
HETATM    9  C2  UNL     1      21.155  69.737   9.439  1.00  0.00     0.057 C 
HETATM   10  C1  UNL     1      21.609  71.121   9.883  1.00  0.00     0.045 C 
HETATM   11  C3  UNL     1      22.312  69.142   8.662  1.00  0.00     0.045 C 
HETATM   12  O3  UNL     1      20.881  69.021  10.572  1.00  0.00    -0.381 OA
HETATM   13  C16 UNL     1      20.364  67.774  10.399  1.00  0.00     0.172 C 
HETATM   14  C15 UNL     1      19.701  67.530   9.091  1.00  0.00     0.071 C 
BRANCH   7  15
HETATM   15  O1  UNL     1      18.131  69.165   9.754  1.00  0.00    -0.383 OA
ATOM     16  H1  UNL     1      17.266  68.848   9.520  1.00  0.00     0.211 HD
ENDBRANCH   7  15
ENDBRANCH   1   7
BRANCH   3  17
HETATM   17  C9  UNL     1      15.328  68.031   5.317  1.00  0.00     0.075 C 
HETATM   18  C10 UNL     1      14.260  67.505   6.182  1.00  0.00     0.013 C 
HETATM   19  C11 UNL     1      14.009  66.041   6.113  1.00  0.00     0.001 C 
HETATM   20  C12 UNL     1      13.845  65.657   4.629  1.00  0.00     0.002 C 
HETATM   21  C13 UNL     1      15.204  65.872   4.029  1.00  0.00     0.033 C 
HETATM   22  C14 UNL     1      15.507  67.333   3.984  1.00  0.00     0.194 C 
BRANCH  22  23
HETATM   23  N1  UNL     1      14.867  68.039   2.902  1.00  0.00    -0.074 N 
ATOM     24  H13 UNL     1      14.357  67.396   2.295  1.00  0.00     0.274 HD
ATOM     25  H12 UNL     1      14.085  68.599   3.240  1.00  0.00     0.274 HD
ATOM     26  H11 UNL     1      15.522  68.608   2.366  1.00  0.00     0.274 HD
ENDBRANCH  22  23
ENDBRANCH   3  17
TORSDOF 4
ENDMDL
MODEL 4
REMARK VINA RESULT: -7.742518598      1.952      7.142
REMARK  4 active torsions:
REMARK  status: ('A' for Active; 'I' for Inactive)
REMARK    1  A    between atoms: C5_5  and  O1_6 
REMARK    2  A    between atoms: C5_5  and  C6_8 
REMARK    3  A    between atoms: C8_10  and  C9_11 
REMARK    4  A    between atoms: C14_16  and  N1_17 
ROOT
HETATM    1  C6  UNL     1      15.527  67.347   5.449  1.00  0.00     0.069 A 
HETATM    2  C7  UNL     1      14.778  66.360   6.042  1.00  0.00     0.065 A 
HETATM    3  C8  UNL     1      14.043  65.751   5.053  1.00  0.00     0.084 A 
HETATM    4  O2  UNL     1      14.350  66.357   3.936  1.00  0.00    -0.242 OA
HETATM    5  N2  UNL     1      15.226  67.306   4.150  1.00  0.00    -0.262 N 
ATOM      6  H2  UNL     1      15.618  67.920   3.435  1.00  0.00     0.194 HD
ENDROOT
BRANCH   1   7
HETATM    7  C5  UNL     1      16.445  68.274   6.099  1.00  0.00     0.106 C 
HETATM    8  C4  UNL     1      17.607  68.675   5.199  1.00  0.00     0.081 C 
HETATM    9  C2  UNL     1      18.868  68.901   6.015  1.00  0.00     0.057 C 
HETATM   10  C1  UNL     1      19.638  70.014   5.317  1.00  0.00     0.045 C 
HETATM   11  C3  UNL     1      19.768  67.682   5.986  1.00  0.00     0.045 C 
HETATM   12  O3  UNL     1      18.622  69.323   7.293  1.00  0.00    -0.381 OA
HETATM   13  C16 UNL     1      17.855  68.510   8.070  1.00  0.00     0.172 C 
HETATM   14  C15 UNL     1      16.982  67.557   7.334  1.00  0.00     0.071 C 
BRANCH   7  15
HETATM   15  O1  UNL     1      15.865  69.463   6.499  1.00  0.00    -0.383 OA
ATOM     16  H1  UNL     1      15.386  69.256   7.293  1.00  0.00     0.211 HD
ENDBRANCH   7  15
ENDBRANCH   1   7
BRANCH   3  17
HETATM   17  C9  UNL     1      13.098  64.626   5.276  1.00  0.00     0.075 C 
HETATM   18  C10 UNL     1      13.040  63.610   4.214  1.00  0.00     0.013 C 
HETATM   19  C11 UNL     1      11.979  63.783   3.186  1.00  0.00     0.001 C 
HETATM   20  C12 UNL     1      10.638  63.987   3.917  1.00  0.00     0.002 C 
HETATM   21  C13 UNL     1      10.775  65.318   4.596  1.00  0.00     0.033 C 
HETATM   22  C14 UNL     1      11.769  65.214   5.706  1.00  0.00     0.194 C 
BRANCH  22  23
HETATM   23  N1  UNL     1      11.257  64.602   6.906  1.00  0.00    -0.074 N 
ATOM     24  H13 UNL     1      10.548  65.189   7.345  1.00  0.00     0.274 HD
ATOM     25  H12 UNL     1      10.683  63.788   6.687  1.00  0.00     0.274 HD
ATOM     26  H11 UNL     1      11.996  64.362   7.567  1.00  0.00     0.274 HD
ENDBRANCH  22  23
ENDBRANCH   3  17
TORSDOF 4
ENDMDL
MODEL 5
REMARK VINA RESULT: -7.714887408      1.836      3.080
REMARK  4 active torsions:
REMARK  status: ('A' for Active; 'I' for Inactive)
REMARK    1  A    between atoms: C5_5  and  O1_6 
REMARK    2  A    between atoms: C5_5  and  C6_8 
REMARK    3  A    between atoms: C8_10  and  C9_11 
REMARK    4  A    between atoms: C14_16  and  N1_17 
ROOT
HETATM    1  C6  UNL     1      16.619  67.424   6.981  1.00  0.00     0.069 A 
HETATM    2  C7  UNL     1      17.944  67.764   6.864  1.00  0.00     0.065 A 
HETATM    3  C8  UNL     1      18.512  67.638   8.110  1.00  0.00     0.084 A 
HETATM    4  O2  UNL     1      17.560  67.243   8.914  1.00  0.00    -0.242 OA
HETATM    5  N2  UNL     1      16.430  67.112   8.264  1.00  0.00    -0.262 N 
ATOM      6  H2  UNL     1      15.544  66.817   8.675  1.00  0.00     0.194 HD
ENDROOT
BRANCH   1   7
HETATM    7  C5  UNL     1      15.608  67.426   5.929  1.00  0.00     0.106 C 
HETATM    8  C4  UNL     1      14.730  66.181   5.960  1.00  0.00     0.081 C 
HETATM    9  C2  UNL     1      14.311  65.782   4.556  1.00  0.00     0.057 C 
HETATM   10  C1  UNL     1      12.914  65.188   4.676  1.00  0.00     0.045 C 
HETATM   11  C3  UNL     1      15.194  64.677   4.011  1.00  0.00     0.045 C 
HETATM   12  O3  UNL     1      14.226  66.839   3.692  1.00  0.00    -0.381 OA
HETATM   13  C16 UNL     1      15.356  67.578   3.513  1.00  0.00     0.172 C 
HETATM   14  C15 UNL     1      16.361  67.485   4.604  1.00  0.00     0.071 C 
BRANCH   7  15
HETATM   15  O1  UNL     1      14.732  68.493   5.985  1.00  0.00    -0.383 OA
ATOM     16  H1  UNL     1      13.914  68.133   6.310  1.00  0.00     0.211 HD
ENDBRANCH   7  15
ENDBRANCH   1   7
BRANCH   3  17
HETATM   17  C9  UNL     1      19.940  67.913   8.417  1.00  0.00     0.075 C 
HETATM   18  C10 UNL     1      20.305  67.916   9.842  1.00  0.00     0.013 C 
HETATM   19  C11 UNL     1      20.308  69.238  10.525  1.00  0.00     0.001 C 
HETATM   20  C12 UNL     1      21.146  70.211   9.671  1.00  0.00     0.002 C 
HETATM   21  C13 UNL     1      20.346  70.397   8.414  1.00  0.00     0.033 C 
HETATM   22  C14 UNL     1      20.359  69.132   7.621  1.00  0.00     0.194 C 
BRANCH  22  23
HETATM   23  N1  UNL     1      21.572  68.912   6.873  1.00  0.00    -0.074 N 
ATOM     24  H13 UNL     1      21.981  68.004   7.095  1.00  0.00     0.274 HD
ATOM     25  H12 UNL     1      21.372  68.764   5.884  1.00  0.00     0.274 HD
ATOM     26  H11 UNL     1      22.251  69.662   7.002  1.00  0.00     0.274 HD
ENDBRANCH  22  23
ENDBRANCH   3  17
TORSDOF 4
ENDMDL
