MODEL 1
REMARK VINA RESULT: -8.590993549      0.000      0.000
REMARK  3 active torsions:
REMARK  status: ('A' for Active; 'I' for Inactive)
REMARK    1  A    between atoms: C1_2  and  C2_4 
REMARK    2  A    between atoms: C3_5  and  C4_6 
REMARK    3  A    between atoms: C6_8  and  O3_9 
ROOT
HETATM    1  C4  UNL     1      16.295  68.296   5.271  1.00  0.00    -0.030 A 
HETATM    2  C5  UNL     1      15.624  68.859   6.379  1.00  0.00     0.051 A 
HETATM    3  C6  UNL     1      16.248  69.109   7.577  1.00  0.00     0.102 A 
HETATM    4  C7  UNL     1      17.587  68.801   7.710  1.00  0.00     0.139 A 
HETATM    5  C8  UNL     1      18.294  68.252   6.675  1.00  0.00     0.106 A 
HETATM    6  C9  UNL     1      17.611  68.013   5.469  1.00  0.00     0.051 A 
HETATM    7  O4  UNL     1      19.631  67.959   6.854  1.00  0.00    -0.343 OA
HETATM    8  C10 UNL     1      20.148  67.823   8.166  1.00  0.00     0.244 C 
HETATM    9  C11 UNL     1      19.672  69.008   9.019  1.00  0.00     0.192 C 
HETATM   10  C12 UNL     1      20.185  70.244   8.356  1.00  0.00     0.071 C 
HETATM   11  C13 UNL     1      21.562  70.651   8.814  1.00  0.00     0.007 C 
HETATM   12  C14 UNL     1      21.426  70.774  10.340  1.00  0.00     0.026 C 
HETATM   13  C15 UNL     1      21.098  69.388  10.823  1.00  0.00     0.171 C 
HETATM   14  O5  UNL     1      19.979  68.840  10.321  1.00  0.00    -0.353 OA
HETATM   15  O6  UNL     1      18.257  69.039   8.907  1.00  0.00    -0.306 OA
ENDROOT
BRANCH   1  16
HETATM   16  C3  UNL     1      15.541  68.018   4.097  1.00  0.00     0.018 C 
HETATM   17  C2  UNL     1      15.508  68.348   2.869  1.00  0.00     0.085 C 
BRANCH  17  18
HETATM   18  C1  UNL     1      16.255  69.211   2.040  1.00  0.00     0.198 C 
HETATM   19  O1  UNL     1      17.533  68.950   1.950  1.00  0.00    -0.645 OA
HETATM   20  O2  UNL     1      15.861  70.279   1.307  1.00  0.00    -0.645 OA
ENDBRANCH  17  18
ENDBRANCH   1  16
BRANCH   3  21
HETATM   21  O3  UNL     1      15.536  69.671   8.652  1.00  0.00    -0.358 OA
ATOM     22  H3  UNL     1      14.898  70.360   8.502  1.00  0.00     0.217 HD
ENDBRANCH   3  21
TORSDOF 3
ENDMDL
MODEL 2
REMARK VINA RESULT: -8.547704423      2.791      3.825
REMARK  3 active torsions:
REMARK  status: ('A' for Active; 'I' for Inactive)
REMARK    1  A    between atoms: C1_2  and  C2_4 
REMARK    2  A    between atoms: C3_5  and  C4_6 
REMARK    3  A    between atoms: C6_8  and  O3_9 
ROOT
HETATM    1  C4  UNL     1      14.886  66.636   5.709  1.00  0.00    -0.030 A 
HETATM    2  C5  UNL     1      15.576  67.048   4.547  1.00  0.00     0.051 A 
HETATM    3  C6  UNL     1      16.696  67.843   4.590  1.00  0.00     0.102 A 
HETATM    4  C7  UNL     1      17.172  68.259   5.817  1.00  0.00     0.139 A 
HETATM    5  C8  UNL     1      16.548  67.896   6.980  1.00  0.00     0.106 A 
HETATM    6  C9  UNL     1      15.405  67.082   6.884  1.00  0.00     0.051 A 
HETATM    7  O4  UNL     1      17.061  68.337   8.184  1.00  0.00    -0.343 OA
HETATM    8  C10 UNL     1      17.924  69.460   8.208  1.00  0.00     0.244 C 
HETATM    9  C11 UNL     1      18.998  69.292   7.123  1.00  0.00     0.192 C 
HETATM   10  C12 UNL     1      19.733  68.031   7.442  1.00  0.00     0.071 C 
HETATM   11  C13 UNL     1      20.904  68.230   8.371  1.00  0.00     0.007 C 
HETATM   12  C14 UNL     1      21.764  69.289   7.663  1.00  0.00     0.026 C 
HETATM   13  C15 UNL     1      20.911  70.528   7.617  1.00  0.00     0.171 C 
HETATM   14  O5  UNL     1      19.737  70.409   6.975  1.00  0.00    -0.353 OA
HETATM   15  O6  UNL     1      18.305  69.065   5.905  1.00  0.00    -0.306 OA
ENDROOT
BRANCH   1  16
HETATM   16  C3  UNL     1      13.700  65.866   5.550  1.00  0.00     0.018 C 
HETATM   17  C2  UNL     1      13.239  64.946   4.803  1.00  0.00     0.085 C 
BRANCH  17  18
HETATM   18  C1  UNL     1      13.721  64.211   3.699  1.00  0.00     0.198 C 
HETATM   19  O1  UNL     1      12.812  63.754   2.879  1.00  0.00    -0.645 OA
HETATM   20  O2  UNL     1      14.989  63.899   3.340  1.00  0.00    -0.645 OA
ENDBRANCH  17  18
ENDBRANCH   1  16
BRANCH   3  21
HETATM   21  O3  UNL     1      17.348  68.227   3.405  1.00  0.00    -0.358 OA
ATOM     22  H3  UNL     1      18.296  68.287   3.372  1.00  0.00     0.217 HD
ENDBRANCH   3  21
TORSDOF 3
ENDMDL
MODEL 3
REMARK VINA RESULT: -8.501730610      2.986      4.432
REMARK  3 active torsions:
REMARK  status: ('A' for Active; 'I' for Inactive)
REMARK    1  A    between atoms: C1_2  and  C2_4 
REMARK    2  A    between atoms: C3_5  and  C4_6 
REMARK    3  A    between atoms: C6_8  and  O3_9 
ROOT
HETATM    1  C4  UNL     1      14.639  66.129   4.826  1.00  0.00    -0.030 A 
HETATM    2  C5  UNL     1      15.280  66.916   3.845  1.00  0.00     0.051 A 
HETATM    3  C6  UNL     1      16.250  67.841   4.151  1.00  0.00     0.102 A 
HETATM    4  C7  UNL     1      16.618  68.010   5.472  1.00  0.00     0.139 A 
HETATM    5  C8  UNL     1      16.033  67.279   6.469  1.00  0.00     0.106 A 
HETATM    6  C9  UNL     1      15.045  66.347   6.106  1.00  0.00     0.051 A 
HETATM    7  O4  UNL     1      16.432  67.483   7.775  1.00  0.00    -0.343 OA
HETATM    8  C10 UNL     1      17.095  68.686   8.124  1.00  0.00     0.244 C 
HETATM    9  C11 UNL     1      18.210  68.959   7.105  1.00  0.00     0.192 C 
HETATM   10  C12 UNL     1      19.137  67.789   7.161  1.00  0.00     0.071 C 
HETATM   11  C13 UNL     1      20.233  67.932   8.186  1.00  0.00     0.007 C 
HETATM   12  C14 UNL     1      20.922  69.254   7.810  1.00  0.00     0.026 C 
HETATM   13  C15 UNL     1      19.876  70.317   8.006  1.00  0.00     0.171 C 
HETATM   14  O5  UNL     1      18.755  70.179   7.278  1.00  0.00    -0.353 OA
HETATM   15  O6  UNL     1      17.597  68.935   5.824  1.00  0.00    -0.306 OA
ENDROOT
BRANCH   1  16
HETATM   16  C3  UNL     1      13.603  65.247   4.409  1.00  0.00     0.018 C 
HETATM   17  C2  UNL     1      12.442  64.880   4.776  1.00  0.00     0.085 C 
BRANCH  17  18
HETATM   18  C1  UNL     1      11.581  65.192   5.849  1.00  0.00     0.198 C 
HETATM   19  O1  UNL     1      10.687  64.284   6.145  1.00  0.00    -0.645 OA
HETATM   20  O2  UNL     1      11.527  66.291   6.639  1.00  0.00    -0.645 OA
ENDBRANCH  17  18
ENDBRANCH   1  16
BRANCH   3  21
HETATM   21  O3  UNL     1      16.860  68.601   3.139  1.00  0.00    -0.358 OA
ATOM     22  H3  UNL     1      16.923  68.265   2.252  1.00  0.00     0.217 HD
ENDBRANCH   3  21
TORSDOF 3
ENDMDL
MODEL 4
REMARK VINA RESULT: -8.459925113      1.186      1.411
REMARK  3 active torsions:
REMARK  status: ('A' for Active; 'I' for Inactive)
REMARK    1  A    between atoms: C1_2  and  C2_4 
REMARK    2  A    between atoms: C3_5  and  C4_6 
REMARK    3  A    between atoms: C6_8  and  O3_9 
ROOT
HETATM    1  C4  UNL     1      16.210  68.132   4.666  1.00  0.00    -0.030 A 
HETATM    2  C5  UNL     1      15.601  67.659   5.850  1.00  0.00     0.051 A 
HETATM    3  C6  UNL     1      16.299  67.469   7.019  1.00  0.00     0.102 A 
HETATM    4  C7  UNL     1      17.650  67.750   7.043  1.00  0.00     0.139 A 
HETATM    5  C8  UNL     1      18.299  68.209   5.929  1.00  0.00     0.106 A 
HETATM    6  C9  UNL     1      17.543  68.387   4.757  1.00  0.00     0.051 A 
HETATM    7  O4  UNL     1      19.652  68.475   6.002  1.00  0.00    -0.343 OA
HETATM    8  C10 UNL     1      20.425  67.897   7.038  1.00  0.00     0.244 C 
HETATM    9  C11 UNL     1      19.701  68.097   8.377  1.00  0.00     0.192 C 
HETATM   10  C12 UNL     1      19.551  69.571   8.566  1.00  0.00     0.071 C 
HETATM   11  C13 UNL     1      20.721  70.215   9.264  1.00  0.00     0.007 C 
HETATM   12  C14 UNL     1      20.847  69.430  10.580  1.00  0.00     0.026 C 
HETATM   13  C15 UNL     1      21.187  68.022  10.171  1.00  0.00     0.171 C 
HETATM   14  O5  UNL     1      20.295  67.411   9.373  1.00  0.00    -0.353 OA
HETATM   15  O6  UNL     1      18.393  67.571   8.208  1.00  0.00    -0.306 OA
ENDROOT
BRANCH   1  16
HETATM   16  C3  UNL     1      15.411  68.233   3.493  1.00  0.00     0.018 C 
HETATM   17  C2  UNL     1      15.469  68.734   2.326  1.00  0.00     0.085 C 
BRANCH  17  18
HETATM   18  C1  UNL     1      16.418  69.482   1.599  1.00  0.00     0.198 C 
HETATM   19  O1  UNL     1      16.213  70.772   1.554  1.00  0.00    -0.645 OA
HETATM   20  O2  UNL     1      17.527  69.080   0.933  1.00  0.00    -0.645 OA
ENDBRANCH  17  18
ENDBRANCH   1  16
BRANCH   3  21
HETATM   21  O3  UNL     1      15.648  66.996   8.172  1.00  0.00    -0.358 OA
ATOM     22  H3  UNL     1      16.072  67.045   9.021  1.00  0.00     0.217 HD
ENDBRANCH   3  21
TORSDOF 3
ENDMDL
MODEL 5
REMARK VINA RESULT: -8.430574673      2.018      2.246
REMARK  3 active torsions:
REMARK  status: ('A' for Active; 'I' for Inactive)
REMARK    1  A    between atoms: C1_2  and  C2_4 
REMARK    2  A    between atoms: C3_5  and  C4_6 
REMARK    3  A    between atoms: C6_8  and  O3_9 
ROOT
HETATM    1  C4  UNL     1      16.337  68.113   5.526  1.00  0.00    -0.030 A 
HETATM    2  C5  UNL     1      15.682  68.789   6.579  1.00  0.00     0.051 A 
HETATM    3  C6  UNL     1      16.317  69.136   7.747  1.00  0.00     0.102 A 
HETATM    4  C7  UNL     1      17.650  68.814   7.904  1.00  0.00     0.139 A 
HETATM    5  C8  UNL     1      18.341  68.158   6.921  1.00  0.00     0.106 A 
HETATM    6  C9  UNL     1      17.647  67.822   5.745  1.00  0.00     0.051 A 
HETATM    7  O4  UNL     1      19.673  67.855   7.124  1.00  0.00    -0.343 OA
HETATM    8  C10 UNL     1      20.193  67.830   8.441  1.00  0.00     0.244 C 
HETATM    9  C11 UNL     1      19.746  69.098   9.182  1.00  0.00     0.192 C 
HETATM   10  C12 UNL     1      20.280  70.258   8.406  1.00  0.00     0.071 C 
HETATM   11  C13 UNL     1      21.667  70.677   8.819  1.00  0.00     0.007 C 
HETATM   12  C14 UNL     1      21.541  70.944  10.328  1.00  0.00     0.026 C 
HETATM   13  C15 UNL     1      21.188  69.614  10.938  1.00  0.00     0.171 C 
HETATM   14  O5  UNL     1      20.055  69.046  10.492  1.00  0.00    -0.353 OA
HETATM   15  O6  UNL     1      18.331  69.148   9.072  1.00  0.00    -0.306 OA
ENDROOT
BRANCH   1  16
HETATM   16  C3  UNL     1      15.571  67.743   4.385  1.00  0.00     0.018 C 
HETATM   17  C2  UNL     1      14.995  66.719   3.899  1.00  0.00     0.085 C 
BRANCH  17  18
HETATM   18  C1  UNL     1      14.841  65.372   4.291  1.00  0.00     0.198 C 
HETATM   19  O1  UNL     1      14.423  65.179   5.514  1.00  0.00    -0.645 OA
HETATM   20  O2  UNL     1      15.052  64.228   3.597  1.00  0.00    -0.645 OA
ENDBRANCH  17  18
ENDBRANCH   1  16
BRANCH   3  21
HETATM   21  O3  UNL     1      15.622  69.810   8.767  1.00  0.00    -0.358 OA
ATOM     22  H3  UNL     1      16.011  69.919   9.627  1.00  0.00     0.217 HD
ENDBRANCH   3  21
TORSDOF 3
ENDMDL
