MODEL 1
REMARK VINA RESULT: -7.828229012      0.000      0.000
REMARK  4 active torsions:
REMARK  status: ('A' for Active; 'I' for Inactive)
REMARK    1  A    between atoms: O1_2  and  C2_3 
REMARK    2  A    between atoms: C2_3  and  C3_5 
REMARK    3  A    between atoms: C4_6  and  N1_7 
REMARK       I    between atoms: N1_7  and  C5_9 
REMARK       I    between atoms: C5_9  and  N2_11 
REMARK    4  A    between atoms: N2_11  and  C6_13 
ROOT
HETATM    1  C3  UNL     1      16.490  68.041   4.743  1.00  0.00     0.107 A 
HETATM    2  C4  UNL     1      15.600  67.710   5.697  1.00  0.00     0.097 A 
HETATM    3  S1  UNL     1      16.585  67.912   7.164  1.00  0.00    -0.073 SA
HETATM    4  C9  UNL     1      18.034  68.381   6.455  1.00  0.00     0.019 A 
HETATM    5  C10 UNL     1      17.763  68.387   5.128  1.00  0.00     0.101 A 
HETATM    6  O4  UNL     1      18.897  68.765   4.337  1.00  0.00    -0.349 OA
HETATM    7  C11 UNL     1      20.198  68.298   4.665  1.00  0.00     0.176 C 
HETATM    8  C12 UNL     1      20.355  67.889   6.096  1.00  0.00     0.032 C 
HETATM    9  C13 UNL     1      19.427  68.766   6.908  1.00  0.00     0.051 C 
ENDROOT
BRANCH   2  10
HETATM   10  N1  UNL     1      14.322  67.093   5.760  1.00  0.00    -0.302 N 
HETATM   11  C5  UNL     1      13.965  65.807   5.504  1.00  0.00     0.321 C 
HETATM   12  O3  UNL     1      14.707  64.858   5.228  1.00  0.00    -0.247 OA
HETATM   13  N2  UNL     1      12.555  65.454   5.545  1.00  0.00    -0.339 N 
ATOM     14  H2  UNL     1      11.877  66.183   5.766  1.00  0.00     0.164 HD
ATOM     15  H1  UNL     1      13.558  67.706   6.040  1.00  0.00     0.171 HD
BRANCH  13  16
HETATM   16  C6  UNL     1      12.074  64.129   5.290  1.00  0.00     0.078 C 
HETATM   17  C7  UNL     1      10.689  63.994   5.864  1.00  0.00     0.032 C 
HETATM   18  C8  UNL     1      12.084  63.914   3.791  1.00  0.00     0.032 C 
ENDBRANCH  13  16
ENDBRANCH   2  10
BRANCH   1  19
HETATM   19  C2  UNL     1      16.045  68.301   3.316  1.00  0.00     0.298 C 
HETATM   20  O2  UNL     1      14.903  68.094   2.907  1.00  0.00    -0.259 OA
BRANCH  19  21
HETATM   21  O1  UNL     1      16.949  68.804   2.382  1.00  0.00    -0.322 OA
HETATM   22  C1  UNL     1      16.625  69.985   1.689  1.00  0.00     0.213 C 
ENDBRANCH  19  21
ENDBRANCH   1  19
TORSDOF 4
ENDMDL
MODEL 2
REMARK VINA RESULT: -7.410497765      3.555      6.623
REMARK  4 active torsions:
REMARK  status: ('A' for Active; 'I' for Inactive)
REMARK    1  A    between atoms: O1_2  and  C2_3 
REMARK    2  A    between atoms: C2_3  and  C3_5 
REMARK    3  A    between atoms: C4_6  and  N1_7 
REMARK       I    between atoms: N1_7  and  C5_9 
REMARK       I    between atoms: C5_9  and  N2_11 
REMARK    4  A    between atoms: N2_11  and  C6_13 
ROOT
HETATM    1  C3  UNL     1      17.863  68.483   6.502  1.00  0.00     0.107 A 
HETATM    2  C4  UNL     1      17.289  68.253   7.699  1.00  0.00     0.097 A 
HETATM    3  S1  UNL     1      15.800  67.415   7.205  1.00  0.00    -0.073 SA
HETATM    4  C9  UNL     1      16.016  67.437   5.539  1.00  0.00     0.019 A 
HETATM    5  C10 UNL     1      17.204  68.066   5.371  1.00  0.00     0.101 A 
HETATM    6  O4  UNL     1      17.570  68.188   3.990  1.00  0.00    -0.349 OA
HETATM    7  C11 UNL     1      16.596  68.509   3.008  1.00  0.00     0.176 C 
HETATM    8  C12 UNL     1      15.194  68.173   3.409  1.00  0.00     0.032 C 
HETATM    9  C13 UNL     1      15.272  66.960   4.309  1.00  0.00     0.051 C 
ENDROOT
BRANCH   2  10
HETATM   10  N1  UNL     1      17.468  68.686   9.039  1.00  0.00    -0.302 N 
HETATM   11  C5  UNL     1      18.354  68.264   9.978  1.00  0.00     0.321 C 
HETATM   12  O3  UNL     1      19.269  67.445   9.838  1.00  0.00    -0.247 OA
HETATM   13  N2  UNL     1      18.258  68.809  11.323  1.00  0.00    -0.339 N 
ATOM     14  H2  UNL     1      17.528  69.493  11.520  1.00  0.00     0.164 HD
ATOM     15  H1  UNL     1      16.835  69.426   9.343  1.00  0.00     0.171 HD
BRANCH  13  16
HETATM   16  C6  UNL     1      19.142  68.430  12.385  1.00  0.00     0.078 C 
HETATM   17  C7  UNL     1      20.301  69.391  12.421  1.00  0.00     0.032 C 
HETATM   18  C8  UNL     1      18.351  68.455  13.676  1.00  0.00     0.032 C 
ENDBRANCH  13  16
ENDBRANCH   2  10
BRANCH   1  19
HETATM   19  C2  UNL     1      19.309  68.929   6.403  1.00  0.00     0.298 C 
HETATM   20  O2  UNL     1      20.186  68.286   5.827  1.00  0.00    -0.259 OA
BRANCH  19  21
HETATM   21  O1  UNL     1      19.712  70.130   6.985  1.00  0.00    -0.322 OA
HETATM   22  C1  UNL     1      20.818  70.127   7.855  1.00  0.00     0.213 C 
ENDBRANCH  19  21
ENDBRANCH   1  19
TORSDOF 4
ENDMDL
MODEL 3
REMARK VINA RESULT: -7.352591316      3.483      7.044
REMARK  4 active torsions:
REMARK  status: ('A' for Active; 'I' for Inactive)
REMARK    1  A    between atoms: O1_2  and  C2_3 
REMARK    2  A    between atoms: C2_3  and  C3_5 
REMARK    3  A    between atoms: C4_6  and  N1_7 
REMARK       I    between atoms: N1_7  and  C5_9 
REMARK       I    between atoms: C5_9  and  N2_11 
REMARK    4  A    between atoms: N2_11  and  C6_13 
ROOT
HETATM    1  C3  UNL     1      18.607  69.157   5.407  1.00  0.00     0.107 A 
HETATM    2  C4  UNL     1      18.378  68.983   6.723  1.00  0.00     0.097 A 
HETATM    3  S1  UNL     1      16.898  67.998   6.681  1.00  0.00    -0.073 SA
HETATM    4  C9  UNL     1      16.685  67.898   5.017  1.00  0.00     0.019 A 
HETATM    5  C10 UNL     1      17.727  68.600   4.511  1.00  0.00     0.101 A 
HETATM    6  O4  UNL     1      17.721  68.636   3.078  1.00  0.00    -0.349 OA
HETATM    7  C11 UNL     1      16.505  68.800   2.362  1.00  0.00     0.176 C 
HETATM    8  C12 UNL     1      15.287  68.393   3.131  1.00  0.00     0.032 C 
HETATM    9  C13 UNL     1      15.703  67.267   4.051  1.00  0.00     0.051 C 
ENDROOT
BRANCH   2  10
HETATM   10  N1  UNL     1      18.846  69.537   7.943  1.00  0.00    -0.302 N 
HETATM   11  C5  UNL     1      20.038  69.368   8.574  1.00  0.00     0.321 C 
HETATM   12  O3  UNL     1      21.023  68.741   8.170  1.00  0.00    -0.247 OA
HETATM   13  N2  UNL     1      20.228  69.978   9.881  1.00  0.00    -0.339 N 
ATOM     14  H2  UNL     1      19.460  70.514  10.284  1.00  0.00     0.164 HD
ATOM     15  H1  UNL     1      18.189  70.156   8.419  1.00  0.00     0.171 HD
BRANCH  13  16
HETATM   16  C6  UNL     1      21.445  69.859  10.628  1.00  0.00     0.078 C 
HETATM   17  C7  UNL     1      22.188  71.166  10.559  1.00  0.00     0.032 C 
HETATM   18  C8  UNL     1      21.079  69.494  12.051  1.00  0.00     0.032 C 
ENDBRANCH  13  16
ENDBRANCH   2  10
BRANCH   1  19
HETATM   19  C2  UNL     1      19.933  69.702   4.912  1.00  0.00     0.298 C 
HETATM   20  O2  UNL     1      20.401  70.785   5.260  1.00  0.00    -0.259 OA
BRANCH  19  21
HETATM   21  O1  UNL     1      20.698  68.966   4.009  1.00  0.00    -0.322 OA
HETATM   22  C1  UNL     1      21.275  69.627   2.909  1.00  0.00     0.213 C 
ENDBRANCH  19  21
ENDBRANCH   1  19
TORSDOF 4
ENDMDL
MODEL 4
REMARK VINA RESULT: -7.326147099      3.376      6.782
REMARK  4 active torsions:
REMARK  status: ('A' for Active; 'I' for Inactive)
REMARK    1  A    between atoms: O1_2  and  C2_3 
REMARK    2  A    between atoms: C2_3  and  C3_5 
REMARK    3  A    between atoms: C4_6  and  N1_7 
REMARK       I    between atoms: N1_7  and  C5_9 
REMARK       I    between atoms: C5_9  and  N2_11 
REMARK    4  A    between atoms: N2_11  and  C6_13 
ROOT
HETATM    1  C3  UNL     1      18.407  68.996   5.583  1.00  0.00     0.107 A 
HETATM    2  C4  UNL     1      18.039  68.826   6.867  1.00  0.00     0.097 A 
HETATM    3  S1  UNL     1      16.512  67.936   6.666  1.00  0.00    -0.073 SA
HETATM    4  C9  UNL     1      16.458  67.865   4.989  1.00  0.00     0.019 A 
HETATM    5  C10 UNL     1      17.587  68.503   4.597  1.00  0.00     0.101 A 
HETATM    6  O4  UNL     1      17.724  68.551   3.171  1.00  0.00    -0.349 OA
HETATM    7  C11 UNL     1      16.597  68.798   2.342  1.00  0.00     0.176 C 
HETATM    8  C12 UNL     1      15.286  68.462   2.982  1.00  0.00     0.032 C 
HETATM    9  C13 UNL     1      15.539  67.305   3.922  1.00  0.00     0.051 C 
ENDROOT
BRANCH   2  10
HETATM   10  N1  UNL     1      18.419  69.339   8.135  1.00  0.00    -0.302 N 
HETATM   11  C5  UNL     1      19.289  68.837   9.050  1.00  0.00     0.321 C 
HETATM   12  O3  UNL     1      20.012  67.841   8.937  1.00  0.00    -0.247 OA
HETATM   13  N2  UNL     1      19.423  69.515  10.330  1.00  0.00    -0.339 N 
ATOM     14  H2  UNL     1      18.859  70.347  10.501  1.00  0.00     0.164 HD
ATOM     15  H1  UNL     1      17.971  70.216   8.399  1.00  0.00     0.171 HD
BRANCH  13  16
HETATM   16  C6  UNL     1      20.310  69.068  11.362  1.00  0.00     0.078 C 
HETATM   17  C7  UNL     1      21.549  69.923  11.344  1.00  0.00     0.032 C 
HETATM   18  C8  UNL     1      19.574  69.171  12.681  1.00  0.00     0.032 C 
ENDBRANCH  13  16
ENDBRANCH   2  10
BRANCH   1  19
HETATM   19  C2  UNL     1      19.807  69.459   5.227  1.00  0.00     0.298 C 
HETATM   20  O2  UNL     1      20.579  68.820   4.513  1.00  0.00    -0.259 OA
BRANCH  19  21
HETATM   21  O1  UNL     1      20.287  70.673   5.716  1.00  0.00    -0.322 OA
HETATM   22  C1  UNL     1      21.440  70.673   6.523  1.00  0.00     0.213 C 
ENDBRANCH  19  21
ENDBRANCH   1  19
TORSDOF 4
ENDMDL
MODEL 5
REMARK VINA RESULT: -7.284616985      1.007      1.074
REMARK  4 active torsions:
REMARK  status: ('A' for Active; 'I' for Inactive)
REMARK    1  A    between atoms: O1_2  and  C2_3 
REMARK    2  A    between atoms: C2_3  and  C3_5 
REMARK    3  A    between atoms: C4_6  and  N1_7 
REMARK       I    between atoms: N1_7  and  C5_9 
REMARK       I    between atoms: C5_9  and  N2_11 
REMARK    4  A    between atoms: N2_11  and  C6_13 
ROOT
HETATM    1  C3  UNL     1      17.109  68.419   4.388  1.00  0.00     0.107 A 
HETATM    2  C4  UNL     1      15.999  68.035   5.047  1.00  0.00     0.097 A 
HETATM    3  S1  UNL     1      16.537  68.192   6.735  1.00  0.00    -0.073 SA
HETATM    4  C9  UNL     1      18.112  68.714   6.470  1.00  0.00     0.019 A 
HETATM    5  C10 UNL     1      18.217  68.770   5.121  1.00  0.00     0.101 A 
HETATM    6  O4  UNL     1      19.514  69.199   4.688  1.00  0.00    -0.349 OA
HETATM    7  C11 UNL     1      20.686  68.740   5.345  1.00  0.00     0.176 C 
HETATM    8  C12 UNL     1      20.454  68.274   6.748  1.00  0.00     0.032 C 
HETATM    9  C13 UNL     1      19.316  69.101   7.304  1.00  0.00     0.051 C 
ENDROOT
BRANCH   2  10
HETATM   10  N1  UNL     1      14.771  67.396   4.733  1.00  0.00    -0.302 N 
HETATM   11  C5  UNL     1      14.404  66.096   4.886  1.00  0.00     0.321 C 
HETATM   12  O3  UNL     1      15.052  65.186   5.415  1.00  0.00    -0.247 OA
HETATM   13  N2  UNL     1      13.105  65.674   4.385  1.00  0.00    -0.339 N 
ATOM     14  H2  UNL     1      12.510  66.368   3.934  1.00  0.00     0.164 HD
ATOM     15  H1  UNL     1      14.056  68.003   4.333  1.00  0.00     0.171 HD
BRANCH  13  16
HETATM   16  C6  UNL     1      12.625  64.329   4.494  1.00  0.00     0.078 C 
HETATM   17  C7  UNL     1      11.133  64.360   4.694  1.00  0.00     0.032 C 
HETATM   18  C8  UNL     1      13.008  63.597   3.225  1.00  0.00     0.032 C 
ENDBRANCH  13  16
ENDBRANCH   2  10
BRANCH   1  19
HETATM   19  C2  UNL     1      17.066  68.732   2.904  1.00  0.00     0.298 C 
HETATM   20  O2  UNL     1      16.081  69.195   2.330  1.00  0.00    -0.259 OA
BRANCH  19  21
HETATM   21  O1  UNL     1      18.184  68.495   2.107  1.00  0.00    -0.322 OA
HETATM   22  C1  UNL     1      18.698  69.546   1.325  1.00  0.00     0.213 C 
ENDBRANCH  19  21
ENDBRANCH   1  19
TORSDOF 4
ENDMDL
