MODEL 1
REMARK VINA RESULT: -9.198624524      0.000      0.000
REMARK  3 active torsions:
REMARK  status: ('A' for Active; 'I' for Inactive)
REMARK    1  A    between atoms: C7_7  and  O1_8 
REMARK    2  A    between atoms: C11_13  and  C12_14 
REMARK    3  A    between atoms: C13_15  and  C14_16 
ROOT
HETATM    1  C14 UNL     1      14.593  21.564 -24.923  1.00  0.00     0.018 A 
HETATM    2  C15 UNL     1      13.892  20.722 -25.774  1.00  0.00     0.022 A 
HETATM    3  C16 UNL     1      12.708  21.082 -26.377  1.00  0.00     0.024 A 
HETATM    4  C17 UNL     1      12.194  22.335 -26.124  1.00  0.00     0.044 A 
HETATM    5  C18 UNL     1      10.950  22.772 -26.729  1.00  0.00     0.099 C 
HETATM    6  N1  UNL     1       9.969  23.127 -27.226  1.00  0.00    -0.191 NA
HETATM    7  C19 UNL     1      12.883  23.181 -25.278  1.00  0.00     0.024 A 
HETATM    8  C20 UNL     1      14.068  22.816 -24.677  1.00  0.00     0.022 A 
ENDROOT
BRANCH   1   9
HETATM    9  C13 UNL     1      15.831  21.157 -24.308  1.00  0.00    -0.061 C 
HETATM   10  C12 UNL     1      16.887  20.828 -23.795  1.00  0.00    -0.061 C 
BRANCH  10  11
HETATM   11  C11 UNL     1      18.142  20.464 -23.200  1.00  0.00     0.024 A 
HETATM   12  C2  UNL     1      18.688  21.184 -22.140  1.00  0.00    -0.042 A 
HETATM   13  C1  UNL     1      17.910  22.348 -21.655  1.00  0.00     0.049 C 
HETATM   14  C3  UNL     1      19.903  20.811 -21.584  1.00  0.00     0.020 A 
HETATM   15  C4  UNL     1      20.545  19.713 -22.110  1.00  0.00    -0.025 A 
HETATM   16  C5  UNL     1      21.751  19.326 -21.572  1.00  0.00     0.015 A 
HETATM   17  C9  UNL     1      20.037  18.978 -23.155  1.00  0.00    -0.022 A 
HETATM   18  C6  UNL     1      22.441  18.220 -22.070  1.00  0.00     0.037 A 
HETATM   19  C7  UNL     1      21.934  17.482 -23.118  1.00  0.00     0.066 A 
HETATM   20  C8  UNL     1      20.727  17.869 -23.656  1.00  0.00     0.048 A 
HETATM   21  C10 UNL     1      18.822  19.376 -23.689  1.00  0.00     0.033 A 
BRANCH  19  22
HETATM   22  O1  UNL     1      22.606  16.372 -23.632  1.00  0.00    -0.361 OA
ATOM     23  H1  UNL     1      23.097  16.414 -24.445  1.00  0.00     0.217 HD
ENDBRANCH  19  22
ENDBRANCH  10  11
ENDBRANCH   1   9
TORSDOF 3
ENDMDL
MODEL 2
REMARK VINA RESULT: -9.196600169      0.038      1.013
REMARK  3 active torsions:
REMARK  status: ('A' for Active; 'I' for Inactive)
REMARK    1  A    between atoms: C7_7  and  O1_8 
REMARK    2  A    between atoms: C11_13  and  C12_14 
REMARK    3  A    between atoms: C13_15  and  C14_16 
ROOT
HETATM    1  C14 UNL     1      14.594  21.547 -24.954  1.00  0.00     0.018 A 
HETATM    2  C15 UNL     1      14.049  22.803 -24.733  1.00  0.00     0.022 A 
HETATM    3  C16 UNL     1      12.869  23.220 -25.309  1.00  0.00     0.024 A 
HETATM    4  C17 UNL     1      12.200  22.352 -26.144  1.00  0.00     0.044 A 
HETATM    5  C18 UNL     1      10.954  22.733 -26.781  1.00  0.00     0.099 C 
HETATM    6  N1  UNL     1       9.952  23.029 -27.274  1.00  0.00    -0.191 NA
HETATM    7  C19 UNL     1      12.735  21.099 -26.371  1.00  0.00     0.024 A 
HETATM    8  C20 UNL     1      13.916  20.686 -25.792  1.00  0.00     0.022 A 
ENDROOT
BRANCH   1   9
HETATM    9  C13 UNL     1      15.831  21.141 -24.335  1.00  0.00    -0.061 C 
HETATM   10  C12 UNL     1      16.885  20.815 -23.819  1.00  0.00    -0.061 C 
BRANCH  10  11
HETATM   11  C11 UNL     1      18.138  20.453 -23.218  1.00  0.00     0.024 A 
HETATM   12  C2  UNL     1      18.679  21.175 -22.157  1.00  0.00    -0.042 A 
HETATM   13  C1  UNL     1      17.898  22.339 -21.676  1.00  0.00     0.049 C 
HETATM   14  C3  UNL     1      19.893  20.804 -21.595  1.00  0.00     0.020 A 
HETATM   15  C4  UNL     1      20.538  19.707 -22.117  1.00  0.00    -0.025 A 
HETATM   16  C5  UNL     1      21.743  19.322 -21.574  1.00  0.00     0.015 A 
HETATM   17  C9  UNL     1      20.035  18.970 -23.164  1.00  0.00    -0.022 A 
HETATM   18  C6  UNL     1      22.437  18.217 -22.068  1.00  0.00     0.037 A 
HETATM   19  C7  UNL     1      21.935  17.477 -23.117  1.00  0.00     0.066 A 
HETATM   20  C8  UNL     1      20.729  17.861 -23.661  1.00  0.00     0.048 A 
HETATM   21  C10 UNL     1      18.822  19.365 -23.703  1.00  0.00     0.033 A 
BRANCH  19  22
HETATM   22  O1  UNL     1      22.611  16.367 -23.627  1.00  0.00    -0.361 OA
ATOM     23  H1  UNL     1      23.296  16.453 -24.279  1.00  0.00     0.217 HD
ENDBRANCH  19  22
ENDBRANCH  10  11
ENDBRANCH   1   9
TORSDOF 3
ENDMDL
MODEL 3
REMARK VINA RESULT: -8.906080554      1.345      1.692
REMARK  3 active torsions:
REMARK  status: ('A' for Active; 'I' for Inactive)
REMARK    1  A    between atoms: C7_7  and  O1_8 
REMARK    2  A    between atoms: C11_13  and  C12_14 
REMARK    3  A    between atoms: C13_15  and  C14_16 
ROOT
HETATM    1  C14 UNL     1      14.377  21.662 -25.476  1.00  0.00     0.018 A 
HETATM    2  C15 UNL     1      14.254  23.040 -25.583  1.00  0.00     0.022 A 
HETATM    3  C16 UNL     1      13.300  23.647 -26.369  1.00  0.00     0.024 A 
HETATM    4  C17 UNL     1      12.429  22.852 -27.082  1.00  0.00     0.044 A 
HETATM    5  C18 UNL     1      11.404  23.433 -27.927  1.00  0.00     0.099 C 
HETATM    6  N1  UNL     1      10.574  23.896 -28.586  1.00  0.00    -0.191 NA
HETATM    7  C19 UNL     1      12.544  21.480 -26.982  1.00  0.00     0.024 A 
HETATM    8  C20 UNL     1      13.500  20.876 -26.195  1.00  0.00     0.022 A 
ENDROOT
BRANCH   1   9
HETATM    9  C13 UNL     1      15.387  21.057 -24.644  1.00  0.00    -0.061 C 
HETATM   10  C12 UNL     1      16.238  20.528 -23.951  1.00  0.00    -0.061 C 
BRANCH  10  11
HETATM   11  C11 UNL     1      17.241  19.884 -23.150  1.00  0.00     0.024 A 
HETATM   12  C2  UNL     1      17.143  19.822 -21.762  1.00  0.00    -0.042 A 
HETATM   13  C1  UNL     1      15.953  20.457 -21.149  1.00  0.00     0.049 C 
HETATM   14  C3  UNL     1      18.127  19.194 -21.011  1.00  0.00     0.020 A 
HETATM   15  C4  UNL     1      19.193  18.637 -21.679  1.00  0.00    -0.025 A 
HETATM   16  C5  UNL     1      20.179  18.008 -20.954  1.00  0.00     0.015 A 
HETATM   17  C9  UNL     1      19.323  18.677 -23.048  1.00  0.00    -0.022 A 
HETATM   18  C6  UNL     1      21.281  17.428 -21.584  1.00  0.00     0.037 A 
HETATM   19  C7  UNL     1      21.413  17.468 -22.956  1.00  0.00     0.066 A 
HETATM   20  C8  UNL     1      20.426  18.096 -23.682  1.00  0.00     0.048 A 
HETATM   21  C10 UNL     1      18.325  19.311 -23.769  1.00  0.00     0.033 A 
BRANCH  19  22
HETATM   22  O1  UNL     1      22.505  16.893 -23.608  1.00  0.00    -0.361 OA
ATOM     23  H1  UNL     1      22.596  15.953 -23.702  1.00  0.00     0.217 HD
ENDBRANCH  19  22
ENDBRANCH  10  11
ENDBRANCH   1   9
TORSDOF 3
ENDMDL
MODEL 4
REMARK VINA RESULT: -8.906049303      1.343      1.376
REMARK  3 active torsions:
REMARK  status: ('A' for Active; 'I' for Inactive)
REMARK    1  A    between atoms: C7_7  and  O1_8 
REMARK    2  A    between atoms: C11_13  and  C12_14 
REMARK    3  A    between atoms: C13_15  and  C14_16 
ROOT
HETATM    1  C14 UNL     1      14.362  21.659 -25.473  1.00  0.00     0.018 A 
HETATM    2  C15 UNL     1      13.469  20.890 -26.205  1.00  0.00     0.022 A 
HETATM    3  C16 UNL     1      12.488  21.437 -27.002  1.00  0.00     0.024 A 
HETATM    4  C17 UNL     1      12.387  22.809 -27.076  1.00  0.00     0.044 A 
HETATM    5  C18 UNL     1      11.374  23.444 -27.897  1.00  0.00     0.099 C 
HETATM    6  N1  UNL     1      10.579  23.951 -28.566  1.00  0.00    -0.191 NA
HETATM    7  C19 UNL     1      13.271  23.584 -26.350  1.00  0.00     0.024 A 
HETATM    8  C20 UNL     1      14.251  23.032 -25.554  1.00  0.00     0.022 A 
ENDROOT
BRANCH   1   9
HETATM    9  C13 UNL     1      15.379  21.056 -24.648  1.00  0.00    -0.061 C 
HETATM   10  C12 UNL     1      16.233  20.527 -23.958  1.00  0.00    -0.061 C 
BRANCH  10  11
HETATM   11  C11 UNL     1      17.235  19.882 -23.158  1.00  0.00     0.024 A 
HETATM   12  C2  UNL     1      17.134  19.815 -21.770  1.00  0.00    -0.042 A 
HETATM   13  C1  UNL     1      15.941  20.444 -21.157  1.00  0.00     0.049 C 
HETATM   14  C3  UNL     1      18.118  19.185 -21.020  1.00  0.00     0.020 A 
HETATM   15  C4  UNL     1      19.186  18.633 -21.688  1.00  0.00    -0.025 A 
HETATM   16  C5  UNL     1      20.173  18.004 -20.963  1.00  0.00     0.015 A 
HETATM   17  C9  UNL     1      19.319  18.680 -23.056  1.00  0.00    -0.022 A 
HETATM   18  C6  UNL     1      21.276  17.429 -21.593  1.00  0.00     0.037 A 
HETATM   19  C7  UNL     1      21.412  17.474 -22.964  1.00  0.00     0.066 A 
HETATM   20  C8  UNL     1      20.425  18.103 -23.691  1.00  0.00     0.048 A 
HETATM   21  C10 UNL     1      18.322  19.315 -23.777  1.00  0.00     0.033 A 
BRANCH  19  22
HETATM   22  O1  UNL     1      22.507  16.905 -23.617  1.00  0.00    -0.361 OA
ATOM     23  H1  UNL     1      23.365  17.313 -23.608  1.00  0.00     0.217 HD
ENDBRANCH  19  22
ENDBRANCH  10  11
ENDBRANCH   1   9
TORSDOF 3
ENDMDL
MODEL 5
REMARK VINA RESULT: -8.721704116      1.773      2.595
REMARK  3 active torsions:
REMARK  status: ('A' for Active; 'I' for Inactive)
REMARK    1  A    between atoms: C7_7  and  O1_8 
REMARK    2  A    between atoms: C11_13  and  C12_14 
REMARK    3  A    between atoms: C13_15  and  C14_16 
ROOT
HETATM    1  C14 UNL     1      15.151  22.147 -23.969  1.00  0.00     0.018 A 
HETATM    2  C15 UNL     1      14.475  21.942 -25.163  1.00  0.00     0.022 A 
HETATM    3  C16 UNL     1      13.335  22.635 -25.507  1.00  0.00     0.024 A 
HETATM    4  C17 UNL     1      12.843  23.573 -24.627  1.00  0.00     0.044 A 
HETATM    5  C18 UNL     1      11.647  24.334 -24.932  1.00  0.00     0.099 C 
HETATM    6  N1  UNL     1      10.704  24.954 -25.183  1.00  0.00    -0.191 NA
HETATM    7  C19 UNL     1      13.509  23.785 -23.435  1.00  0.00     0.024 A 
HETATM    8  C20 UNL     1      14.649  23.089 -23.095  1.00  0.00     0.022 A 
ENDROOT
BRANCH   1   9
HETATM    9  C13 UNL     1      16.342  21.406 -23.639  1.00  0.00    -0.061 C 
HETATM   10  C12 UNL     1      17.355  20.780 -23.379  1.00  0.00    -0.061 C 
BRANCH  10  11
HETATM   11  C11 UNL     1      18.558  20.048 -23.098  1.00  0.00     0.024 A 
HETATM   12  C2  UNL     1      18.892  18.890 -23.797  1.00  0.00    -0.042 A 
HETATM   13  C1  UNL     1      17.945  18.448 -24.846  1.00  0.00     0.049 C 
HETATM   14  C3  UNL     1      20.061  18.200 -23.504  1.00  0.00     0.020 A 
HETATM   15  C4  UNL     1      20.871  18.696 -22.508  1.00  0.00    -0.025 A 
HETATM   16  C5  UNL     1      22.035  18.028 -22.202  1.00  0.00     0.015 A 
HETATM   17  C9  UNL     1      20.574  19.835 -21.798  1.00  0.00    -0.022 A 
HETATM   18  C6  UNL     1      22.890  18.489 -21.201  1.00  0.00     0.037 A 
HETATM   19  C7  UNL     1      22.594  19.631 -20.488  1.00  0.00     0.066 A 
HETATM   20  C8  UNL     1      21.430  20.300 -20.794  1.00  0.00     0.048 A 
HETATM   21  C10 UNL     1      19.401  20.501 -22.113  1.00  0.00     0.033 A 
BRANCH  19  22
HETATM   22  O1  UNL     1      23.435  20.112 -19.483  1.00  0.00    -0.361 OA
ATOM     23  H1  UNL     1      23.425  21.022 -19.212  1.00  0.00     0.217 HD
ENDBRANCH  19  22
ENDBRANCH  10  11
ENDBRANCH   1   9
TORSDOF 3
ENDMDL
