MODEL 1
REMARK VINA RESULT: -8.885778066      0.000      0.000
REMARK  2 active torsions:
REMARK  status: ('A' for Active; 'I' for Inactive)
REMARK    1  A    between atoms: C7_7  and  N1_8 
REMARK    2  A    between atoms: N1_8  and  C8_10 
ROOT
HETATM    1  C1  UNL     1      20.303  15.977 -26.869  1.00  0.00     0.068 C 
HETATM    2  C2  UNL     1      20.120  16.899 -25.689  1.00  0.00     0.007 A 
HETATM    3  C3  UNL     1      21.020  16.889 -24.660  1.00  0.00     0.032 A 
HETATM    4  C4  UNL     1      20.926  17.718 -23.521  1.00  0.00    -0.044 A 
HETATM    5  C5  UNL     1      21.854  17.554 -22.425  1.00  0.00     0.049 C 
HETATM    6  C6  UNL     1      19.856  18.577 -23.481  1.00  0.00     0.041 A 
HETATM    7  C7  UNL     1      19.599  19.448 -22.388  1.00  0.00     0.056 A 
HETATM    8  C12 UNL     1      18.424  20.234 -22.429  1.00  0.00     0.018 A 
HETATM    9  C13 UNL     1      18.075  21.032 -21.362  1.00  0.00     0.016 A 
HETATM   10  C14 UNL     1      16.873  21.746 -21.425  1.00  0.00     0.002 A 
HETATM   11  C15 UNL     1      16.035  21.677 -22.506  1.00  0.00     0.009 A 
HETATM   12  C16 UNL     1      16.399  20.870 -23.557  1.00  0.00    -0.034 A 
HETATM   13  C17 UNL     1      15.539  20.745 -24.760  1.00  0.00     0.050 C 
HETATM   14  C18 UNL     1      17.587  20.154 -23.507  1.00  0.00     0.052 A 
HETATM   15  N2  UNL     1      17.860  19.338 -24.528  1.00  0.00    -0.341 N 
ATOM     16  H2  UNL     1      17.222  19.299 -25.323  1.00  0.00     0.167 HD
HETATM   17  C19 UNL     1      18.956  18.570 -24.527  1.00  0.00     0.119 A 
HETATM   18  N3  UNL     1      19.114  17.736 -25.595  1.00  0.00    -0.346 N 
ATOM     19  H3  UNL     1      18.426  17.764 -26.347  1.00  0.00     0.167 HD
ENDROOT
BRANCH   7  20
HETATM   20  N1  UNL     1      20.509  19.623 -21.556  1.00  0.00    -0.380 N 
ATOM     21  H1  UNL     1      20.463  18.769 -21.000  1.00  0.00     0.160 HD
BRANCH  20  22
HETATM   22  C8  UNL     1      21.530  20.303 -20.962  1.00  0.00     0.019 C 
HETATM   23  C9  UNL     1      21.162  21.257 -19.755  1.00  0.00     0.037 C 
HETATM   24  C10 UNL     1      22.671  19.535 -20.290  1.00  0.00     0.037 C 
HETATM   25  C11 UNL     1      22.179  21.309 -21.933  1.00  0.00     0.037 C 
ENDBRANCH  20  22
ENDBRANCH   7  20
TORSDOF 2
ENDMDL
MODEL 2
REMARK VINA RESULT: -7.731517699      1.307      4.453
REMARK  2 active torsions:
REMARK  status: ('A' for Active; 'I' for Inactive)
REMARK    1  A    between atoms: C7_7  and  N1_8 
REMARK    2  A    between atoms: N1_8  and  C8_10 
ROOT
HETATM    1  C1  UNL     1      20.241  16.111 -26.286  1.00  0.00     0.068 C 
HETATM    2  C2  UNL     1      19.904  17.186 -25.283  1.00  0.00     0.007 A 
HETATM    3  C3  UNL     1      18.737  17.890 -25.392  1.00  0.00     0.032 A 
HETATM    4  C4  UNL     1      18.344  18.909 -24.499  1.00  0.00    -0.044 A 
HETATM    5  C5  UNL     1      17.151  19.685 -24.761  1.00  0.00     0.049 C 
HETATM    6  C6  UNL     1      19.207  19.179 -23.467  1.00  0.00     0.041 A 
HETATM    7  C7  UNL     1      18.973  20.200 -22.506  1.00  0.00     0.056 A 
HETATM    8  C12 UNL     1      19.972  20.434 -21.531  1.00  0.00     0.018 A 
HETATM    9  C13 UNL     1      19.845  21.465 -20.627  1.00  0.00     0.016 A 
HETATM   10  C14 UNL     1      20.885  21.693 -19.720  1.00  0.00     0.002 A 
HETATM   11  C15 UNL     1      22.022  20.930 -19.703  1.00  0.00     0.009 A 
HETATM   12  C16 UNL     1      22.132  19.910 -20.617  1.00  0.00    -0.034 A 
HETATM   13  C17 UNL     1      23.337  19.043 -20.656  1.00  0.00     0.050 C 
HETATM   14  C18 UNL     1      21.108  19.673 -21.524  1.00  0.00     0.052 A 
HETATM   15  N2  UNL     1      21.295  18.710 -22.430  1.00  0.00    -0.341 N 
ATOM     16  H2  UNL     1      22.150  18.154 -22.400  1.00  0.00     0.167 HD
HETATM   17  C19 UNL     1      20.382  18.462 -23.375  1.00  0.00     0.119 A 
HETATM   18  N3  UNL     1      20.693  17.491 -24.281  1.00  0.00    -0.346 N 
ATOM     19  H3  UNL     1      21.572  16.983 -24.175  1.00  0.00     0.167 HD
ENDROOT
BRANCH   7  20
HETATM   20  N1  UNL     1      17.832  20.695 -22.446  1.00  0.00    -0.380 N 
ATOM     21  H1  UNL     1      17.353  20.232 -23.218  1.00  0.00     0.160 HD
BRANCH  20  22
HETATM   22  C8  UNL     1      16.858  21.503 -21.939  1.00  0.00     0.019 C 
HETATM   23  C9  UNL     1      17.298  22.925 -21.407  1.00  0.00     0.037 C 
HETATM   24  C10 UNL     1      15.698  21.954 -22.830  1.00  0.00     0.037 C 
HETATM   25  C11 UNL     1      16.234  20.902 -20.663  1.00  0.00     0.037 C 
ENDBRANCH  20  22
ENDBRANCH   7  20
TORSDOF 2
ENDMDL
MODEL 3
REMARK VINA RESULT: -6.728492789      1.078      4.526
REMARK  2 active torsions:
REMARK  status: ('A' for Active; 'I' for Inactive)
REMARK    1  A    between atoms: C7_7  and  N1_8 
REMARK    2  A    between atoms: N1_8  and  C8_10 
ROOT
HETATM    1  C1  UNL     1      14.220  20.446 -25.355  1.00  0.00     0.068 C 
HETATM    2  C2  UNL     1      15.556  20.299 -24.671  1.00  0.00     0.007 A 
HETATM    3  C3  UNL     1      15.923  21.164 -23.678  1.00  0.00     0.032 A 
HETATM    4  C4  UNL     1      17.151  21.097 -22.987  1.00  0.00    -0.044 A 
HETATM    5  C5  UNL     1      17.507  22.126 -22.036  1.00  0.00     0.049 C 
HETATM    6  C6  UNL     1      18.002  20.085 -23.356  1.00  0.00     0.041 A 
HETATM    7  C7  UNL     1      19.290  19.905 -22.782  1.00  0.00     0.056 A 
HETATM    8  C12 UNL     1      20.107  18.871 -23.298  1.00  0.00     0.018 A 
HETATM    9  C13 UNL     1      21.396  18.701 -22.844  1.00  0.00     0.016 A 
HETATM   10  C14 UNL     1      22.184  17.702 -23.425  1.00  0.00     0.002 A 
HETATM   11  C15 UNL     1      21.719  16.892 -24.427  1.00  0.00     0.009 A 
HETATM   12  C16 UNL     1      20.431  17.081 -24.869  1.00  0.00    -0.034 A 
HETATM   13  C17 UNL     1      19.862  16.241 -25.952  1.00  0.00     0.050 C 
HETATM   14  C18 UNL     1      19.639  18.071 -24.303  1.00  0.00     0.052 A 
HETATM   15  N2  UNL     1      18.418  18.252 -24.813  1.00  0.00    -0.341 N 
ATOM     16  H2  UNL     1      18.092  17.639 -25.560  1.00  0.00     0.167 HD
HETATM   17  C19 UNL     1      17.617  19.224 -24.363  1.00  0.00     0.119 A 
HETATM   18  N3  UNL     1      16.411  19.355 -24.987  1.00  0.00    -0.346 N 
ATOM     19  H3  UNL     1      16.165  18.696 -25.725  1.00  0.00     0.167 HD
ENDROOT
BRANCH   7  20
HETATM   20  N1  UNL     1      19.555  20.526 -21.736  1.00  0.00    -0.380 N 
ATOM     21  H1  UNL     1      18.709  20.391 -21.182  1.00  0.00     0.160 HD
BRANCH  20  22
HETATM   22  C8  UNL     1      20.329  21.284 -20.908  1.00  0.00     0.019 C 
HETATM   23  C9  UNL     1      19.584  22.250 -19.901  1.00  0.00     0.037 C 
HETATM   24  C10 UNL     1      21.265  20.606 -19.905  1.00  0.00     0.037 C 
HETATM   25  C11 UNL     1      21.179  22.297 -21.699  1.00  0.00     0.037 C 
ENDBRANCH  20  22
ENDBRANCH   7  20
TORSDOF 2
ENDMDL
MODEL 4
REMARK VINA RESULT: -6.154594278      1.594      4.102
REMARK  2 active torsions:
REMARK  status: ('A' for Active; 'I' for Inactive)
REMARK    1  A    between atoms: C7_7  and  N1_8 
REMARK    2  A    between atoms: N1_8  and  C8_10 
ROOT
HETATM    1  C1  UNL     1      14.497  20.052 -25.326  1.00  0.00     0.068 C 
HETATM    2  C2  UNL     1      15.841  19.941 -24.650  1.00  0.00     0.007 A 
HETATM    3  C3  UNL     1      16.690  18.917 -24.966  1.00  0.00     0.032 A 
HETATM    4  C4  UNL     1      17.962  18.739 -24.383  1.00  0.00    -0.044 A 
HETATM    5  C5  UNL     1      18.743  17.561 -24.687  1.00  0.00     0.049 C 
HETATM    6  C6  UNL     1      18.340  19.672 -23.450  1.00  0.00     0.041 A 
HETATM    7  C7  UNL     1      19.573  19.613 -22.747  1.00  0.00     0.056 A 
HETATM    8  C12 UNL     1      19.819  20.592 -21.755  1.00  0.00     0.018 A 
HETATM    9  C13 UNL     1      20.955  20.537 -20.979  1.00  0.00     0.016 A 
HETATM   10  C14 UNL     1      21.126  21.493 -19.972  1.00  0.00     0.002 A 
HETATM   11  C15 UNL     1      20.203  22.477 -19.732  1.00  0.00     0.009 A 
HETATM   12  C16 UNL     1      19.073  22.510 -20.513  1.00  0.00    -0.034 A 
HETATM   13  C17 UNL     1      18.030  23.546 -20.308  1.00  0.00     0.050 C 
HETATM   14  C18 UNL     1      18.890  21.566 -21.514  1.00  0.00     0.052 A 
HETATM   15  N2  UNL     1      17.745  21.607 -22.201  1.00  0.00    -0.341 N 
ATOM     16  H2  UNL     1      17.071  22.347 -22.006  1.00  0.00     0.167 HD
HETATM   17  C19 UNL     1      17.468  20.697 -23.141  1.00  0.00     0.119 A 
HETATM   18  N3  UNL     1      16.251  20.800 -23.747  1.00  0.00    -0.346 N 
ATOM     19  H3  UNL     1      15.638  21.573 -23.490  1.00  0.00     0.167 HD
ENDROOT
BRANCH   7  20
HETATM   20  N1  UNL     1      20.449  18.836 -23.169  1.00  0.00    -0.380 N 
ATOM     21  H1  UNL     1      20.243  18.796 -24.168  1.00  0.00     0.160 HD
BRANCH  20  22
HETATM   22  C8  UNL     1      21.527  18.007 -23.061  1.00  0.00     0.019 C 
HETATM   23  C9  UNL     1      21.847  17.069 -24.293  1.00  0.00     0.037 C 
HETATM   24  C10 UNL     1      22.927  18.596 -22.867  1.00  0.00     0.037 C 
HETATM   25  C11 UNL     1      21.325  16.960 -21.949  1.00  0.00     0.037 C 
ENDBRANCH  20  22
ENDBRANCH   7  20
TORSDOF 2
ENDMDL
MODEL 5
REMARK VINA RESULT: -6.135665370      1.631      4.524
REMARK  2 active torsions:
REMARK  status: ('A' for Active; 'I' for Inactive)
REMARK    1  A    between atoms: C7_7  and  N1_8 
REMARK    2  A    between atoms: N1_8  and  C8_10 
ROOT
HETATM    1  C1  UNL     1      22.677  16.352 -23.132  1.00  0.00     0.068 C 
HETATM    2  C2  UNL     1      21.539  17.341 -23.089  1.00  0.00     0.007 A 
HETATM    3  C3  UNL     1      20.523  17.266 -24.001  1.00  0.00     0.032 A 
HETATM    4  C4  UNL     1      19.423  18.149 -24.031  1.00  0.00    -0.044 A 
HETATM    5  C5  UNL     1      18.458  18.071 -25.105  1.00  0.00     0.049 C 
HETATM    6  C6  UNL     1      19.402  19.127 -23.068  1.00  0.00     0.041 A 
HETATM    7  C7  UNL     1      18.383  20.114 -22.987  1.00  0.00     0.056 A 
HETATM    8  C12 UNL     1      18.508  21.116 -21.995  1.00  0.00     0.018 A 
HETATM    9  C13 UNL     1      17.601  22.150 -21.921  1.00  0.00     0.016 A 
HETATM   10  C14 UNL     1      17.800  23.148 -20.961  1.00  0.00     0.002 A 
HETATM   11  C15 UNL     1      18.863  23.132 -20.097  1.00  0.00     0.009 A 
HETATM   12  C16 UNL     1      19.760  22.095 -20.192  1.00  0.00    -0.034 A 
HETATM   13  C17 UNL     1      20.935  22.015 -19.289  1.00  0.00     0.050 C 
HETATM   14  C18 UNL     1      19.576  21.099 -21.141  1.00  0.00     0.052 A 
HETATM   15  N2  UNL     1      20.511  20.150 -21.230  1.00  0.00    -0.341 N 
ATOM     16  H2  UNL     1      21.296  20.158 -20.578  1.00  0.00     0.167 HD
HETATM   17  C19 UNL     1      20.437  19.190 -22.159  1.00  0.00     0.119 A 
HETATM   18  N3  UNL     1      21.470  18.300 -22.196  1.00  0.00    -0.346 N 
ATOM     19  H3  UNL     1      22.214  18.382 -21.503  1.00  0.00     0.167 HD
ENDROOT
BRANCH   7  20
HETATM   20  N1  UNL     1      17.344  19.937 -23.650  1.00  0.00    -0.380 N 
ATOM     21  H1  UNL     1      17.710  19.625 -24.549  1.00  0.00     0.160 HD
BRANCH  20  22
HETATM   22  C8  UNL     1      15.997  19.923 -23.861  1.00  0.00     0.019 C 
HETATM   23  C9  UNL     1      15.353  21.205 -24.527  1.00  0.00     0.037 C 
HETATM   24  C10 UNL     1      15.379  18.867 -24.782  1.00  0.00     0.037 C 
HETATM   25  C11 UNL     1      15.217  19.869 -22.533  1.00  0.00     0.037 C 
ENDBRANCH  20  22
ENDBRANCH   7  20
TORSDOF 2
ENDMDL
