MODEL 1
REMARK VINA RESULT: -11.667487771      0.000      0.000
REMARK  0 active torsions:
REMARK  status: ('A' for Active; 'I' for Inactive)
ROOT
HETATM    1  O1  UNL     1      20.300  16.005 -26.186  1.00  0.00    -0.267 OA
HETATM    2  C1  UNL     1      20.159  16.920 -25.332  1.00  0.00     0.262 A 
HETATM    3  C2  UNL     1      19.109  17.793 -25.185  1.00  0.00     0.108 A 
HETATM    4  C3  UNL     1      19.415  18.598 -24.121  1.00  0.00     0.073 A 
HETATM    5  N1  UNL     1      20.621  18.221 -23.636  1.00  0.00    -0.252 N 
HETATM    6  N2  UNL     1      21.057  17.210 -24.374  1.00  0.00    -0.259 N 
ATOM      7  H2  UNL     1      21.943  16.723 -24.235  1.00  0.00     0.191 HD
HETATM    8  C4  UNL     1      21.191  18.880 -22.531  1.00  0.00     0.068 A 
HETATM    9  C5  UNL     1      22.425  18.470 -22.058  1.00  0.00     0.032 A 
HETATM   10  C6  UNL     1      23.006  19.098 -20.978  1.00  0.00     0.002 A 
HETATM   11  C7  UNL     1      22.307  20.135 -20.404  1.00  0.00     0.001 A 
HETATM   12  C8  UNL     1      21.073  20.564 -20.856  1.00  0.00     0.014 A 
HETATM   13  C9  UNL     1      20.517  19.924 -21.929  1.00  0.00     0.004 A 
HETATM   14  C10 UNL     1      19.223  20.359 -22.419  1.00  0.00    -0.010 A 
HETATM   15  C11 UNL     1      18.514  21.379 -21.869  1.00  0.00     0.025 A 
HETATM   16  C12 UNL     1      17.266  21.743 -22.400  1.00  0.00    -0.025 A 
HETATM   17  C13 UNL     1      16.604  22.788 -21.791  1.00  0.00     0.012 A 
HETATM   18  C14 UNL     1      15.359  23.207 -22.260  1.00  0.00     0.001 A 
HETATM   19  C15 UNL     1      14.844  22.531 -23.341  1.00  0.00     0.001 A 
HETATM   20  C16 UNL     1      15.492  21.487 -23.962  1.00  0.00     0.012 A 
HETATM   21  C17 UNL     1      16.732  21.082 -23.481  1.00  0.00    -0.025 A 
HETATM   22  C18 UNL     1      17.440  20.055 -24.038  1.00  0.00     0.027 A 
HETATM   23  C19 UNL     1      18.666  19.696 -23.518  1.00  0.00     0.005 A 
ENDROOT
TORSDOF 0
ENDMDL
MODEL 2
REMARK VINA RESULT: -11.251581067      1.956      3.764
REMARK  0 active torsions:
REMARK  status: ('A' for Active; 'I' for Inactive)
ROOT
HETATM    1  O1  UNL     1      23.319  19.777 -19.667  1.00  0.00    -0.267 OA
HETATM    2  C1  UNL     1      22.390  19.667 -20.511  1.00  0.00     0.262 A 
HETATM    3  C2  UNL     1      21.234  20.402 -20.606  1.00  0.00     0.108 A 
HETATM    4  C3  UNL     1      20.545  19.912 -21.682  1.00  0.00     0.073 A 
HETATM    5  N1  UNL     1      21.268  18.905 -22.226  1.00  0.00    -0.252 N 
HETATM    6  N2  UNL     1      22.376  18.769 -21.512  1.00  0.00    -0.259 N 
ATOM      7  H2  UNL     1      23.109  18.083 -21.694  1.00  0.00     0.191 HD
HETATM    8  C4  UNL     1      20.798  18.211 -23.356  1.00  0.00     0.068 A 
HETATM    9  C5  UNL     1      21.560  17.187 -23.889  1.00  0.00     0.032 A 
HETATM   10  C6  UNL     1      21.124  16.491 -24.996  1.00  0.00     0.002 A 
HETATM   11  C7  UNL     1      19.912  16.861 -25.533  1.00  0.00     0.001 A 
HETATM   12  C8  UNL     1      19.132  17.880 -25.021  1.00  0.00     0.014 A 
HETATM   13  C9  UNL     1      19.587  18.557 -23.922  1.00  0.00     0.004 A 
HETATM   14  C10 UNL     1      18.782  19.630 -23.370  1.00  0.00    -0.010 A 
HETATM   15  C11 UNL     1      17.585  20.013 -23.883  1.00  0.00     0.025 A 
HETATM   16  C12 UNL     1      16.863  21.063 -23.292  1.00  0.00    -0.025 A 
HETATM   17  C13 UNL     1      15.655  21.397 -23.866  1.00  0.00     0.012 A 
HETATM   18  C14 UNL     1      14.880  22.430 -23.336  1.00  0.00     0.001 A 
HETATM   19  C15 UNL     1      15.382  23.077 -22.232  1.00  0.00     0.001 A 
HETATM   20  C16 UNL     1      16.586  22.756 -21.645  1.00  0.00     0.012 A 
HETATM   21  C17 UNL     1      17.345  21.724 -22.187  1.00  0.00    -0.025 A 
HETATM   22  C18 UNL     1      18.549  21.343 -21.666  1.00  0.00     0.027 A 
HETATM   23  C19 UNL     1      19.260  20.313 -22.246  1.00  0.00     0.005 A 
ENDROOT
TORSDOF 0
ENDMDL
MODEL 3
REMARK VINA RESULT: -10.652485000      2.268      3.908
REMARK  0 active torsions:
REMARK  status: ('A' for Active; 'I' for Inactive)
ROOT
HETATM    1  O1  UNL     1      22.052  20.884 -19.370  1.00  0.00    -0.267 OA
HETATM    2  C1  UNL     1      21.236  20.637 -20.298  1.00  0.00     0.262 A 
HETATM    3  C2  UNL     1      20.071  21.296 -20.604  1.00  0.00     0.108 A 
HETATM    4  C3  UNL     1      19.535  20.659 -21.691  1.00  0.00     0.073 A 
HETATM    5  N1  UNL     1      20.357  19.639 -22.034  1.00  0.00    -0.252 N 
HETATM    6  N2  UNL     1      21.377  19.638 -21.187  1.00  0.00    -0.259 N 
ATOM      7  H2  UNL     1      22.153  18.977 -21.207  1.00  0.00     0.191 HD
HETATM    8  C4  UNL     1      20.053  18.806 -23.125  1.00  0.00     0.068 A 
HETATM    9  C5  UNL     1      20.913  17.773 -23.451  1.00  0.00     0.032 A 
HETATM   10  C6  UNL     1      20.640  16.942 -24.516  1.00  0.00     0.002 A 
HETATM   11  C7  UNL     1      19.487  17.189 -25.226  1.00  0.00     0.001 A 
HETATM   12  C8  UNL     1      18.611  18.214 -24.922  1.00  0.00     0.014 A 
HETATM   13  C9  UNL     1      18.905  19.026 -23.861  1.00  0.00     0.004 A 
HETATM   14  C10 UNL     1      17.998  20.108 -23.526  1.00  0.00    -0.010 A 
HETATM   15  C11 UNL     1      16.856  20.371 -24.212  1.00  0.00     0.025 A 
HETATM   16  C12 UNL     1      16.028  21.438 -23.827  1.00  0.00    -0.025 A 
HETATM   17  C13 UNL     1      14.884  21.646 -24.569  1.00  0.00     0.012 A 
HETATM   18  C14 UNL     1      14.012  22.687 -24.249  1.00  0.00     0.001 A 
HETATM   19  C15 UNL     1      14.353  23.473 -23.174  1.00  0.00     0.001 A 
HETATM   20  C16 UNL     1      15.490  23.279 -22.422  1.00  0.00     0.012 A 
HETATM   21  C17 UNL     1      16.349  22.237 -22.756  1.00  0.00    -0.025 A 
HETATM   22  C18 UNL     1      17.496  21.977 -22.062  1.00  0.00     0.027 A 
HETATM   23  C19 UNL     1      18.311  20.930 -22.439  1.00  0.00     0.005 A 
ENDROOT
TORSDOF 0
ENDMDL
MODEL 4
REMARK VINA RESULT: -9.765471488      1.248      2.182
REMARK  0 active torsions:
REMARK  status: ('A' for Active; 'I' for Inactive)
ROOT
HETATM    1  O1  UNL     1      19.817  16.776 -25.183  1.00  0.00    -0.267 OA
HETATM    2  C1  UNL     1      19.384  17.794 -24.581  1.00  0.00     0.262 A 
HETATM    3  C2  UNL     1      18.235  18.504 -24.827  1.00  0.00     0.108 A 
HETATM    4  C3  UNL     1      18.199  19.522 -23.911  1.00  0.00     0.073 A 
HETATM    5  N1  UNL     1      19.301  19.428 -23.130  1.00  0.00    -0.252 N 
HETATM    6  N2  UNL     1      20.004  18.384 -23.543  1.00  0.00    -0.259 N 
ATOM      7  H2  UNL     1      20.886  18.073 -23.135  1.00  0.00     0.191 HD
HETATM    8  C4  UNL     1      19.528  20.352 -22.094  1.00  0.00     0.068 A 
HETATM    9  C5  UNL     1      20.663  20.230 -21.312  1.00  0.00     0.032 A 
HETATM   10  C6  UNL     1      20.910  21.120 -20.290  1.00  0.00     0.002 A 
HETATM   11  C7  UNL     1      19.986  22.120 -20.091  1.00  0.00     0.001 A 
HETATM   12  C8  UNL     1      18.845  22.265 -20.857  1.00  0.00     0.014 A 
HETATM   13  C9  UNL     1      18.621  21.368 -21.865  1.00  0.00     0.004 A 
HETATM   14  C10 UNL     1      17.429  21.502 -22.680  1.00  0.00    -0.010 A 
HETATM   15  C11 UNL     1      16.503  22.480 -22.503  1.00  0.00     0.025 A 
HETATM   16  C12 UNL     1      15.373  22.546 -23.334  1.00  0.00    -0.025 A 
HETATM   17  C13 UNL     1      14.475  23.565 -23.096  1.00  0.00     0.012 A 
HETATM   18  C14 UNL     1      13.328  23.696 -23.878  1.00  0.00     0.001 A 
HETATM   19  C15 UNL     1      13.150  22.769 -24.878  1.00  0.00     0.001 A 
HETATM   20  C16 UNL     1      14.036  21.745 -25.130  1.00  0.00     0.012 A 
HETATM   21  C17 UNL     1      15.175  21.630 -24.340  1.00  0.00    -0.025 A 
HETATM   22  C18 UNL     1      16.102  20.644 -24.523  1.00  0.00     0.027 A 
HETATM   23  C19 UNL     1      17.213  20.578 -23.708  1.00  0.00     0.005 A 
ENDROOT
TORSDOF 0
ENDMDL
MODEL 5
REMARK VINA RESULT: -9.470867415      2.780      4.478
REMARK  0 active torsions:
REMARK  status: ('A' for Active; 'I' for Inactive)
ROOT
HETATM    1  O1  UNL     1      20.257  22.591 -19.267  1.00  0.00    -0.267 OA
HETATM    2  C1  UNL     1      19.636  22.077 -20.235  1.00  0.00     0.262 A 
HETATM    3  C2  UNL     1      18.464  22.497 -20.813  1.00  0.00     0.108 A 
HETATM    4  C3  UNL     1      18.190  21.617 -21.827  1.00  0.00     0.073 A 
HETATM    5  N1  UNL     1      19.174  20.688 -21.860  1.00  0.00    -0.252 N 
HETATM    6  N2  UNL     1      20.038  20.977 -20.897  1.00  0.00    -0.259 N 
ATOM      7  H2  UNL     1      20.883  20.444 -20.689  1.00  0.00     0.191 HD
HETATM    8  C4  UNL     1      19.153  19.651 -22.810  1.00  0.00     0.068 A 
HETATM    9  C5  UNL     1      20.173  18.717 -22.819  1.00  0.00     0.032 A 
HETATM   10  C6  UNL     1      20.177  17.692 -23.739  1.00  0.00     0.002 A 
HETATM   11  C7  UNL     1      19.132  17.645 -24.633  1.00  0.00     0.001 A 
HETATM   12  C8  UNL     1      18.100  18.565 -24.646  1.00  0.00     0.014 A 
HETATM   13  C9  UNL     1      18.119  19.575 -23.723  1.00  0.00     0.004 A 
HETATM   14  C10 UNL     1      17.046  20.550 -23.720  1.00  0.00    -0.010 A 
HETATM   15  C11 UNL     1      16.004  20.525 -24.591  1.00  0.00     0.025 A 
HETATM   16  C12 UNL     1      15.001  21.506 -24.527  1.00  0.00    -0.025 A 
HETATM   17  C13 UNL     1      13.974  21.417 -25.442  1.00  0.00     0.012 A 
HETATM   18  C14 UNL     1      12.942  22.355 -25.442  1.00  0.00     0.001 A 
HETATM   19  C15 UNL     1      13.008  23.349 -24.494  1.00  0.00     0.001 A 
HETATM   20  C16 UNL     1      14.025  23.452 -23.572  1.00  0.00     0.012 A 
HETATM   21  C17 UNL     1      15.046  22.509 -23.587  1.00  0.00    -0.025 A 
HETATM   22  C18 UNL     1      16.091  22.539 -22.708  1.00  0.00     0.027 A 
HETATM   23  C19 UNL     1      17.078  21.577 -22.771  1.00  0.00     0.005 A 
ENDROOT
TORSDOF 0
ENDMDL
