MODEL 1
REMARK VINA RESULT: -8.902822990      0.000      0.000
REMARK  0 active torsions:
REMARK  status: ('A' for Active; 'I' for Inactive)
REMARK       I    between atoms: C1_2  and  N2_4 
ROOT
HETATM    1  N1  UNL     1      20.400  17.980 -19.536  1.00  0.00    -0.039 NA
HETATM    2  C1  UNL     1      20.340  17.629 -20.935  1.00  0.00     0.340 C 
HETATM    3  O1  UNL     1      20.587  16.394 -21.173  1.00  0.00    -0.250 OA
HETATM    4  N2  UNL     1      20.025  18.589 -21.871  1.00  0.00    -0.265 N 
HETATM    5  C2  UNL     1      19.843  19.972 -21.485  1.00  0.00     0.055 A 
HETATM    6  C3  UNL     1      20.794  20.347 -20.587  1.00  0.00     0.031 A 
HETATM    7  C4  UNL     1      20.800  21.645 -20.125  1.00  0.00     0.002 A 
HETATM    8  C5  UNL     1      19.847  22.527 -20.585  1.00  0.00     0.001 A 
HETATM    9  C6  UNL     1      18.856  22.171 -21.512  1.00  0.00     0.014 A 
HETATM   10  C7  UNL     1      18.886  20.878 -21.939  1.00  0.00     0.002 A 
HETATM   11  C8  UNL     1      17.819  20.597 -22.872  1.00  0.00    -0.013 A 
HETATM   12  C9  UNL     1      16.729  21.390 -22.687  1.00  0.00     0.013 A 
HETATM   13  C10 UNL     1      15.639  21.175 -23.525  1.00  0.00     0.001 A 
HETATM   14  C11 UNL     1      15.643  20.213 -24.493  1.00  0.00     0.001 A 
HETATM   15  C12 UNL     1      16.761  19.404 -24.674  1.00  0.00     0.013 A 
HETATM   16  C13 UNL     1      17.849  19.588 -23.874  1.00  0.00    -0.011 A 
HETATM   17  C14 UNL     1      18.907  18.641 -24.173  1.00  0.00     0.018 A 
HETATM   18  C15 UNL     1      18.868  18.211 -25.464  1.00  0.00     0.102 A 
HETATM   19  N3  UNL     1      19.797  17.301 -25.815  1.00  0.00    -0.374 N 
ATOM     20  H3  UNL     1      19.805  16.948 -26.773  1.00  0.00     0.164 HD
HETATM   21  C16 UNL     1      20.731  16.834 -24.929  1.00  0.00     0.090 A 
HETATM   22  C17 UNL     1      20.771  17.273 -23.628  1.00  0.00     0.048 A 
HETATM   23  C18 UNL     1      19.840  18.190 -23.253  1.00  0.00     0.057 A 
ENDROOT
TORSDOF 0
ENDMDL
MODEL 2
REMARK VINA RESULT: -7.043208451      2.413      5.089
REMARK  0 active torsions:
REMARK  status: ('A' for Active; 'I' for Inactive)
REMARK       I    between atoms: C1_2  and  N2_4 
ROOT
HETATM    1  N1  UNL     1      15.070  21.086 -20.657  1.00  0.00    -0.039 NA
HETATM    2  C1  UNL     1      16.500  21.243 -20.533  1.00  0.00     0.340 C 
HETATM    3  O1  UNL     1      16.901  21.429 -19.329  1.00  0.00    -0.250 OA
HETATM    4  N2  UNL     1      17.298  21.174 -21.653  1.00  0.00    -0.265 N 
HETATM    5  C2  UNL     1      16.719  21.037 -22.972  1.00  0.00     0.055 A 
HETATM    6  C3  UNL     1      15.631  21.844 -23.102  1.00  0.00     0.031 A 
HETATM    7  C4  UNL     1      14.961  21.871 -24.305  1.00  0.00     0.002 A 
HETATM    8  C5  UNL     1      15.412  21.086 -25.344  1.00  0.00     0.001 A 
HETATM    9  C6  UNL     1      16.531  20.248 -25.242  1.00  0.00     0.014 A 
HETATM   10  C7  UNL     1      17.160  20.248 -24.033  1.00  0.00     0.002 A 
HETATM   11  C8  UNL     1      18.285  19.343 -24.014  1.00  0.00    -0.013 A 
HETATM   12  C9  UNL     1      18.146  18.303 -24.880  1.00  0.00     0.013 A 
HETATM   13  C10 UNL     1      19.171  17.362 -24.913  1.00  0.00     0.001 A 
HETATM   14  C11 UNL     1      20.274  17.459 -24.116  1.00  0.00     0.001 A 
HETATM   15  C12 UNL     1      20.408  18.525 -23.230  1.00  0.00     0.013 A 
HETATM   16  C13 UNL     1      19.426  19.467 -23.172  1.00  0.00    -0.011 A 
HETATM   17  C14 UNL     1      19.708  20.482 -22.175  1.00  0.00     0.018 A 
HETATM   18  C15 UNL     1      21.042  20.635 -21.954  1.00  0.00     0.102 A 
HETATM   19  N3  UNL     1      21.389  21.536 -21.015  1.00  0.00    -0.374 N 
ATOM     20  H3  UNL     1      22.378  21.683 -20.813  1.00  0.00     0.164 HD
HETATM   21  C16 UNL     1      20.457  22.261 -20.321  1.00  0.00     0.090 A 
HETATM   22  C17 UNL     1      19.110  22.108 -20.549  1.00  0.00     0.048 A 
HETATM   23  C18 UNL     1      18.740  21.202 -21.492  1.00  0.00     0.057 A 
ENDROOT
TORSDOF 0
ENDMDL
MODEL 3
REMARK VINA RESULT: -6.293115078      2.434      5.429
REMARK  0 active torsions:
REMARK  status: ('A' for Active; 'I' for Inactive)
REMARK       I    between atoms: C1_2  and  N2_4 
ROOT
HETATM    1  N1  UNL     1      15.354  19.734 -20.726  1.00  0.00    -0.039 NA
HETATM    2  C1  UNL     1      16.559  20.523 -20.637  1.00  0.00     0.340 C 
HETATM    3  O1  UNL     1      16.673  21.176 -19.540  1.00  0.00    -0.250 OA
HETATM    4  N2  UNL     1      17.465  20.514 -21.674  1.00  0.00    -0.265 N 
HETATM    5  C2  UNL     1      17.186  19.795 -22.899  1.00  0.00     0.055 A 
HETATM    6  C3  UNL     1      15.893  19.982 -23.278  1.00  0.00     0.031 A 
HETATM    7  C4  UNL     1      15.448  19.395 -24.443  1.00  0.00     0.002 A 
HETATM    8  C5  UNL     1      16.324  18.641 -25.193  1.00  0.00     0.001 A 
HETATM    9  C6  UNL     1      17.663  18.432 -24.829  1.00  0.00     0.014 A 
HETATM   10  C7  UNL     1      18.058  19.026 -23.669  1.00  0.00     0.002 A 
HETATM   11  C8  UNL     1      19.440  18.741 -23.364  1.00  0.00    -0.013 A 
HETATM   12  C9  UNL     1      19.865  17.556 -23.880  1.00  0.00     0.013 A 
HETATM   13  C10 UNL     1      21.180  17.183 -23.616  1.00  0.00     0.001 A 
HETATM   14  C11 UNL     1      22.021  17.958 -22.871  1.00  0.00     0.001 A 
HETATM   15  C12 UNL     1      21.577  19.167 -22.344  1.00  0.00     0.013 A 
HETATM   16  C13 UNL     1      20.297  19.567 -22.584  1.00  0.00    -0.011 A 
HETATM   17  C14 UNL     1      19.993  20.827 -21.934  1.00  0.00     0.018 A 
HETATM   18  C15 UNL     1      21.100  21.598 -21.752  1.00  0.00     0.102 A 
HETATM   19  N3  UNL     1      20.910  22.773 -21.122  1.00  0.00    -0.374 N 
ATOM     20  H3  UNL     1      21.711  23.383 -20.962  1.00  0.00     0.164 HD
HETATM   21  C16 UNL     1      19.674  23.176 -20.690  1.00  0.00     0.090 A 
HETATM   22  C17 UNL     1      18.557  22.398 -20.879  1.00  0.00     0.048 A 
HETATM   23  C18 UNL     1      18.729  21.207 -21.511  1.00  0.00     0.057 A 
ENDROOT
TORSDOF 0
ENDMDL
MODEL 4
REMARK VINA RESULT: -6.266851223      9.077     10.550
REMARK  0 active torsions:
REMARK  status: ('A' for Active; 'I' for Inactive)
REMARK       I    between atoms: C1_2  and  N2_4 
ROOT
HETATM    1  N1  UNL     1      24.414  27.849 -29.777  1.00  0.00    -0.039 NA
HETATM    2  C1  UNL     1      24.204  28.254 -28.407  1.00  0.00     0.340 C 
HETATM    3  O1  UNL     1      24.892  29.276 -28.056  1.00  0.00    -0.250 OA
HETATM    4  N2  UNL     1      23.316  27.562 -27.614  1.00  0.00    -0.265 N 
HETATM    5  C2  UNL     1      22.653  26.372 -28.104  1.00  0.00     0.055 A 
HETATM    6  C3  UNL     1      23.526  25.588 -28.793  1.00  0.00     0.031 A 
HETATM    7  C4  UNL     1      23.082  24.392 -29.313  1.00  0.00     0.002 A 
HETATM    8  C5  UNL     1      21.770  24.020 -29.117  1.00  0.00     0.001 A 
HETATM    9  C6  UNL     1      20.847  24.804 -28.409  1.00  0.00     0.014 A 
HETATM   10  C7  UNL     1      21.329  25.980 -27.917  1.00  0.00     0.002 A 
HETATM   11  C8  UNL     1      20.307  26.729 -27.223  1.00  0.00    -0.013 A 
HETATM   12  C9  UNL     1      19.053  26.468 -27.681  1.00  0.00     0.013 A 
HETATM   13  C10 UNL     1      18.003  27.163 -27.088  1.00  0.00     0.001 A 
HETATM   14  C11 UNL     1      18.203  28.074 -26.092  1.00  0.00     0.001 A 
HETATM   15  C12 UNL     1      19.490  28.338 -25.631  1.00  0.00     0.013 A 
HETATM   16  C13 UNL     1      20.543  27.674 -26.185  1.00  0.00    -0.011 A 
HETATM   17  C14 UNL     1      21.808  28.093 -25.614  1.00  0.00     0.018 A 
HETATM   18  C15 UNL     1      21.675  28.557 -24.342  1.00  0.00     0.102 A 
HETATM   19  N3  UNL     1      22.801  29.000 -23.749  1.00  0.00    -0.374 N 
ATOM     20  H3  UNL     1      22.749  29.359 -22.796  1.00  0.00     0.164 HD
HETATM   21  C16 UNL     1      24.013  28.985 -24.386  1.00  0.00     0.090 A 
HETATM   22  C17 UNL     1      24.146  28.513 -25.670  1.00  0.00     0.048 A 
HETATM   23  C18 UNL     1      23.021  28.063 -26.286  1.00  0.00     0.057 A 
ENDROOT
TORSDOF 0
ENDMDL
MODEL 5
REMARK VINA RESULT: -6.228199135      2.146      4.219
REMARK  0 active torsions:
REMARK  status: ('A' for Active; 'I' for Inactive)
REMARK       I    between atoms: C1_2  and  N2_4 
ROOT
HETATM    1  N1  UNL     1      16.334  19.381 -24.931  1.00  0.00    -0.039 NA
HETATM    2  C1  UNL     1      17.667  18.912 -24.631  1.00  0.00     0.340 C 
HETATM    3  O1  UNL     1      18.229  18.289 -25.600  1.00  0.00    -0.250 OA
HETATM    4  N2  UNL     1      18.221  19.162 -23.396  1.00  0.00    -0.265 N 
HETATM    5  C2  UNL     1      17.453  19.810 -22.353  1.00  0.00     0.055 A 
HETATM    6  C3  UNL     1      16.186  19.316 -22.316  1.00  0.00     0.031 A 
HETATM    7  C4  UNL     1      15.312  19.793 -21.364  1.00  0.00     0.002 A 
HETATM    8  C5  UNL     1      15.745  20.753 -20.475  1.00  0.00     0.001 A 
HETATM    9  C6  UNL     1      17.044  21.280 -20.487  1.00  0.00     0.014 A 
HETATM   10  C7  UNL     1      17.873  20.783 -21.447  1.00  0.00     0.002 A 
HETATM   11  C8  UNL     1      19.179  21.396 -21.398  1.00  0.00    -0.013 A 
HETATM   12  C9  UNL     1      19.156  22.658 -20.889  1.00  0.00     0.013 A 
HETATM   13  C10 UNL     1      20.367  23.340 -20.826  1.00  0.00     0.001 A 
HETATM   14  C11 UNL     1      21.538  22.785 -21.254  1.00  0.00     0.001 A 
HETATM   15  C12 UNL     1      21.554  21.495 -21.776  1.00  0.00     0.013 A 
HETATM   16  C13 UNL     1      20.387  20.795 -21.851  1.00  0.00    -0.011 A 
HETATM   17  C14 UNL     1      20.578  19.488 -22.450  1.00  0.00     0.018 A 
HETATM   18  C15 UNL     1      21.840  19.012 -22.267  1.00  0.00     0.102 A 
HETATM   19  N3  UNL     1      22.111  17.816 -22.824  1.00  0.00    -0.374 N 
ATOM     20  H3  UNL     1      23.045  17.421 -22.714  1.00  0.00     0.164 HD
HETATM   21  C16 UNL     1      21.173  17.113 -23.532  1.00  0.00     0.090 A 
HETATM   22  C17 UNL     1      19.898  17.594 -23.712  1.00  0.00     0.048 A 
HETATM   23  C18 UNL     1      19.605  18.800 -23.160  1.00  0.00     0.057 A 
ENDROOT
TORSDOF 0
ENDMDL
