MODEL 1
REMARK VINA RESULT: -8.214183512      0.000      0.000
REMARK  9 active torsions:
REMARK  status: ('A' for Active; 'I' for Inactive)
REMARK    1  A    between atoms: N1_1  and  N2_4 
REMARK    2  A    between atoms: N2_4  and  C1_6 
REMARK    3  A    between atoms: C3_12  and  N5_13 
REMARK    4  A    between atoms: C4_15  and  C5_16 
REMARK    5  A    between atoms: C5_16  and  C6_17 
REMARK    6  A    between atoms: N6_19  and  C8_20 
REMARK    7  A    between atoms: C8_20  and  C9_21 
REMARK    8  A    between atoms: C9_21  and  N7_22 
REMARK    9  A    between atoms: N7_22  and  O1_23 
ROOT
HETATM    1  N5  UNL     1      42.203   8.849   9.425  1.00  0.00    -0.204 N 
ATOM      2  H5  UNL     1      42.656   8.082   9.921  1.00  0.00     0.183 HD
HETATM    3  C4  UNL     1      42.115   8.426   8.140  1.00  0.00     0.083 C 
ENDROOT
BRANCH   1   4
HETATM    4  C3  UNL     1      42.003   9.706  10.288  1.00  0.00     0.697 A 
HETATM    5  N4  UNL     1      42.944  10.122  11.168  1.00  0.00    -0.187 N 
HETATM    6  C2  UNL     1      42.667  11.062  12.076  1.00  0.00     0.215 A 
ATOM      7  H4  UNL     1      43.876   9.711  11.137  1.00  0.00     0.185 HD
HETATM    8  N3  UNL     1      41.431  11.607  12.117  1.00  0.00    -0.185 N 
HETATM    9  C1  UNL     1      40.484  11.213  11.258  1.00  0.00     0.711 A 
ATOM     10  H3  UNL     1      41.219  12.325  12.810  1.00  0.00     0.185 HD
HETATM   11  N8  UNL     1      40.768  10.281  10.362  1.00  0.00    -0.021 N 
ATOM     12  H8  UNL     1      40.043   9.984   9.709  1.00  0.00     0.203 HD
BRANCH   9  13
HETATM   13  N2  UNL     1      39.294  11.746  11.307  1.00  0.00    -0.138 N 
ATOM     14  H2  UNL     1      38.494  11.182  11.595  1.00  0.00     0.205 HD
BRANCH  13  15
HETATM   15  N1  UNL     1      39.113  13.082  10.968  1.00  0.00    -0.331 N 
ATOM     16  H12 UNL     1      39.923  13.636  10.691  1.00  0.00     0.177 HD
ATOM     17  H11 UNL     1      38.181  13.497  10.997  1.00  0.00     0.177 HD
ENDBRANCH  13  15
ENDBRANCH   9  13
ENDBRANCH   1   4
BRANCH   3  18
HETATM   18  C5  UNL     1      40.786   8.726   7.478  1.00  0.00     0.086 C 
BRANCH  18  19
HETATM   19  C6  UNL     1      40.100   7.439   7.095  1.00  0.00    -0.025 A 
HETATM   20  C7  UNL     1      39.933   6.874   5.870  1.00  0.00     0.099 A 
HETATM   21  N6  UNL     1      39.273   5.695   5.959  1.00  0.00    -0.354 N 
HETATM   22  C10 UNL     1      39.023   5.526   7.271  1.00  0.00     0.045 A 
HETATM   23  C11 UNL     1      38.383   4.511   7.942  1.00  0.00     0.030 A 
HETATM   24  C15 UNL     1      39.528   6.599   8.003  1.00  0.00    -0.001 A 
HETATM   25  C12 UNL     1      38.258   4.581   9.311  1.00  0.00     0.002 A 
HETATM   26  C13 UNL     1      38.754   5.637  10.040  1.00  0.00     0.001 A 
HETATM   27  C14 UNL     1      39.403   6.670   9.378  1.00  0.00     0.014 A 
BRANCH  21  28
HETATM   28  C8  UNL     1      38.935   4.827   4.852  1.00  0.00     0.147 C 
BRANCH  28  29
HETATM   29  C9  UNL     1      39.982   3.779   4.601  1.00  0.00     0.162 C 
BRANCH  29  30
HETATM   30  N7  UNL     1      40.503   3.846   3.252  1.00  0.00    -0.102 NA
BRANCH  30  31
HETATM   31  O1  UNL     1      40.893   5.067   2.900  1.00  0.00    -0.296 OA
ATOM     32  H1  UNL     1      41.838   5.168   2.880  1.00  0.00     0.238 HD
ENDBRANCH  30  31
ENDBRANCH  29  30
ENDBRANCH  28  29
ENDBRANCH  21  28
ENDBRANCH  18  19
ENDBRANCH   3  18
TORSDOF 9
ENDMDL
MODEL 2
REMARK VINA RESULT: -8.124066424      3.456      7.200
REMARK  9 active torsions:
REMARK  status: ('A' for Active; 'I' for Inactive)
REMARK    1  A    between atoms: N1_1  and  N2_4 
REMARK    2  A    between atoms: N2_4  and  C1_6 
REMARK    3  A    between atoms: C3_12  and  N5_13 
REMARK    4  A    between atoms: C4_15  and  C5_16 
REMARK    5  A    between atoms: C5_16  and  C6_17 
REMARK    6  A    between atoms: N6_19  and  C8_20 
REMARK    7  A    between atoms: C8_20  and  C9_21 
REMARK    8  A    between atoms: C9_21  and  N7_22 
REMARK    9  A    between atoms: N7_22  and  O1_23 
ROOT
HETATM    1  N5  UNL     1      37.189   5.120   9.575  1.00  0.00    -0.204 N 
ATOM      2  H5  UNL     1      37.851   5.357  10.314  1.00  0.00     0.183 HD
HETATM    3  C4  UNL     1      36.695   6.312   9.159  1.00  0.00     0.083 C 
ENDROOT
BRANCH   1   4
HETATM    4  C3  UNL     1      37.231   3.891   9.499  1.00  0.00     0.697 A 
HETATM    5  N4  UNL     1      36.191   3.126   9.093  1.00  0.00    -0.187 N 
HETATM    6  C2  UNL     1      36.302   1.796   9.024  1.00  0.00     0.215 A 
ATOM      7  H4  UNL     1      35.311   3.571   8.835  1.00  0.00     0.185 HD
HETATM    8  N3  UNL     1      37.469   1.206   9.364  1.00  0.00    -0.185 N 
HETATM    9  C1  UNL     1      38.512   1.941   9.769  1.00  0.00     0.711 A 
ATOM     10  H3  UNL     1      37.555   0.191   9.312  1.00  0.00     0.185 HD
HETATM   11  N8  UNL     1      38.392   3.257   9.833  1.00  0.00    -0.021 N 
ATOM     12  H8  UNL     1      39.189   3.813  10.142  1.00  0.00     0.203 HD
BRANCH   9  13
HETATM   13  N2  UNL     1      39.634   1.359  10.095  1.00  0.00    -0.138 N 
ATOM     14  H2  UNL     1      40.266   1.809  10.757  1.00  0.00     0.205 HD
BRANCH  13  15
HETATM   15  N1  UNL     1      39.968   0.128   9.543  1.00  0.00    -0.331 N 
ATOM     16  H12 UNL     1      39.410  -0.691   9.786  1.00  0.00     0.177 HD
ATOM     17  H11 UNL     1      40.760   0.051   8.905  1.00  0.00     0.177 HD
ENDBRANCH  13  15
ENDBRANCH   9  13
ENDBRANCH   1   4
BRANCH   3  18
HETATM   18  C5  UNL     1      36.573   6.441   7.654  1.00  0.00     0.086 C 
BRANCH  18  19
HETATM   19  C6  UNL     1      37.943   6.552   7.035  1.00  0.00    -0.025 A 
HETATM   20  C7  UNL     1      39.029   7.257   7.450  1.00  0.00     0.099 A 
HETATM   21  N6  UNL     1      40.081   7.073   6.618  1.00  0.00    -0.354 N 
HETATM   22  C10 UNL     1      39.636   6.234   5.663  1.00  0.00     0.045 A 
HETATM   23  C11 UNL     1      40.268   5.704   4.564  1.00  0.00     0.030 A 
HETATM   24  C15 UNL     1      38.305   5.893   5.899  1.00  0.00    -0.001 A 
HETATM   25  C12 UNL     1      39.576   4.856   3.730  1.00  0.00     0.002 A 
HETATM   26  C13 UNL     1      38.262   4.515   3.957  1.00  0.00     0.001 A 
HETATM   27  C14 UNL     1      37.609   5.042   5.062  1.00  0.00     0.014 A 
BRANCH  21  28
HETATM   28  C8  UNL     1      41.393   7.665   6.765  1.00  0.00     0.147 C 
BRANCH  28  29
HETATM   29  C9  UNL     1      41.462   8.634   7.911  1.00  0.00     0.162 C 
BRANCH  29  30
HETATM   30  N7  UNL     1      42.497   8.277   8.860  1.00  0.00    -0.102 NA
BRANCH  30  31
HETATM   31  O1  UNL     1      42.121   7.332   9.716  1.00  0.00    -0.296 OA
ATOM     32  H1  UNL     1      42.802   6.694   9.894  1.00  0.00     0.238 HD
ENDBRANCH  30  31
ENDBRANCH  29  30
ENDBRANCH  28  29
ENDBRANCH  21  28
ENDBRANCH  18  19
ENDBRANCH   3  18
TORSDOF 9
ENDMDL
MODEL 3
REMARK VINA RESULT: -8.044549339      2.339      3.550
REMARK  9 active torsions:
REMARK  status: ('A' for Active; 'I' for Inactive)
REMARK    1  A    between atoms: N1_1  and  N2_4 
REMARK    2  A    between atoms: N2_4  and  C1_6 
REMARK    3  A    between atoms: C3_12  and  N5_13 
REMARK    4  A    between atoms: C4_15  and  C5_16 
REMARK    5  A    between atoms: C5_16  and  C6_17 
REMARK    6  A    between atoms: N6_19  and  C8_20 
REMARK    7  A    between atoms: C8_20  and  C9_21 
REMARK    8  A    between atoms: C9_21  and  N7_22 
REMARK    9  A    between atoms: N7_22  and  O1_23 
ROOT
HETATM    1  N5  UNL     1      41.896   8.505   9.018  1.00  0.00    -0.204 N 
ATOM      2  H5  UNL     1      42.661   7.909   9.337  1.00  0.00     0.183 HD
HETATM    3  C4  UNL     1      41.492   7.953   7.848  1.00  0.00     0.083 C 
ENDROOT
BRANCH   1   4
HETATM    4  C3  UNL     1      41.792   9.372   9.887  1.00  0.00     0.697 A 
HETATM    5  N4  UNL     1      42.801   9.734  10.714  1.00  0.00    -0.187 N 
HETATM    6  C2  UNL     1      42.627  10.690  11.632  1.00  0.00     0.215 A 
ATOM      7  H4  UNL     1      43.705   9.271  10.635  1.00  0.00     0.185 HD
HETATM    8  N3  UNL     1      41.429  11.305  11.736  1.00  0.00    -0.185 N 
HETATM    9  C1  UNL     1      40.416  10.965  10.930  1.00  0.00     0.711 A 
ATOM     10  H3  UNL     1      41.295  12.035  12.436  1.00  0.00     0.185 HD
HETATM   11  N8  UNL     1      40.597  10.018  10.024  1.00  0.00    -0.021 N 
ATOM     12  H8  UNL     1      39.823   9.762   9.412  1.00  0.00     0.203 HD
BRANCH   9  13
HETATM   13  N2  UNL     1      39.262  11.566  11.040  1.00  0.00    -0.138 N 
ATOM     14  H2  UNL     1      38.405  11.016  11.099  1.00  0.00     0.205 HD
BRANCH  13  15
HETATM   15  N1  UNL     1      39.199  12.955  11.078  1.00  0.00    -0.331 N 
ATOM     16  H12 UNL     1      38.331  13.417  10.811  1.00  0.00     0.177 HD
ATOM     17  H11 UNL     1      40.014  13.496  11.368  1.00  0.00     0.177 HD
ENDBRANCH  13  15
ENDBRANCH   9  13
ENDBRANCH   1   4
BRANCH   3  18
HETATM   18  C5  UNL     1      39.988   7.884   7.681  1.00  0.00     0.086 C 
BRANCH  18  19
HETATM   19  C6  UNL     1      39.549   6.446   7.569  1.00  0.00    -0.025 A 
HETATM   20  C7  UNL     1      39.059   5.610   8.523  1.00  0.00     0.099 A 
HETATM   21  N6  UNL     1      38.763   4.394   8.006  1.00  0.00    -0.354 N 
HETATM   22  C10 UNL     1      39.078   4.478   6.699  1.00  0.00     0.045 A 
HETATM   23  C11 UNL     1      38.987   3.549   5.690  1.00  0.00     0.030 A 
HETATM   24  C15 UNL     1      39.571   5.747   6.399  1.00  0.00    -0.001 A 
HETATM   25  C12 UNL     1      39.383   3.894   4.418  1.00  0.00     0.002 A 
HETATM   26  C13 UNL     1      39.870   5.145   4.115  1.00  0.00     0.001 A 
HETATM   27  C14 UNL     1      39.969   6.094   5.122  1.00  0.00     0.014 A 
BRANCH  21  28
HETATM   28  C8  UNL     1      38.216   3.272   8.737  1.00  0.00     0.147 C 
BRANCH  28  29
HETATM   29  C9  UNL     1      38.275   3.470  10.225  1.00  0.00     0.162 C 
BRANCH  29  30
HETATM   30  N7  UNL     1      38.527   2.229  10.927  1.00  0.00    -0.102 NA
BRANCH  30  31
HETATM   31  O1  UNL     1      39.547   1.539  10.424  1.00  0.00    -0.296 OA
ATOM     32  H1  UNL     1      40.395   1.900  10.656  1.00  0.00     0.238 HD
ENDBRANCH  30  31
ENDBRANCH  29  30
ENDBRANCH  28  29
ENDBRANCH  21  28
ENDBRANCH  18  19
ENDBRANCH   3  18
TORSDOF 9
ENDMDL
MODEL 4
REMARK VINA RESULT: -7.961496711      2.563      4.051
REMARK  9 active torsions:
REMARK  status: ('A' for Active; 'I' for Inactive)
REMARK    1  A    between atoms: N1_1  and  N2_4 
REMARK    2  A    between atoms: N2_4  and  C1_6 
REMARK    3  A    between atoms: C3_12  and  N5_13 
REMARK    4  A    between atoms: C4_15  and  C5_16 
REMARK    5  A    between atoms: C5_16  and  C6_17 
REMARK    6  A    between atoms: N6_19  and  C8_20 
REMARK    7  A    between atoms: C8_20  and  C9_21 
REMARK    8  A    between atoms: C9_21  and  N7_22 
REMARK    9  A    between atoms: N7_22  and  O1_23 
ROOT
HETATM    1  N5  UNL     1      39.395  10.091  10.020  1.00  0.00    -0.204 N 
ATOM      2  H5  UNL     1      39.093  10.881   9.451  1.00  0.00     0.183 HD
HETATM    3  C4  UNL     1      39.119   8.997   9.267  1.00  0.00     0.083 C 
ENDROOT
BRANCH   1   4
HETATM    4  C3  UNL     1      39.832  10.598  11.054  1.00  0.00     0.697 A 
HETATM    5  N4  UNL     1      39.073  10.855  12.145  1.00  0.00    -0.187 N 
HETATM    6  C2  UNL     1      39.608  11.401  13.241  1.00  0.00     0.215 A 
ATOM      7  H4  UNL     1      38.079  10.630  12.130  1.00  0.00     0.185 HD
HETATM    8  N3  UNL     1      40.926  11.699  13.263  1.00  0.00    -0.185 N 
HETATM    9  C1  UNL     1      41.698  11.454  12.197  1.00  0.00     0.711 A 
ATOM     10  H3  UNL     1      41.336  12.115  14.099  1.00  0.00     0.185 HD
HETATM   11  N8  UNL     1      41.158  10.914  11.116  1.00  0.00    -0.021 N 
ATOM     12  H8  UNL     1      41.750  10.728  10.306  1.00  0.00     0.203 HD
BRANCH   9  13
HETATM   13  N2  UNL     1      42.969  11.747  12.229  1.00  0.00    -0.138 N 
ATOM     14  H2  UNL     1      43.272  12.668  12.545  1.00  0.00     0.205 HD
BRANCH  13  15
HETATM   15  N1  UNL     1      43.912  10.805  11.832  1.00  0.00    -0.331 N 
ATOM     16  H12 UNL     1      43.592   9.905  11.474  1.00  0.00     0.177 HD
ATOM     17  H11 UNL     1      44.908  11.017  11.901  1.00  0.00     0.177 HD
ENDBRANCH  13  15
ENDBRANCH   9  13
ENDBRANCH   1   4
BRANCH   3  18
HETATM   18  C5  UNL     1      40.213   7.949   9.272  1.00  0.00     0.086 C 
BRANCH  18  19
HETATM   19  C6  UNL     1      39.658   6.626   8.809  1.00  0.00    -0.025 A 
HETATM   20  C7  UNL     1      39.094   5.620   9.528  1.00  0.00     0.099 A 
HETATM   21  N6  UNL     1      38.703   4.601   8.726  1.00  0.00    -0.354 N 
HETATM   22  C10 UNL     1      39.035   4.984   7.479  1.00  0.00     0.045 A 
HETATM   23  C11 UNL     1      38.878   4.350   6.270  1.00  0.00     0.030 A 
HETATM   24  C15 UNL     1      39.633   6.244   7.501  1.00  0.00    -0.001 A 
HETATM   25  C12 UNL     1      39.312   4.969   5.121  1.00  0.00     0.002 A 
HETATM   26  C13 UNL     1      39.903   6.212   5.135  1.00  0.00     0.001 A 
HETATM   27  C14 UNL     1      40.070   6.866   6.347  1.00  0.00     0.014 A 
BRANCH  21  28
HETATM   28  C8  UNL     1      38.060   3.380   9.159  1.00  0.00     0.147 C 
BRANCH  28  29
HETATM   29  C9  UNL     1      37.986   3.267  10.655  1.00  0.00     0.162 C 
BRANCH  29  30
HETATM   30  N7  UNL     1      38.581   2.036  11.134  1.00  0.00    -0.102 NA
BRANCH  30  31
HETATM   31  O1  UNL     1      39.543   1.574  10.341  1.00  0.00    -0.296 OA
ATOM     32  H1  UNL     1      39.367   1.712   9.418  1.00  0.00     0.238 HD
ENDBRANCH  30  31
ENDBRANCH  29  30
ENDBRANCH  28  29
ENDBRANCH  21  28
ENDBRANCH  18  19
ENDBRANCH   3  18
TORSDOF 9
ENDMDL
MODEL 5
REMARK VINA RESULT: -7.946743067      3.758      6.916
REMARK  9 active torsions:
REMARK  status: ('A' for Active; 'I' for Inactive)
REMARK    1  A    between atoms: N1_1  and  N2_4 
REMARK    2  A    between atoms: N2_4  and  C1_6 
REMARK    3  A    between atoms: C3_12  and  N5_13 
REMARK    4  A    between atoms: C4_15  and  C5_16 
REMARK    5  A    between atoms: C5_16  and  C6_17 
REMARK    6  A    between atoms: N6_19  and  C8_20 
REMARK    7  A    between atoms: C8_20  and  C9_21 
REMARK    8  A    between atoms: C9_21  and  N7_22 
REMARK    9  A    between atoms: N7_22  and  O1_23 
ROOT
HETATM    1  N5  UNL     1      36.941   6.033  10.649  1.00  0.00    -0.204 N 
ATOM      2  H5  UNL     1      37.548   6.433  11.365  1.00  0.00     0.183 HD
HETATM    3  C4  UNL     1      36.408   7.103  10.010  1.00  0.00     0.083 C 
ENDROOT
BRANCH   1   4
HETATM    4  C3  UNL     1      37.052   4.814  10.790  1.00  0.00     0.697 A 
HETATM    5  N4  UNL     1      36.309   4.085  11.655  1.00  0.00    -0.187 N 
HETATM    6  C2  UNL     1      36.472   2.762  11.755  1.00  0.00     0.215 A 
ATOM      7  H4  UNL     1      35.615   4.551  12.237  1.00  0.00     0.185 HD
HETATM    8  N3  UNL     1      37.391   2.143  10.982  1.00  0.00    -0.185 N 
HETATM    9  C1  UNL     1      38.138   2.841  10.119  1.00  0.00     0.711 A 
ATOM     10  H3  UNL     1      37.516   1.133  11.057  1.00  0.00     0.185 HD
HETATM   11  N8  UNL     1      37.969   4.150  10.027  1.00  0.00    -0.021 N 
ATOM     12  H8  UNL     1      38.540   4.679   9.368  1.00  0.00     0.203 HD
BRANCH   9  13
HETATM   13  N2  UNL     1      39.023   2.232   9.378  1.00  0.00    -0.138 N 
ATOM     14  H2  UNL     1      39.440   2.715   8.582  1.00  0.00     0.205 HD
BRANCH  13  15
HETATM   15  N1  UNL     1      39.399   0.926   9.672  1.00  0.00    -0.331 N 
ATOM     16  H12 UNL     1      40.094   0.764  10.399  1.00  0.00     0.177 HD
ATOM     17  H11 UNL     1      38.981   0.146   9.162  1.00  0.00     0.177 HD
ENDBRANCH  13  15
ENDBRANCH   9  13
ENDBRANCH   1   4
BRANCH   3  18
HETATM   18  C5  UNL     1      36.362   6.965   8.502  1.00  0.00     0.086 C 
BRANCH  18  19
HETATM   19  C6  UNL     1      37.723   7.249   7.919  1.00  0.00    -0.025 A 
HETATM   20  C7  UNL     1      38.681   8.120   8.332  1.00  0.00     0.099 A 
HETATM   21  N6  UNL     1      39.778   8.056   7.540  1.00  0.00    -0.354 N 
HETATM   22  C10 UNL     1      39.491   7.124   6.611  1.00  0.00     0.045 A 
HETATM   23  C11 UNL     1      40.231   6.647   5.555  1.00  0.00     0.030 A 
HETATM   24  C15 UNL     1      38.215   6.604   6.824  1.00  0.00    -0.001 A 
HETATM   25  C12 UNL     1      39.696   5.676   4.741  1.00  0.00     0.002 A 
HETATM   26  C13 UNL     1      38.438   5.158   4.945  1.00  0.00     0.001 A 
HETATM   27  C14 UNL     1      37.678   5.628   6.006  1.00  0.00     0.014 A 
BRANCH  21  28
HETATM   28  C8  UNL     1      40.985   8.838   7.698  1.00  0.00     0.147 C 
BRANCH  28  29
HETATM   29  C9  UNL     1      41.249   9.206   9.130  1.00  0.00     0.162 C 
BRANCH  29  30
HETATM   30  N7  UNL     1      42.448   8.573   9.639  1.00  0.00    -0.102 NA
BRANCH  30  31
HETATM   31  O1  UNL     1      42.900   9.128  10.760  1.00  0.00    -0.296 OA
ATOM     32  H1  UNL     1      43.101   8.493  11.438  1.00  0.00     0.238 HD
ENDBRANCH  30  31
ENDBRANCH  29  30
ENDBRANCH  28  29
ENDBRANCH  21  28
ENDBRANCH  18  19
ENDBRANCH   3  18
TORSDOF 9
ENDMDL
