MODEL 1
REMARK VINA RESULT: -7.530775266      0.000      0.000
REMARK  8 active torsions:
REMARK  status: ('A' for Active; 'I' for Inactive)
REMARK    1  A    between atoms: N1_1  and  C1_4 
REMARK    2  A    between atoms: N2_7  and  C4_8 
REMARK    3  A    between atoms: C4_8  and  C5_9 
REMARK    4  A    between atoms: C5_9  and  O1_10 
REMARK    5  A    between atoms: O1_10  and  C6_11 
REMARK    6  A    between atoms: C6_11  and  C7_12 
REMARK    7  A    between atoms: C7_12  and  N3_13 
REMARK    8  A    between atoms: C12_21  and  N5_22 
ROOT
HETATM    1  C7  UNL     1      38.640   6.058  10.902  1.00  0.00     0.156 C 
ENDROOT
BRANCH   1   2
HETATM    2  C6  UNL     1      37.569   7.124  11.106  1.00  0.00     0.188 C 
BRANCH   2   3
HETATM    3  O1  UNL     1      38.216   8.275  11.456  1.00  0.00    -0.388 OA
BRANCH   3   4
HETATM    4  C5  UNL     1      38.225   9.227  10.462  1.00  0.00     0.188 C 
BRANCH   4   5
HETATM    5  C4  UNL     1      39.582   9.601   9.974  1.00  0.00     0.159 C 
BRANCH   5   6
HETATM    6  N2  UNL     1      40.033   8.753   8.883  1.00  0.00    -0.308 N 
HETATM    7  C3  UNL     1      39.174   8.432   7.898  1.00  0.00     0.099 A 
HETATM    8  C2  UNL     1      39.641   7.625   6.881  1.00  0.00     0.065 A 
HETATM    9  C1  UNL     1      40.952   7.164   6.883  1.00  0.00     0.103 A 
HETATM   10  N7  UNL     1      41.773   7.509   7.884  1.00  0.00    -0.295 N 
HETATM   11  C14 UNL     1      41.298   8.299   8.871  1.00  0.00     0.328 A 
ATOM     12  H7  UNL     1      42.739   7.180   7.902  1.00  0.00     0.172 HD
HETATM   13  O3  UNL     1      42.057   8.634   9.822  1.00  0.00    -0.246 OA
BRANCH   9  14
HETATM   14  N1  UNL     1      41.343   6.409   5.906  1.00  0.00    -0.385 N 
ATOM     15  H12 UNL     1      40.710   5.757   5.442  1.00  0.00     0.157 HD
ATOM     16  H11 UNL     1      42.313   6.474   5.598  1.00  0.00     0.157 HD
ENDBRANCH   9  14
ENDBRANCH   5   6
ENDBRANCH   4   5
ENDBRANCH   3   4
ENDBRANCH   2   3
ENDBRANCH   1   2
BRANCH   1  17
HETATM   17  N3  UNL     1      37.978   4.758  10.864  1.00  0.00    -0.340 N 
HETATM   18  C8  UNL     1      37.208   4.201  11.826  1.00  0.00     0.094 A 
HETATM   19  C9  UNL     1      36.763   2.964  11.419  1.00  0.00     0.038 A 
HETATM   20  C10 UNL     1      37.274   2.745  10.163  1.00  0.00     0.078 A 
HETATM   21  C11 UNL     1      37.147   1.676   9.294  1.00  0.00     0.273 A 
HETATM   22  C13 UNL     1      38.017   3.870   9.854  1.00  0.00     0.139 A 
HETATM   23  O2  UNL     1      36.475   0.653   9.570  1.00  0.00    -0.267 OA
HETATM   24  N4  UNL     1      37.789   1.780   8.116  1.00  0.00    -0.156 N 
HETATM   25  C12 UNL     1      38.517   2.869   7.799  1.00  0.00     0.680 A 
ATOM     26  H4  UNL     1      37.722   1.014   7.446  1.00  0.00     0.187 HD
HETATM   27  N6  UNL     1      38.637   3.909   8.649  1.00  0.00    -0.176 N 
ATOM     28  H6  UNL     1      39.194   4.721   8.386  1.00  0.00     0.186 HD
BRANCH  25  29
HETATM   29  N5  UNL     1      39.126   2.963   6.674  1.00  0.00    -0.234 N 
ATOM     30  H52 UNL     1      39.120   2.139   6.074  1.00  0.00     0.174 HD
ATOM     31  H51 UNL     1      39.594   3.824   6.393  1.00  0.00     0.174 HD
ENDBRANCH  25  29
ENDBRANCH   1  17
TORSDOF 8
ENDMDL
MODEL 2
REMARK VINA RESULT: -7.493133639      3.028      4.658
REMARK  8 active torsions:
REMARK  status: ('A' for Active; 'I' for Inactive)
REMARK    1  A    between atoms: N1_1  and  C1_4 
REMARK    2  A    between atoms: N2_7  and  C4_8 
REMARK    3  A    between atoms: C4_8  and  C5_9 
REMARK    4  A    between atoms: C5_9  and  O1_10 
REMARK    5  A    between atoms: O1_10  and  C6_11 
REMARK    6  A    between atoms: C6_11  and  C7_12 
REMARK    7  A    between atoms: C7_12  and  N3_13 
REMARK    8  A    between atoms: C12_21  and  N5_22 
ROOT
HETATM    1  C7  UNL     1      38.717   5.340   8.450  1.00  0.00     0.156 C 
ENDROOT
BRANCH   1   2
HETATM    2  C6  UNL     1      39.429   6.432   9.242  1.00  0.00     0.188 C 
BRANCH   2   3
HETATM    3  O1  UNL     1      38.460   7.255   9.742  1.00  0.00    -0.388 OA
BRANCH   3   4
HETATM    4  C5  UNL     1      38.634   8.579   9.405  1.00  0.00     0.188 C 
BRANCH   4   5
HETATM    5  C4  UNL     1      39.947   8.889   8.773  1.00  0.00     0.159 C 
BRANCH   5   6
HETATM    6  N2  UNL     1      40.869   9.531   9.695  1.00  0.00    -0.308 N 
HETATM    7  C3  UNL     1      40.493  10.659  10.326  1.00  0.00     0.099 A 
HETATM    8  C2  UNL     1      41.398  11.237  11.193  1.00  0.00     0.065 A 
HETATM    9  C1  UNL     1      42.649  10.670  11.400  1.00  0.00     0.103 A 
HETATM   10  N7  UNL     1      42.981   9.546  10.750  1.00  0.00    -0.295 N 
HETATM   11  C14 UNL     1      42.083   8.994   9.905  1.00  0.00     0.328 A 
ATOM     12  H7  UNL     1      43.895   9.115  10.890  1.00  0.00     0.172 HD
HETATM   13  O3  UNL     1      42.378   7.936   9.285  1.00  0.00    -0.246 OA
BRANCH   9  14
HETATM   14  N1  UNL     1      43.463  11.251  12.223  1.00  0.00    -0.385 N 
ATOM     15  H12 UNL     1      43.589  10.920  13.180  1.00  0.00     0.157 HD
ATOM     16  H11 UNL     1      43.989  12.062  11.897  1.00  0.00     0.157 HD
ENDBRANCH   9  14
ENDBRANCH   5   6
ENDBRANCH   4   5
ENDBRANCH   3   4
ENDBRANCH   2   3
ENDBRANCH   1   2
BRANCH   1  17
HETATM   17  N3  UNL     1      39.149   5.439   7.060  1.00  0.00    -0.340 N 
HETATM   18  C8  UNL     1      39.346   6.567   6.340  1.00  0.00     0.094 A 
HETATM   19  C9  UNL     1      39.752   6.248   5.064  1.00  0.00     0.038 A 
HETATM   20  C10 UNL     1      39.808   4.879   4.989  1.00  0.00     0.078 A 
HETATM   21  C11 UNL     1      40.153   4.030   3.952  1.00  0.00     0.273 A 
HETATM   22  C13 UNL     1      39.431   4.413   6.236  1.00  0.00     0.139 A 
HETATM   23  O2  UNL     1      40.496   4.446   2.818  1.00  0.00    -0.267 OA
HETATM   24  N4  UNL     1      40.103   2.711   4.213  1.00  0.00    -0.156 N 
HETATM   25  C12 UNL     1      39.736   2.241   5.422  1.00  0.00     0.680 A 
ATOM     26  H4  UNL     1      40.348   2.049   3.476  1.00  0.00     0.187 HD
HETATM   27  N6  UNL     1      39.402   3.072   6.430  1.00  0.00    -0.176 N 
ATOM     28  H6  UNL     1      39.128   2.692   7.336  1.00  0.00     0.186 HD
BRANCH  25  29
HETATM   29  N5  UNL     1      39.691   0.983   5.666  1.00  0.00    -0.234 N 
ATOM     30  H52 UNL     1      39.603   0.359   4.865  1.00  0.00     0.174 HD
ATOM     31  H51 UNL     1      39.740   0.623   6.619  1.00  0.00     0.174 HD
ENDBRANCH  25  29
ENDBRANCH   1  17
TORSDOF 8
ENDMDL
MODEL 3
REMARK VINA RESULT: -7.397333747      1.277      2.215
REMARK  8 active torsions:
REMARK  status: ('A' for Active; 'I' for Inactive)
REMARK    1  A    between atoms: N1_1  and  C1_4 
REMARK    2  A    between atoms: N2_7  and  C4_8 
REMARK    3  A    between atoms: C4_8  and  C5_9 
REMARK    4  A    between atoms: C5_9  and  O1_10 
REMARK    5  A    between atoms: O1_10  and  C6_11 
REMARK    6  A    between atoms: C6_11  and  C7_12 
REMARK    7  A    between atoms: C7_12  and  N3_13 
REMARK    8  A    between atoms: C12_21  and  N5_22 
ROOT
HETATM    1  C7  UNL     1      38.618   5.855  11.126  1.00  0.00     0.156 C 
ENDROOT
BRANCH   1   2
HETATM    2  C6  UNL     1      37.619   7.004  11.050  1.00  0.00     0.188 C 
BRANCH   2   3
HETATM    3  O1  UNL     1      38.287   8.137  11.416  1.00  0.00    -0.388 OA
BRANCH   3   4
HETATM    4  C5  UNL     1      38.241   9.135  10.468  1.00  0.00     0.188 C 
BRANCH   4   5
HETATM    5  C4  UNL     1      39.571   9.542   9.933  1.00  0.00     0.159 C 
BRANCH   5   6
HETATM    6  N2  UNL     1      40.011   8.695   8.836  1.00  0.00    -0.308 N 
HETATM    7  C3  UNL     1      39.149   8.395   7.848  1.00  0.00     0.099 A 
HETATM    8  C2  UNL     1      39.605   7.589   6.825  1.00  0.00     0.065 A 
HETATM    9  C1  UNL     1      40.909   7.108   6.826  1.00  0.00     0.103 A 
HETATM   10  N7  UNL     1      41.733   7.432   7.831  1.00  0.00    -0.295 N 
HETATM   11  C14 UNL     1      41.269   8.222   8.823  1.00  0.00     0.328 A 
ATOM     12  H7  UNL     1      42.694   7.088   7.848  1.00  0.00     0.172 HD
HETATM   13  O3  UNL     1      42.031   8.539   9.778  1.00  0.00    -0.246 OA
BRANCH   9  14
HETATM   14  N1  UNL     1      41.290   6.354   5.844  1.00  0.00    -0.385 N 
ATOM     15  H12 UNL     1      40.840   5.461   5.644  1.00  0.00     0.157 HD
ATOM     16  H11 UNL     1      42.064   6.670   5.260  1.00  0.00     0.157 HD
ENDBRANCH   9  14
ENDBRANCH   5   6
ENDBRANCH   4   5
ENDBRANCH   3   4
ENDBRANCH   2   3
ENDBRANCH   1   2
BRANCH   1  17
HETATM   17  N3  UNL     1      38.183   4.818  10.194  1.00  0.00    -0.340 N 
HETATM   18  C8  UNL     1      38.371   4.787   8.856  1.00  0.00     0.094 A 
HETATM   19  C9  UNL     1      37.814   3.645   8.327  1.00  0.00     0.038 A 
HETATM   20  C10 UNL     1      37.262   2.945   9.371  1.00  0.00     0.078 A 
HETATM   21  C11 UNL     1      36.583   1.739   9.410  1.00  0.00     0.273 A 
HETATM   22  C13 UNL     1      37.508   3.697  10.505  1.00  0.00     0.139 A 
HETATM   23  O2  UNL     1      36.357   1.053   8.384  1.00  0.00    -0.267 OA
HETATM   24  N4  UNL     1      36.165   1.325  10.620  1.00  0.00    -0.156 N 
HETATM   25  C12 UNL     1      36.397   2.046  11.736  1.00  0.00     0.680 A 
ATOM     26  H4  UNL     1      35.660   0.442  10.695  1.00  0.00     0.187 HD
HETATM   27  N6  UNL     1      37.059   3.219  11.692  1.00  0.00    -0.176 N 
ATOM     28  H6  UNL     1      37.221   3.747  12.550  1.00  0.00     0.186 HD
BRANCH  25  29
HETATM   29  N5  UNL     1      35.997   1.646  12.886  1.00  0.00    -0.234 N 
ATOM     30  H52 UNL     1      35.558   0.726  12.930  1.00  0.00     0.174 HD
ATOM     31  H51 UNL     1      36.112   2.222  13.720  1.00  0.00     0.174 HD
ENDBRANCH  25  29
ENDBRANCH   1  17
TORSDOF 8
ENDMDL
MODEL 4
REMARK VINA RESULT: -7.374069855      3.017      4.980
REMARK  8 active torsions:
REMARK  status: ('A' for Active; 'I' for Inactive)
REMARK    1  A    between atoms: N1_1  and  C1_4 
REMARK    2  A    between atoms: N2_7  and  C4_8 
REMARK    3  A    between atoms: C4_8  and  C5_9 
REMARK    4  A    between atoms: C5_9  and  O1_10 
REMARK    5  A    between atoms: O1_10  and  C6_11 
REMARK    6  A    between atoms: C6_11  and  C7_12 
REMARK    7  A    between atoms: C7_12  and  N3_13 
REMARK    8  A    between atoms: C12_21  and  N5_22 
ROOT
HETATM    1  C7  UNL     1      39.014   5.373   8.567  1.00  0.00     0.156 C 
ENDROOT
BRANCH   1   2
HETATM    2  C6  UNL     1      39.759   6.450   9.347  1.00  0.00     0.188 C 
BRANCH   2   3
HETATM    3  O1  UNL     1      39.017   6.719  10.461  1.00  0.00    -0.388 OA
BRANCH   3   4
HETATM    4  C5  UNL     1      37.968   7.581  10.230  1.00  0.00     0.188 C 
BRANCH   4   5
HETATM    5  C4  UNL     1      38.352   8.860   9.569  1.00  0.00     0.159 C 
BRANCH   5   6
HETATM    6  N2  UNL     1      38.915   9.821  10.504  1.00  0.00    -0.308 N 
HETATM    7  C3  UNL     1      38.177  10.233  11.550  1.00  0.00     0.099 A 
HETATM    8  C2  UNL     1      38.747  11.146  12.414  1.00  0.00     0.065 A 
HETATM    9  C1  UNL     1      40.036  11.618  12.201  1.00  0.00     0.103 A 
HETATM   10  N7  UNL     1      40.735  11.180  11.145  1.00  0.00    -0.295 N 
HETATM   11  C14 UNL     1      40.161  10.286  10.311  1.00  0.00     0.328 A 
ATOM     12  H7  UNL     1      41.683  11.515  10.974  1.00  0.00     0.172 HD
HETATM   13  O3  UNL     1      40.803   9.862   9.311  1.00  0.00    -0.246 OA
BRANCH   9  14
HETATM   14  N1  UNL     1      40.527  12.474  13.039  1.00  0.00    -0.385 N 
ATOM     15  H12 UNL     1      39.988  12.823  13.832  1.00  0.00     0.157 HD
ATOM     16  H11 UNL     1      41.482  12.804  12.896  1.00  0.00     0.157 HD
ENDBRANCH   9  14
ENDBRANCH   5   6
ENDBRANCH   4   5
ENDBRANCH   3   4
ENDBRANCH   2   3
ENDBRANCH   1   2
BRANCH   1  17
HETATM   17  N3  UNL     1      39.378   5.504   7.159  1.00  0.00    -0.340 N 
HETATM   18  C8  UNL     1      39.597   6.648   6.472  1.00  0.00     0.094 A 
HETATM   19  C9  UNL     1      39.920   6.360   5.165  1.00  0.00     0.038 A 
HETATM   20  C10 UNL     1      39.899   4.993   5.037  1.00  0.00     0.078 A 
HETATM   21  C11 UNL     1      40.145   4.169   3.953  1.00  0.00     0.273 A 
HETATM   22  C13 UNL     1      39.563   4.499   6.285  1.00  0.00     0.139 A 
HETATM   23  O2  UNL     1      40.451   4.612   2.819  1.00  0.00    -0.267 OA
HETATM   24  N4  UNL     1      40.038   2.845   4.168  1.00  0.00    -0.156 N 
HETATM   25  C12 UNL     1      39.711   2.347   5.377  1.00  0.00     0.680 A 
ATOM     26  H4  UNL     1      40.210   2.202   3.396  1.00  0.00     0.187 HD
HETATM   27  N6  UNL     1      39.473   3.154   6.431  1.00  0.00    -0.176 N 
ATOM     28  H6  UNL     1      39.226   2.753   7.335  1.00  0.00     0.186 HD
BRANCH  25  29
HETATM   29  N5  UNL     1      39.612   1.085   5.577  1.00  0.00    -0.234 N 
ATOM     30  H52 UNL     1      40.474   0.578   5.773  1.00  0.00     0.174 HD
ATOM     31  H51 UNL     1      38.710   0.609   5.541  1.00  0.00     0.174 HD
ENDBRANCH  25  29
ENDBRANCH   1  17
TORSDOF 8
ENDMDL
MODEL 5
REMARK VINA RESULT: -7.370871072      3.100      5.149
REMARK  8 active torsions:
REMARK  status: ('A' for Active; 'I' for Inactive)
REMARK    1  A    between atoms: N1_1  and  C1_4 
REMARK    2  A    between atoms: N2_7  and  C4_8 
REMARK    3  A    between atoms: C4_8  and  C5_9 
REMARK    4  A    between atoms: C5_9  and  O1_10 
REMARK    5  A    between atoms: O1_10  and  C6_11 
REMARK    6  A    between atoms: C6_11  and  C7_12 
REMARK    7  A    between atoms: C7_12  and  N3_13 
REMARK    8  A    between atoms: C12_21  and  N5_22 
ROOT
HETATM    1  C7  UNL     1      38.168   6.721  11.223  1.00  0.00     0.156 C 
ENDROOT
BRANCH   1   2
HETATM    2  C6  UNL     1      37.497   8.068  11.470  1.00  0.00     0.188 C 
BRANCH   2   3
HETATM    3  O1  UNL     1      37.920   8.504  12.693  1.00  0.00    -0.388 OA
BRANCH   3   4
HETATM    4  C5  UNL     1      37.537   9.795  12.980  1.00  0.00     0.188 C 
BRANCH   4   5
HETATM    5  C4  UNL     1      37.998  10.811  11.993  1.00  0.00     0.159 C 
BRANCH   5   6
HETATM    6  N2  UNL     1      39.427  11.063  12.081  1.00  0.00    -0.308 N 
HETATM    7  C3  UNL     1      39.934  11.600  13.206  1.00  0.00     0.099 A 
HETATM    8  C2  UNL     1      41.295  11.823  13.250  1.00  0.00     0.065 A 
HETATM    9  C1  UNL     1      42.104  11.503  12.167  1.00  0.00     0.103 A 
HETATM   10  N7  UNL     1      41.556  10.969  11.066  1.00  0.00    -0.295 N 
HETATM   11  C14 UNL     1      40.223  10.758  11.042  1.00  0.00     0.328 A 
ATOM     12  H7  UNL     1      42.135  10.727  10.262  1.00  0.00     0.172 HD
HETATM   13  O3  UNL     1      39.689  10.256  10.014  1.00  0.00    -0.246 OA
BRANCH   9  14
HETATM   14  N1  UNL     1      43.376  11.731  12.256  1.00  0.00    -0.385 N 
ATOM     15  H12 UNL     1      43.742  12.655  12.486  1.00  0.00     0.157 HD
ATOM     16  H11 UNL     1      44.022  10.960  12.090  1.00  0.00     0.157 HD
ENDBRANCH   9  14
ENDBRANCH   5   6
ENDBRANCH   4   5
ENDBRANCH   3   4
ENDBRANCH   2   3
ENDBRANCH   1   2
BRANCH   1  17
HETATM   17  N3  UNL     1      38.394   6.588   9.787  1.00  0.00    -0.340 N 
HETATM   18  C8  UNL     1      37.543   6.081   8.866  1.00  0.00     0.094 A 
HETATM   19  C9  UNL     1      38.118   6.125   7.616  1.00  0.00     0.038 A 
HETATM   20  C10 UNL     1      39.366   6.677   7.766  1.00  0.00     0.078 A 
HETATM   21  C11 UNL     1      40.364   6.954   6.848  1.00  0.00     0.273 A 
HETATM   22  C13 UNL     1      39.502   6.951   9.115  1.00  0.00     0.139 A 
HETATM   23  O2  UNL     1      40.246   6.708   5.622  1.00  0.00    -0.267 OA
HETATM   24  N4  UNL     1      41.490   7.508   7.332  1.00  0.00    -0.156 N 
HETATM   25  C12 UNL     1      41.638   7.781   8.644  1.00  0.00     0.680 A 
ATOM     26  H4  UNL     1      42.251   7.728   6.690  1.00  0.00     0.187 HD
HETATM   27  N6  UNL     1      40.663   7.510   9.535  1.00  0.00    -0.176 N 
ATOM     28  H6  UNL     1      40.800   7.724  10.523  1.00  0.00     0.186 HD
BRANCH  25  29
HETATM   29  N5  UNL     1      42.713   8.310   9.101  1.00  0.00    -0.234 N 
ATOM     30  H52 UNL     1      43.134   9.055   8.547  1.00  0.00     0.174 HD
ATOM     31  H51 UNL     1      43.129   7.998   9.979  1.00  0.00     0.174 HD
ENDBRANCH  25  29
ENDBRANCH   1  17
TORSDOF 8
ENDMDL
