MODEL 1
REMARK VINA RESULT: -7.344971111      0.000      0.000
REMARK  9 active torsions:
REMARK  status: ('A' for Active; 'I' for Inactive)
REMARK    1  A    between atoms: C3_8  and  C4_9 
REMARK    2  A    between atoms: C4_9  and  N4_10 
REMARK    3  A    between atoms: N4_10  and  C5_11 
REMARK    4  A    between atoms: C8_18  and  N7_19 
REMARK    5  A    between atoms: N7_19  and  C9_21 
REMARK    6  A    between atoms: C9_21  and  C10_22 
REMARK    7  A    between atoms: C10_22  and  C11_23 
REMARK    8  A    between atoms: C11_23  and  C12_24 
REMARK    9  A    between atoms: C12_24  and  O1_25 
ROOT
HETATM    1  C5  UNL     1      40.332   7.430   7.434  1.00  0.00     0.208 A 
HETATM    2  N5  UNL     1      41.608   7.623   7.922  1.00  0.00    -0.325 N 
ATOM      3  H5  UNL     1      42.405   7.211   7.436  1.00  0.00     0.169 HD
HETATM    4  C6  UNL     1      41.805   8.337   9.016  1.00  0.00     0.183 A 
HETATM    5  N6  UNL     1      40.813   8.917   9.709  1.00  0.00    -0.347 N 
ATOM      6  H6  UNL     1      41.010   9.462  10.549  1.00  0.00     0.167 HD
HETATM    7  C7  UNL     1      39.533   8.758   9.261  1.00  0.00     0.109 A 
HETATM    8  C8  UNL     1      38.482   9.369   9.999  1.00  0.00     0.135 A 
HETATM    9  N8  UNL     1      37.286   9.157   9.513  1.00  0.00    -0.337 N 
ATOM     10  H8  UNL     1      36.491   9.577   9.995  1.00  0.00     0.168 HD
HETATM   11  C13 UNL     1      37.040   8.412   8.404  1.00  0.00     0.182 A 
HETATM   12  N9  UNL     1      38.037   7.829   7.686  1.00  0.00    -0.346 N 
ATOM     13  H9  UNL     1      37.849   7.281   6.847  1.00  0.00     0.167 HD
HETATM   14  C14 UNL     1      39.268   8.017   8.140  1.00  0.00     0.123 A 
ENDROOT
BRANCH   1  15
HETATM   15  N4  UNL     1      40.146   6.900   6.358  1.00  0.00    -0.395 NA
BRANCH  15  16
HETATM   16  C4  UNL     1      39.920   6.351   5.149  1.00  0.00     0.218 C 
BRANCH  16  17
HETATM   17  C3  UNL     1      39.990   4.876   5.344  1.00  0.00     0.103 A 
HETATM   18  C1  UNL     1      40.217   4.012   4.243  1.00  0.00     0.146 A 
HETATM   19  N1  UNL     1      40.691   4.448   2.959  1.00  0.00    -0.080 NA
HETATM   20  N2  UNL     1      40.080   2.753   4.648  1.00  0.00    -0.339 N 
HETATM   21  C2  UNL     1      39.785   2.832   5.924  1.00  0.00     0.182 A 
ATOM     22  H2  UNL     1      40.182   1.907   4.087  1.00  0.00     0.167 HD
HETATM   23  N3  UNL     1      39.723   4.093   6.402  1.00  0.00    -0.348 N 
ATOM     24  H3  UNL     1      39.519   4.386   7.357  1.00  0.00     0.167 HD
ENDBRANCH  16  17
ENDBRANCH  15  16
ENDBRANCH   1  15
BRANCH   8  25
HETATM   25  N7  UNL     1      38.859  10.029  10.985  1.00  0.00    -0.354 N 
ATOM     26  H7  UNL     1      39.843   9.830  11.163  1.00  0.00     0.166 HD
BRANCH  25  27
HETATM   27  C9  UNL     1      38.404  10.938  11.924  1.00  0.00     0.062 C 
BRANCH  27  28
HETATM   28  C10 UNL     1      39.454  11.981  12.229  1.00  0.00     0.046 C 
BRANCH  28  29
HETATM   29  C11 UNL     1      40.244  11.674  13.426  1.00  0.00     0.031 C 
BRANCH  29  30
HETATM   30  C12 UNL     1      41.709  11.757  12.896  1.00  0.00     0.164 C 
BRANCH  30  31
HETATM   31  O1  UNL     1      41.648  11.106  11.658  1.00  0.00    -0.401 OA
ATOM     32  H1  UNL     1      42.449  11.376  11.224  1.00  0.00     0.209 HD
ENDBRANCH  30  31
ENDBRANCH  29  30
ENDBRANCH  28  29
ENDBRANCH  27  28
ENDBRANCH  25  27
ENDBRANCH   8  25
TORSDOF 9
ENDMDL
MODEL 2
REMARK VINA RESULT: -7.007369613      0.971      1.249
REMARK  9 active torsions:
REMARK  status: ('A' for Active; 'I' for Inactive)
REMARK    1  A    between atoms: C3_8  and  C4_9 
REMARK    2  A    between atoms: C4_9  and  N4_10 
REMARK    3  A    between atoms: N4_10  and  C5_11 
REMARK    4  A    between atoms: C8_18  and  N7_19 
REMARK    5  A    between atoms: N7_19  and  C9_21 
REMARK    6  A    between atoms: C9_21  and  C10_22 
REMARK    7  A    between atoms: C10_22  and  C11_23 
REMARK    8  A    between atoms: C11_23  and  C12_24 
REMARK    9  A    between atoms: C12_24  and  O1_25 
ROOT
HETATM    1  C5  UNL     1      40.369   7.451   7.393  1.00  0.00     0.208 A 
HETATM    2  N5  UNL     1      41.667   7.656   7.814  1.00  0.00    -0.325 N 
ATOM      3  H5  UNL     1      42.441   7.242   7.295  1.00  0.00     0.169 HD
HETATM    4  C6  UNL     1      41.914   8.388   8.886  1.00  0.00     0.183 A 
HETATM    5  N6  UNL     1      40.956   8.973   9.620  1.00  0.00    -0.347 N 
ATOM      6  H6  UNL     1      41.192   9.531  10.441  1.00  0.00     0.167 HD
HETATM    7  C7  UNL     1      39.655   8.802   9.238  1.00  0.00     0.109 A 
HETATM    8  C8  UNL     1      38.639   9.418  10.019  1.00  0.00     0.135 A 
HETATM    9  N8  UNL     1      37.421   9.194   9.597  1.00  0.00    -0.337 N 
ATOM     10  H8  UNL     1      36.649   9.617  10.112  1.00  0.00     0.168 HD
HETATM   11  C13 UNL     1      37.124   8.432   8.512  1.00  0.00     0.182 A 
HETATM   12  N9  UNL     1      38.088   7.843   7.753  1.00  0.00    -0.346 N 
ATOM     13  H9  UNL     1      37.861   7.281   6.933  1.00  0.00     0.167 HD
HETATM   14  C14 UNL     1      39.338   8.043   8.143  1.00  0.00     0.123 A 
ENDROOT
BRANCH   1  15
HETATM   15  N4  UNL     1      40.133   6.905   6.335  1.00  0.00    -0.395 NA
BRANCH  15  16
HETATM   16  C4  UNL     1      39.861   6.340   5.143  1.00  0.00     0.218 C 
BRANCH  16  17
HETATM   17  C3  UNL     1      39.966   4.869   5.347  1.00  0.00     0.103 A 
HETATM   18  C1  UNL     1      40.216   4.003   4.252  1.00  0.00     0.146 A 
HETATM   19  N1  UNL     1      40.681   4.443   2.966  1.00  0.00    -0.080 NA
HETATM   20  N2  UNL     1      40.109   2.744   4.665  1.00  0.00    -0.339 N 
HETATM   21  C2  UNL     1      39.810   2.823   5.940  1.00  0.00     0.182 A 
ATOM     22  H2  UNL     1      40.232   1.897   4.109  1.00  0.00     0.167 HD
HETATM   23  N3  UNL     1      39.717   4.086   6.410  1.00  0.00    -0.348 N 
ATOM     24  H3  UNL     1      39.505   4.380   7.362  1.00  0.00     0.167 HD
ENDBRANCH  16  17
ENDBRANCH  15  16
ENDBRANCH   1  15
BRANCH   8  25
HETATM   25  N7  UNL     1      39.061  10.094  10.976  1.00  0.00    -0.354 N 
ATOM     26  H7  UNL     1      40.081  10.091  10.962  1.00  0.00     0.166 HD
BRANCH  25  27
HETATM   27  C9  UNL     1      38.625  10.847  12.051  1.00  0.00     0.062 C 
BRANCH  27  28
HETATM   28  C10 UNL     1      39.671  11.853  12.475  1.00  0.00     0.046 C 
BRANCH  28  29
HETATM   29  C11 UNL     1      39.098  13.115  12.957  1.00  0.00     0.031 C 
BRANCH  29  30
HETATM   30  C12 UNL     1      38.034  13.442  11.864  1.00  0.00     0.164 C 
BRANCH  30  31
HETATM   31  O1  UNL     1      38.805  13.758  10.739  1.00  0.00    -0.401 OA
ATOM     32  H1  UNL     1      38.178  14.151  10.142  1.00  0.00     0.209 HD
ENDBRANCH  30  31
ENDBRANCH  29  30
ENDBRANCH  28  29
ENDBRANCH  27  28
ENDBRANCH  25  27
ENDBRANCH   8  25
TORSDOF 9
ENDMDL
MODEL 3
REMARK VINA RESULT: -6.989405398      1.253      1.565
REMARK  9 active torsions:
REMARK  status: ('A' for Active; 'I' for Inactive)
REMARK    1  A    between atoms: C3_8  and  C4_9 
REMARK    2  A    between atoms: C4_9  and  N4_10 
REMARK    3  A    between atoms: N4_10  and  C5_11 
REMARK    4  A    between atoms: C8_18  and  N7_19 
REMARK    5  A    between atoms: N7_19  and  C9_21 
REMARK    6  A    between atoms: C9_21  and  C10_22 
REMARK    7  A    between atoms: C10_22  and  C11_23 
REMARK    8  A    between atoms: C11_23  and  C12_24 
REMARK    9  A    between atoms: C12_24  and  O1_25 
ROOT
HETATM    1  C5  UNL     1      40.317   7.377   7.255  1.00  0.00     0.208 A 
HETATM    2  N5  UNL     1      41.662   7.578   7.494  1.00  0.00    -0.325 N 
ATOM      3  H5  UNL     1      42.356   7.127   6.898  1.00  0.00     0.169 HD
HETATM    4  C6  UNL     1      42.055   8.351   8.491  1.00  0.00     0.183 A 
HETATM    5  N6  UNL     1      41.208   8.985   9.315  1.00  0.00    -0.347 N 
ATOM      6  H6  UNL     1      41.555   9.574  10.072  1.00  0.00     0.167 HD
HETATM    7  C7  UNL     1      39.866   8.821   9.113  1.00  0.00     0.109 A 
HETATM    8  C8  UNL     1      38.969   9.489   9.990  1.00  0.00     0.135 A 
HETATM    9  N8  UNL     1      37.703   9.268   9.740  1.00  0.00    -0.337 N 
ATOM     10  H8  UNL     1      37.010   9.727  10.331  1.00  0.00     0.168 HD
HETATM   11  C13 UNL     1      37.258   8.465   8.740  1.00  0.00     0.182 A 
HETATM   12  N9  UNL     1      38.108   7.826   7.890  1.00  0.00    -0.346 N 
ATOM     13  H9  UNL     1      37.769   7.233   7.133  1.00  0.00     0.167 HD
HETATM   14  C14 UNL     1      39.400   8.021   8.104  1.00  0.00     0.123 A 
ENDROOT
BRANCH   1  15
HETATM   15  N4  UNL     1      39.939   6.790   6.263  1.00  0.00    -0.395 NA
BRANCH  15  16
HETATM   16  C4  UNL     1      39.523   6.176   5.138  1.00  0.00     0.218 C 
BRANCH  16  17
HETATM   17  C3  UNL     1      39.745   4.720   5.354  1.00  0.00     0.103 A 
HETATM   18  C1  UNL     1      40.146   3.883   4.281  1.00  0.00     0.146 A 
HETATM   19  N1  UNL     1      40.659   4.366   3.029  1.00  0.00    -0.080 NA
HETATM   20  N2  UNL     1      40.123   2.618   4.690  1.00  0.00    -0.339 N 
HETATM   21  C2  UNL     1      39.731   2.666   5.940  1.00  0.00     0.182 A 
ATOM     22  H2  UNL     1      40.360   1.787   4.147  1.00  0.00     0.167 HD
HETATM   23  N3  UNL     1      39.493   3.915   6.399  1.00  0.00    -0.348 N 
ATOM     24  H3  UNL     1      39.189   4.186   7.333  1.00  0.00     0.167 HD
ENDBRANCH  16  17
ENDBRANCH  15  16
ENDBRANCH   1  15
BRANCH   8  25
HETATM   25  N7  UNL     1      39.520  10.199  10.852  1.00  0.00    -0.354 N 
ATOM     26  H7  UNL     1      40.368   9.732  11.176  1.00  0.00     0.166 HD
BRANCH  25  27
HETATM   27  C9  UNL     1      39.380  11.400  11.523  1.00  0.00     0.062 C 
BRANCH  27  28
HETATM   28  C10 UNL     1      39.028  11.179  12.976  1.00  0.00     0.046 C 
BRANCH  28  29
HETATM   29  C11 UNL     1      37.619  10.829  13.183  1.00  0.00     0.031 C 
BRANCH  29  30
HETATM   30  C12 UNL     1      37.715   9.459  13.922  1.00  0.00     0.164 C 
BRANCH  30  31
HETATM   31  O1  UNL     1      37.742   8.525  12.879  1.00  0.00    -0.401 OA
ATOM     32  H1  UNL     1      36.823   8.391  12.675  1.00  0.00     0.209 HD
ENDBRANCH  30  31
ENDBRANCH  29  30
ENDBRANCH  28  29
ENDBRANCH  27  28
ENDBRANCH  25  27
ENDBRANCH   8  25
TORSDOF 9
ENDMDL
MODEL 4
REMARK VINA RESULT: -6.898793140      0.814      1.157
REMARK  9 active torsions:
REMARK  status: ('A' for Active; 'I' for Inactive)
REMARK    1  A    between atoms: C3_8  and  C4_9 
REMARK    2  A    between atoms: C4_9  and  N4_10 
REMARK    3  A    between atoms: N4_10  and  C5_11 
REMARK    4  A    between atoms: C8_18  and  N7_19 
REMARK    5  A    between atoms: N7_19  and  C9_21 
REMARK    6  A    between atoms: C9_21  and  C10_22 
REMARK    7  A    between atoms: C10_22  and  C11_23 
REMARK    8  A    between atoms: C11_23  and  C12_24 
REMARK    9  A    between atoms: C12_24  and  O1_25 
ROOT
HETATM    1  C5  UNL     1      40.496   7.431   7.407  1.00  0.00     0.208 A 
HETATM    2  N5  UNL     1      41.762   7.702   7.887  1.00  0.00    -0.325 N 
ATOM      3  H5  UNL     1      42.577   7.311   7.415  1.00  0.00     0.169 HD
HETATM    4  C6  UNL     1      41.924   8.464   8.953  1.00  0.00     0.183 A 
HETATM    5  N6  UNL     1      40.907   9.021   9.627  1.00  0.00    -0.347 N 
ATOM      6  H6  UNL     1      41.078   9.605  10.446  1.00  0.00     0.167 HD
HETATM    7  C7  UNL     1      39.635   8.786   9.186  1.00  0.00     0.109 A 
HETATM    8  C8  UNL     1      38.557   9.373   9.903  1.00  0.00     0.135 A 
HETATM    9  N8  UNL     1      37.372   9.088   9.427  1.00  0.00    -0.337 N 
ATOM     10  H8  UNL     1      36.558   9.487   9.895  1.00  0.00     0.168 HD
HETATM   11  C13 UNL     1      37.161   8.292   8.347  1.00  0.00     0.182 A 
HETATM   12  N9  UNL     1      38.186   7.731   7.648  1.00  0.00    -0.346 N 
ATOM     13  H9  UNL     1      38.023   7.144   6.831  1.00  0.00     0.167 HD
HETATM   14  C14 UNL     1      39.405   7.993   8.094  1.00  0.00     0.123 A 
ENDROOT
BRANCH   1  15
HETATM   15  N4  UNL     1      40.336   6.855   6.352  1.00  0.00    -0.395 NA
BRANCH  15  16
HETATM   16  C4  UNL     1      40.194   6.239   5.162  1.00  0.00     0.218 C 
BRANCH  16  17
HETATM   17  C3  UNL     1      39.756   4.848   5.466  1.00  0.00     0.103 A 
HETATM   18  C1  UNL     1      38.395   4.564   5.743  1.00  0.00     0.146 A 
HETATM   19  N1  UNL     1      37.310   5.465   5.468  1.00  0.00    -0.080 NA
HETATM   20  N2  UNL     1      38.290   3.297   6.132  1.00  0.00    -0.339 N 
HETATM   21  C2  UNL     1      39.513   2.824   6.098  1.00  0.00     0.182 A 
ATOM     22  H2  UNL     1      37.440   2.799   6.400  1.00  0.00     0.167 HD
HETATM   23  N3  UNL     1      40.442   3.717   5.695  1.00  0.00    -0.348 N 
ATOM     24  H3  UNL     1      41.445   3.565   5.589  1.00  0.00     0.167 HD
ENDBRANCH  16  17
ENDBRANCH  15  16
ENDBRANCH   1  15
BRANCH   8  25
HETATM   25  N7  UNL     1      38.901  10.086  10.864  1.00  0.00    -0.354 N 
ATOM     26  H7  UNL     1      39.918  10.067  10.945  1.00  0.00     0.166 HD
BRANCH  25  27
HETATM   27  C9  UNL     1      38.383  10.894  11.860  1.00  0.00     0.062 C 
BRANCH  27  28
HETATM   28  C10 UNL     1      39.369  11.967  12.262  1.00  0.00     0.046 C 
BRANCH  28  29
HETATM   29  C11 UNL     1      40.167  11.608  13.439  1.00  0.00     0.031 C 
BRANCH  29  30
HETATM   30  C12 UNL     1      41.628  11.792  12.925  1.00  0.00     0.164 C 
BRANCH  30  31
HETATM   31  O1  UNL     1      41.635  11.110  11.703  1.00  0.00    -0.401 OA
ATOM     32  H1  UNL     1      42.366  11.497  11.235  1.00  0.00     0.209 HD
ENDBRANCH  30  31
ENDBRANCH  29  30
ENDBRANCH  28  29
ENDBRANCH  27  28
ENDBRANCH  25  27
ENDBRANCH   8  25
TORSDOF 9
ENDMDL
MODEL 5
REMARK VINA RESULT: -6.892647986      2.924      8.240
REMARK  9 active torsions:
REMARK  status: ('A' for Active; 'I' for Inactive)
REMARK    1  A    between atoms: C3_8  and  C4_9 
REMARK    2  A    between atoms: C4_9  and  N4_10 
REMARK    3  A    between atoms: N4_10  and  C5_11 
REMARK    4  A    between atoms: C8_18  and  N7_19 
REMARK    5  A    between atoms: N7_19  and  C9_21 
REMARK    6  A    between atoms: C9_21  and  C10_22 
REMARK    7  A    between atoms: C10_22  and  C11_23 
REMARK    8  A    between atoms: C11_23  and  C12_24 
REMARK    9  A    between atoms: C12_24  and  O1_25 
ROOT
HETATM    1  C5  UNL     1      40.012   9.205   9.440  1.00  0.00     0.208 A 
HETATM    2  N5  UNL     1      41.381   9.167   9.608  1.00  0.00    -0.325 N 
ATOM      3  H5  UNL     1      41.816   9.705  10.358  1.00  0.00     0.169 HD
HETATM    4  C6  UNL     1      42.133   8.436   8.805  1.00  0.00     0.183 A 
HETATM    5  N6  UNL     1      41.641   7.695   7.801  1.00  0.00    -0.347 N 
ATOM      6  H6  UNL     1      42.258   7.144   7.205  1.00  0.00     0.167 HD
HETATM    7  C7  UNL     1      40.289   7.697   7.599  1.00  0.00     0.109 A 
HETATM    8  C8  UNL     1      39.768   6.915   6.532  1.00  0.00     0.135 A 
HETATM    9  N8  UNL     1      38.469   6.983   6.396  1.00  0.00    -0.337 N 
ATOM     10  H8  UNL     1      38.035   6.437   5.652  1.00  0.00     0.168 HD
HETATM   11  C13 UNL     1      37.663   7.738   7.187  1.00  0.00     0.182 A 
HETATM   12  N9  UNL     1      38.150   8.484   8.216  1.00  0.00    -0.346 N 
ATOM     13  H9  UNL     1      37.540   9.040   8.815  1.00  0.00     0.167 HD
HETATM   14  C14 UNL     1      39.462   8.446   8.393  1.00  0.00     0.123 A 
ENDROOT
BRANCH   1  15
HETATM   15  N4  UNL     1      39.297   9.754  10.253  1.00  0.00    -0.395 NA
BRANCH  15  16
HETATM   16  C4  UNL     1      38.507  10.402  11.131  1.00  0.00     0.218 C 
BRANCH  16  17
HETATM   17  C3  UNL     1      39.411  10.926  12.192  1.00  0.00     0.103 A 
HETATM   18  C1  UNL     1      38.943  11.095  13.520  1.00  0.00     0.146 A 
HETATM   19  N1  UNL     1      37.729  10.520  14.028  1.00  0.00    -0.080 NA
HETATM   20  N2  UNL     1      39.880  11.717  14.231  1.00  0.00    -0.339 N 
HETATM   21  C2  UNL     1      40.869  11.921  13.394  1.00  0.00     0.182 A 
ATOM     22  H2  UNL     1      39.838  11.978  15.216  1.00  0.00     0.167 HD
HETATM   23  N3  UNL     1      40.643  11.457  12.145  1.00  0.00    -0.348 N 
ATOM     24  H3  UNL     1      41.272  11.500  11.344  1.00  0.00     0.167 HD
ENDBRANCH  16  17
ENDBRANCH  15  16
ENDBRANCH   1  15
BRANCH   8  25
HETATM   25  N7  UNL     1      40.624   6.268   5.900  1.00  0.00    -0.354 N 
ATOM     26  H7  UNL     1      41.486   6.812   5.852  1.00  0.00     0.166 HD
BRANCH  25  27
HETATM   27  C9  UNL     1      40.810   5.067   5.239  1.00  0.00     0.062 C 
BRANCH  27  28
HETATM   28  C10 UNL     1      40.178   5.094   3.866  1.00  0.00     0.046 C 
BRANCH  28  29
HETATM   29  C11 UNL     1      38.887   4.400   3.809  1.00  0.00     0.031 C 
BRANCH  29  30
HETATM   30  C12 UNL     1      39.230   2.999   4.401  1.00  0.00     0.164 C 
BRANCH  30  31
HETATM   31  O1  UNL     1      39.711   2.284   3.297  1.00  0.00    -0.401 OA
ATOM     32  H1  UNL     1      40.654   2.300   3.414  1.00  0.00     0.209 HD
ENDBRANCH  30  31
ENDBRANCH  29  30
ENDBRANCH  28  29
ENDBRANCH  27  28
ENDBRANCH  25  27
ENDBRANCH   8  25
TORSDOF 9
ENDMDL
