MODEL 1
REMARK VINA RESULT: -6.047306900      0.000      0.000
REMARK  9 active torsions:
REMARK  status: ('A' for Active; 'I' for Inactive)
REMARK    1  A    between atoms: O1_1  and  C1_3 
REMARK    2  A    between atoms: C1_3  and  C2_4 
REMARK    3  A    between atoms: C2_4  and  N1_5 
REMARK    4  A    between atoms: C6_9  and  S1_10 
REMARK    5  A    between atoms: S1_10  and  C7_11 
REMARK    6  A    between atoms: C9_13  and  N2_14 
REMARK    7  A    between atoms: N2_14  and  C10_16 
REMARK    8  A    between atoms: C12_19  and  O3_20 
REMARK    9  A    between atoms: C13_22  and  O4_23 
ROOT
HETATM    1  C7  UNL     1      37.414   7.621  10.686  1.00  0.00     0.251 C 
HETATM    2  C8  UNL     1      36.933   6.269  10.218  1.00  0.00     0.070 C 
HETATM    3  C9  UNL     1      36.966   5.544  11.609  1.00  0.00     0.107 C 
HETATM    4  C14 UNL     1      38.377   5.858  11.922  1.00  0.00     0.258 C 
HETATM    5  N3  UNL     1      38.333   7.342  11.806  1.00  0.00    -0.060 N 
ATOM      6  H31 UNL     1      38.077   7.814  12.673  1.00  0.00     0.278 HD
ATOM      7  H32 UNL     1      39.251   7.773  11.701  1.00  0.00     0.278 HD
ENDROOT
BRANCH   3   8
HETATM    8  N2  UNL     1      36.480   4.254  11.469  1.00  0.00    -0.389 N 
ATOM      9  H2  UNL     1      36.214   3.752  12.316  1.00  0.00     0.156 HD
BRANCH   8  10
HETATM   10  C10 UNL     1      36.331   3.601  10.261  1.00  0.00     0.248 C 
HETATM   11  O2  UNL     1      35.160   2.812  10.241  1.00  0.00    -0.362 OA
HETATM   12  C11 UNL     1      35.278   2.302   8.919  1.00  0.00     0.205 C 
HETATM   13  C12 UNL     1      36.681   1.698   8.929  1.00  0.00     0.175 C 
HETATM   14  C13 UNL     1      37.401   2.617   9.934  1.00  0.00     0.197 C 
BRANCH  13  15
HETATM   15  O3  UNL     1      36.653   0.395   9.407  1.00  0.00    -0.391 OA
ATOM     16  H3  UNL     1      36.419   0.378  10.327  1.00  0.00     0.210 HD
ENDBRANCH  13  15
BRANCH  14  17
HETATM   17  O4  UNL     1      38.555   3.110   9.414  1.00  0.00    -0.389 OA
ATOM     18  H4  UNL     1      38.854   2.734   8.594  1.00  0.00     0.210 HD
ENDBRANCH  14  17
ENDBRANCH   8  10
ENDBRANCH   3   8
BRANCH   1  19
HETATM   19  S1  UNL     1      38.328   8.488   9.378  1.00  0.00    -0.100 SA
BRANCH  19  20
HETATM   20  C6  UNL     1      39.433   7.407   8.506  1.00  0.00     0.286 C 
HETATM   21  N1  UNL     1      39.777   7.832   7.188  1.00  0.00     0.104 N 
HETATM   22  C3  UNL     1      40.764   8.844   7.255  1.00  0.00     0.274 C 
HETATM   23  C4  UNL     1      41.560   8.428   8.490  1.00  0.00     0.033 C 
HETATM   24  C5  UNL     1      40.806   7.328   9.165  1.00  0.00     0.048 C 
BRANCH  21  25
HETATM   25  C2  UNL     1      40.157   6.682   6.412  1.00  0.00     0.299 C 
BRANCH  25  26
HETATM   26  C1  UNL     1      39.125   5.582   6.470  1.00  0.00     0.194 C 
BRANCH  26  27
HETATM   27  O1  UNL     1      39.703   4.366   6.851  1.00  0.00    -0.399 OA
ATOM     28  H1  UNL     1      39.043   3.749   7.144  1.00  0.00     0.209 HD
ENDBRANCH  26  27
ENDBRANCH  25  26
ENDBRANCH  21  25
ENDBRANCH  19  20
ENDBRANCH   1  19
TORSDOF 9
ENDMDL
MODEL 2
REMARK VINA RESULT: -5.979210324      2.675      6.578
REMARK  9 active torsions:
REMARK  status: ('A' for Active; 'I' for Inactive)
REMARK    1  A    between atoms: O1_1  and  C1_3 
REMARK    2  A    between atoms: C1_3  and  C2_4 
REMARK    3  A    between atoms: C2_4  and  N1_5 
REMARK    4  A    between atoms: C6_9  and  S1_10 
REMARK    5  A    between atoms: S1_10  and  C7_11 
REMARK    6  A    between atoms: C9_13  and  N2_14 
REMARK    7  A    between atoms: N2_14  and  C10_16 
REMARK    8  A    between atoms: C12_19  and  O3_20 
REMARK    9  A    between atoms: C13_22  and  O4_23 
ROOT
HETATM    1  C7  UNL     1      36.400   6.793  10.303  1.00  0.00     0.251 C 
HETATM    2  C8  UNL     1      37.172   6.764   9.007  1.00  0.00     0.070 C 
HETATM    3  C9  UNL     1      37.509   8.295   8.931  1.00  0.00     0.107 C 
HETATM    4  C14 UNL     1      36.114   8.773   9.053  1.00  0.00     0.258 C 
HETATM    5  N3  UNL     1      35.735   8.111  10.332  1.00  0.00    -0.060 N 
ATOM      6  H31 UNL     1      35.955   8.663  11.161  1.00  0.00     0.278 HD
ATOM      7  H32 UNL     1      34.728   8.059  10.485  1.00  0.00     0.278 HD
ENDROOT
BRANCH   3   8
HETATM    8  N2  UNL     1      38.309   8.538   7.827  1.00  0.00    -0.389 N 
ATOM      9  H2  UNL     1      37.859   8.575   6.912  1.00  0.00     0.156 HD
BRANCH   8  10
HETATM   10  C10 UNL     1      39.676   8.732   7.879  1.00  0.00     0.248 C 
HETATM   11  O2  UNL     1      40.375   7.649   7.300  1.00  0.00    -0.362 OA
HETATM   12  C11 UNL     1      41.697   8.134   7.488  1.00  0.00     0.205 C 
HETATM   13  C12 UNL     1      41.726   8.428   8.986  1.00  0.00     0.175 C 
HETATM   14  C13 UNL     1      40.256   8.807   9.250  1.00  0.00     0.197 C 
BRANCH  13  15
HETATM   15  O3  UNL     1      42.063   7.290   9.706  1.00  0.00    -0.391 OA
ATOM     16  H3  UNL     1      41.708   6.512   9.292  1.00  0.00     0.210 HD
ENDBRANCH  13  15
BRANCH  14  17
HETATM   17  O4  UNL     1      40.160   9.998   9.896  1.00  0.00    -0.389 OA
ATOM     18  H4  UNL     1      39.652  10.014  10.698  1.00  0.00     0.210 HD
ENDBRANCH  14  17
ENDBRANCH   8  10
ENDBRANCH   3   8
BRANCH   1  19
HETATM   19  S1  UNL     1      35.132   5.494  10.348  1.00  0.00    -0.100 SA
BRANCH  19  20
HETATM   20  C6  UNL     1      35.645   4.092  11.306  1.00  0.00     0.286 C 
HETATM   21  N1  UNL     1      35.760   2.872  10.577  1.00  0.00     0.104 N 
HETATM   22  C3  UNL     1      36.973   2.862   9.848  1.00  0.00     0.274 C 
HETATM   23  C4  UNL     1      37.900   3.652  10.769  1.00  0.00     0.033 C 
HETATM   24  C5  UNL     1      37.061   4.250  11.852  1.00  0.00     0.048 C 
BRANCH  21  25
HETATM   25  C2  UNL     1      35.604   1.768  11.485  1.00  0.00     0.299 C 
BRANCH  25  26
HETATM   26  C1  UNL     1      34.828   0.626  10.877  1.00  0.00     0.194 C 
BRANCH  26  27
HETATM   27  O1  UNL     1      34.379  -0.262  11.861  1.00  0.00    -0.399 OA
ATOM     28  H1  UNL     1      33.896  -0.984  11.478  1.00  0.00     0.209 HD
ENDBRANCH  26  27
ENDBRANCH  25  26
ENDBRANCH  21  25
ENDBRANCH  19  20
ENDBRANCH   1  19
TORSDOF 9
ENDMDL
MODEL 3
REMARK VINA RESULT: -5.837484822      2.712      3.834
REMARK  9 active torsions:
REMARK  status: ('A' for Active; 'I' for Inactive)
REMARK    1  A    between atoms: O1_1  and  C1_3 
REMARK    2  A    between atoms: C1_3  and  C2_4 
REMARK    3  A    between atoms: C2_4  and  N1_5 
REMARK    4  A    between atoms: C6_9  and  S1_10 
REMARK    5  A    between atoms: S1_10  and  C7_11 
REMARK    6  A    between atoms: C9_13  and  N2_14 
REMARK    7  A    between atoms: N2_14  and  C10_16 
REMARK    8  A    between atoms: C12_19  and  O3_20 
REMARK    9  A    between atoms: C13_22  and  O4_23 
ROOT
HETATM    1  C7  UNL     1      37.848   4.932   9.334  1.00  0.00     0.251 C 
HETATM    2  C8  UNL     1      38.345   4.286   8.063  1.00  0.00     0.070 C 
HETATM    3  C9  UNL     1      37.902   2.817   8.390  1.00  0.00     0.107 C 
HETATM    4  C14 UNL     1      38.596   2.724   9.692  1.00  0.00     0.258 C 
HETATM    5  N3  UNL     1      37.995   3.901  10.379  1.00  0.00    -0.060 N 
ATOM      6  H31 UNL     1      37.128   3.690  10.873  1.00  0.00     0.278 HD
ATOM      7  H32 UNL     1      38.523   4.215  11.193  1.00  0.00     0.278 HD
ENDROOT
BRANCH   3   8
HETATM    8  N2  UNL     1      38.185   1.998   7.309  1.00  0.00    -0.389 N 
ATOM      9  H2  UNL     1      38.102   0.990   7.442  1.00  0.00     0.156 HD
BRANCH   8  10
HETATM   10  C10 UNL     1      38.572   2.453   6.063  1.00  0.00     0.248 C 
HETATM   11  O2  UNL     1      37.577   2.206   5.091  1.00  0.00    -0.362 OA
HETATM   12  C11 UNL     1      38.239   2.776   3.970  1.00  0.00     0.205 C 
HETATM   13  C12 UNL     1      39.582   2.049   3.982  1.00  0.00     0.175 C 
HETATM   14  C13 UNL     1      39.773   1.786   5.487  1.00  0.00     0.197 C 
BRANCH  13  15
HETATM   15  O3  UNL     1      39.498   0.847   3.293  1.00  0.00    -0.391 OA
ATOM     16  H3  UNL     1      38.972   0.219   3.774  1.00  0.00     0.210 HD
ENDBRANCH  13  15
BRANCH  14  17
HETATM   17  O4  UNL     1      40.986   2.223   5.916  1.00  0.00    -0.389 OA
ATOM     18  H4  UNL     1      41.001   2.742   6.712  1.00  0.00     0.210 HD
ENDBRANCH  14  17
ENDBRANCH   8  10
ENDBRANCH   3   8
BRANCH   1  19
HETATM   19  S1  UNL     1      38.857   6.373   9.783  1.00  0.00    -0.100 SA
BRANCH  19  20
HETATM   20  C6  UNL     1      40.145   6.681   8.602  1.00  0.00     0.286 C 
HETATM   21  N1  UNL     1      39.749   7.442   7.461  1.00  0.00     0.104 N 
HETATM   22  C3  UNL     1      39.684   8.814   7.801  1.00  0.00     0.274 C 
HETATM   23  C4  UNL     1      40.800   8.936   8.836  1.00  0.00     0.033 C 
HETATM   24  C5  UNL     1      41.259   7.553   9.173  1.00  0.00     0.048 C 
BRANCH  21  25
HETATM   25  C2  UNL     1      40.635   7.141   6.370  1.00  0.00     0.299 C 
BRANCH  25  26
HETATM   26  C1  UNL     1      40.232   5.890   5.629  1.00  0.00     0.194 C 
BRANCH  26  27
HETATM   27  O1  UNL     1      41.347   5.100   5.324  1.00  0.00    -0.399 OA
ATOM     28  H1  UNL     1      41.279   4.732   4.451  1.00  0.00     0.209 HD
ENDBRANCH  26  27
ENDBRANCH  25  26
ENDBRANCH  21  25
ENDBRANCH  19  20
ENDBRANCH   1  19
TORSDOF 9
ENDMDL
MODEL 4
REMARK VINA RESULT: -5.837058080      2.941      6.120
REMARK  9 active torsions:
REMARK  status: ('A' for Active; 'I' for Inactive)
REMARK    1  A    between atoms: O1_1  and  C1_3 
REMARK    2  A    between atoms: C1_3  and  C2_4 
REMARK    3  A    between atoms: C2_4  and  N1_5 
REMARK    4  A    between atoms: C6_9  and  S1_10 
REMARK    5  A    between atoms: S1_10  and  C7_11 
REMARK    6  A    between atoms: C9_13  and  N2_14 
REMARK    7  A    between atoms: N2_14  and  C10_16 
REMARK    8  A    between atoms: C12_19  and  O3_20 
REMARK    9  A    between atoms: C13_22  and  O4_23 
ROOT
HETATM    1  C7  UNL     1      38.089   5.779   7.787  1.00  0.00     0.251 C 
HETATM    2  C8  UNL     1      38.512   4.486   7.133  1.00  0.00     0.070 C 
HETATM    3  C9  UNL     1      39.777   5.036   6.385  1.00  0.00     0.107 C 
HETATM    4  C14 UNL     1      39.082   6.134   5.678  1.00  0.00     0.258 C 
HETATM    5  N3  UNL     1      38.484   6.842   6.844  1.00  0.00    -0.060 N 
ATOM      6  H31 UNL     1      39.096   7.548   7.253  1.00  0.00     0.278 HD
ATOM      7  H32 UNL     1      37.723   7.474   6.594  1.00  0.00     0.278 HD
ENDROOT
BRANCH   3   8
HETATM    8  N2  UNL     1      40.421   3.994   5.739  1.00  0.00    -0.389 N 
ATOM      9  H2  UNL     1      41.420   4.092   5.558  1.00  0.00     0.156 HD
BRANCH   8  10
HETATM   10  C10 UNL     1      39.802   2.831   5.322  1.00  0.00     0.248 C 
HETATM   11  O2  UNL     1      40.666   1.719   5.430  1.00  0.00    -0.362 OA
HETATM   12  C11 UNL     1      39.773   0.718   4.960  1.00  0.00     0.205 C 
HETATM   13  C12 UNL     1      39.326   1.288   3.616  1.00  0.00     0.175 C 
HETATM   14  C13 UNL     1      39.403   2.803   3.887  1.00  0.00     0.197 C 
BRANCH  13  15
HETATM   15  O3  UNL     1      40.216   0.937   2.610  1.00  0.00    -0.391 OA
ATOM     16  H3  UNL     1      39.872   1.172   1.757  1.00  0.00     0.210 HD
ENDBRANCH  13  15
BRANCH  14  17
HETATM   17  O4  UNL     1      38.239   3.423   3.558  1.00  0.00    -0.389 OA
ATOM     18  H4  UNL     1      37.569   2.892   3.144  1.00  0.00     0.210 HD
ENDBRANCH  14  17
ENDBRANCH   8  10
ENDBRANCH   3   8
BRANCH   1  19
HETATM   19  S1  UNL     1      36.290   5.843   8.026  1.00  0.00    -0.100 SA
BRANCH  19  20
HETATM   20  C6  UNL     1      35.677   4.413   8.879  1.00  0.00     0.286 C 
HETATM   21  N1  UNL     1      36.351   4.103  10.098  1.00  0.00     0.104 N 
HETATM   22  C3  UNL     1      35.891   4.957  11.128  1.00  0.00     0.274 C 
HETATM   23  C4  UNL     1      34.432   5.171  10.734  1.00  0.00     0.033 C 
HETATM   24  C5  UNL     1      34.243   4.599   9.366  1.00  0.00     0.048 C 
BRANCH  21  25
HETATM   25  C2  UNL     1      36.193   2.701  10.374  1.00  0.00     0.299 C 
BRANCH  25  26
HETATM   26  C1  UNL     1      36.794   1.830   9.298  1.00  0.00     0.194 C 
BRANCH  26  27
HETATM   27  O1  UNL     1      36.494   0.480   9.513  1.00  0.00    -0.399 OA
ATOM     28  H1  UNL     1      36.691  -0.042   8.744  1.00  0.00     0.209 HD
ENDBRANCH  26  27
ENDBRANCH  25  26
ENDBRANCH  21  25
ENDBRANCH  19  20
ENDBRANCH   1  19
TORSDOF 9
ENDMDL
MODEL 5
REMARK VINA RESULT: -5.836934230      6.566      8.098
REMARK  9 active torsions:
REMARK  status: ('A' for Active; 'I' for Inactive)
REMARK    1  A    between atoms: O1_1  and  C1_3 
REMARK    2  A    between atoms: C1_3  and  C2_4 
REMARK    3  A    between atoms: C2_4  and  N1_5 
REMARK    4  A    between atoms: C6_9  and  S1_10 
REMARK    5  A    between atoms: S1_10  and  C7_11 
REMARK    6  A    between atoms: C9_13  and  N2_14 
REMARK    7  A    between atoms: N2_14  and  C10_16 
REMARK    8  A    between atoms: C12_19  and  O3_20 
REMARK    9  A    between atoms: C13_22  and  O4_23 
ROOT
HETATM    1  C7  UNL     1      39.321   0.796   4.692  1.00  0.00     0.251 C 
HETATM    2  C8  UNL     1      40.502   0.178   3.984  1.00  0.00     0.070 C 
HETATM    3  C9  UNL     1      40.997  -0.732   5.162  1.00  0.00     0.107 C 
HETATM    4  C14 UNL     1      41.106   0.348   6.167  1.00  0.00     0.258 C 
HETATM    5  N3  UNL     1      39.717   0.881   6.111  1.00  0.00    -0.060 N 
ATOM      6  H31 UNL     1      39.071   0.411   6.746  1.00  0.00     0.278 HD
ATOM      7  H32 UNL     1      39.619   1.814   6.510  1.00  0.00     0.278 HD
ENDROOT
BRANCH   3   8
HETATM    8  N2  UNL     1      42.072  -1.495   4.736  1.00  0.00    -0.389 N 
ATOM      9  H2  UNL     1      42.832  -1.017   4.251  1.00  0.00     0.156 HD
BRANCH   8  10
HETATM   10  C10 UNL     1      42.186  -2.860   4.922  1.00  0.00     0.248 C 
HETATM   11  O2  UNL     1      41.758  -3.243   6.212  1.00  0.00    -0.362 OA
HETATM   12  C11 UNL     1      41.975  -4.642   6.093  1.00  0.00     0.205 C 
HETATM   13  C12 UNL     1      43.436  -4.709   5.654  1.00  0.00     0.175 C 
HETATM   14  C13 UNL     1      43.574  -3.397   4.858  1.00  0.00     0.197 C 
BRANCH  13  15
HETATM   15  O3  UNL     1      44.283  -4.692   6.753  1.00  0.00    -0.391 OA
ATOM     16  H3  UNL     1      44.764  -5.509   6.821  1.00  0.00     0.210 HD
ENDBRANCH  13  15
BRANCH  14  17
HETATM   17  O4  UNL     1      44.092  -3.621   3.622  1.00  0.00    -0.389 OA
ATOM     18  H4  UNL     1      44.341  -4.514   3.414  1.00  0.00     0.210 HD
ENDBRANCH  14  17
ENDBRANCH   8  10
ENDBRANCH   3   8
BRANCH   1  19
HETATM   19  S1  UNL     1      38.981   2.470   4.076  1.00  0.00    -0.100 SA
BRANCH  19  20
HETATM   20  C6  UNL     1      38.333   3.530   5.343  1.00  0.00     0.286 C 
HETATM   21  N1  UNL     1      39.277   3.934   6.333  1.00  0.00     0.104 N 
HETATM   22  C3  UNL     1      40.086   4.979   5.824  1.00  0.00     0.274 C 
HETATM   23  C4  UNL     1      39.110   5.715   4.909  1.00  0.00     0.033 C 
HETATM   24  C5  UNL     1      37.877   4.878   4.794  1.00  0.00     0.048 C 
BRANCH  21  25
HETATM   25  C2  UNL     1      38.573   4.263   7.543  1.00  0.00     0.299 C 
BRANCH  25  26
HETATM   26  C1  UNL     1      37.810   3.088   8.102  1.00  0.00     0.194 C 
BRANCH  26  27
HETATM   27  O1  UNL     1      38.677   2.060   8.492  1.00  0.00    -0.399 OA
ATOM     28  H1  UNL     1      38.204   1.352   8.912  1.00  0.00     0.209 HD
ENDBRANCH  26  27
ENDBRANCH  25  26
ENDBRANCH  21  25
ENDBRANCH  19  20
ENDBRANCH   1  19
TORSDOF 9
ENDMDL
