MODEL 1
REMARK VINA RESULT: -6.368395562      0.000      0.000
REMARK  10 active torsions:
REMARK  status: ('A' for Active; 'I' for Inactive)
REMARK    1  A    between atoms: O1_2  and  C2_3 
REMARK    2  A    between atoms: C2_3  and  C5_6 
REMARK    3  A    between atoms: C5_6  and  O2_7 
REMARK    4  A    between atoms: C5_6  and  C6_9 
REMARK    5  A    between atoms: C5_6  and  C14_17 
REMARK    6  A    between atoms: C6_9  and  C7_10 
REMARK    7  A    between atoms: C7_10  and  C8_11 
REMARK    8  A    between atoms: C8_11  and  C9_12 
REMARK    9  A    between atoms: C9_12  and  C10_13 
REMARK   10  A    between atoms: C10_13  and  C11_14 
ROOT
HETATM    1  C5  UNL     1       9.864  32.183   7.049  1.00  0.00     0.092 C 
ENDROOT
BRANCH   1   2
HETATM    2  C2  UNL     1       8.912  31.017   7.123  1.00  0.00     0.084 C 
HETATM    3  C3  UNL     1       9.541  29.908   7.915  1.00  0.00     0.049 C 
HETATM    4  C4  UNL     1       7.714  31.482   7.979  1.00  0.00     0.049 C 
BRANCH   2   5
HETATM    5  O1  UNL     1       8.426  30.614   5.915  1.00  0.00    -0.383 OA
HETATM    6  C1  UNL     1       7.074  30.680   5.764  1.00  0.00     0.202 C 
ENDBRANCH   2   5
ENDBRANCH   1   2
BRANCH   1   7
HETATM    7  O2  UNL     1       9.343  33.174   7.895  1.00  0.00    -0.386 OA
ATOM      8  H2  UNL     1       9.310  32.793   8.764  1.00  0.00     0.210 HD
ENDBRANCH   1   7
BRANCH   1   9
HETATM    9  C6  UNL     1       9.769  32.827   5.655  1.00  0.00     0.041 C 
BRANCH   9  10
HETATM   10  C7  UNL     1       8.887  34.041   5.622  1.00  0.00     0.003 C 
BRANCH  10  11
HETATM   11  C8  UNL     1       9.179  34.877   4.392  1.00  0.00     0.000 C 
BRANCH  11  12
HETATM   12  C9  UNL     1      10.655  35.048   4.179  1.00  0.00     0.000 C 
BRANCH  12  13
HETATM   13  C10 UNL     1      10.992  36.399   3.619  1.00  0.00     0.004 C 
BRANCH  13  14
HETATM   14  C11 UNL     1      12.072  37.085   4.435  1.00  0.00    -0.023 C 
HETATM   15  C12 UNL     1      11.547  38.251   5.207  1.00  0.00     0.009 C 
HETATM   16  C13 UNL     1      12.656  36.080   5.401  1.00  0.00     0.009 C 
ENDBRANCH  13  14
ENDBRANCH  12  13
ENDBRANCH  11  12
ENDBRANCH  10  11
ENDBRANCH   9  10
ENDBRANCH   1   9
BRANCH   1  17
HETATM   17  C14 UNL     1      11.264  31.958   7.373  1.00  0.00     0.023 C 
HETATM   18  C15 UNL     1      11.767  32.478   8.694  1.00  0.00     0.007 C 
HETATM   19  C16 UNL     1      13.239  32.041   8.602  1.00  0.00     0.001 C 
HETATM   20  C17 UNL     1      13.563  31.999   7.117  1.00  0.00     0.001 C 
HETATM   21  C18 UNL     1      12.289  32.535   6.430  1.00  0.00     0.007 C 
ENDBRANCH   1  17
TORSDOF 10
ENDMDL
MODEL 2
REMARK VINA RESULT: -6.352109894      2.958      6.028
REMARK  10 active torsions:
REMARK  status: ('A' for Active; 'I' for Inactive)
REMARK    1  A    between atoms: O1_2  and  C2_3 
REMARK    2  A    between atoms: C2_3  and  C5_6 
REMARK    3  A    between atoms: C5_6  and  O2_7 
REMARK    4  A    between atoms: C5_6  and  C6_9 
REMARK    5  A    between atoms: C5_6  and  C14_17 
REMARK    6  A    between atoms: C6_9  and  C7_10 
REMARK    7  A    between atoms: C7_10  and  C8_11 
REMARK    8  A    between atoms: C8_11  and  C9_12 
REMARK    9  A    between atoms: C9_12  and  C10_13 
REMARK   10  A    between atoms: C10_13  and  C11_14 
ROOT
HETATM    1  C5  UNL     1      13.035  32.932   9.198  1.00  0.00     0.092 C 
ENDROOT
BRANCH   1   2
HETATM    2  C2  UNL     1      13.604  34.234   9.701  1.00  0.00     0.084 C 
HETATM    3  C3  UNL     1      13.220  34.425  11.140  1.00  0.00     0.049 C 
HETATM    4  C4  UNL     1      15.138  34.065   9.721  1.00  0.00     0.049 C 
BRANCH   2   5
HETATM    5  O1  UNL     1      13.316  35.311   8.915  1.00  0.00    -0.383 OA
HETATM    6  C1  UNL     1      14.327  36.206   8.738  1.00  0.00     0.202 C 
ENDBRANCH   2   5
ENDBRANCH   1   2
BRANCH   1   7
HETATM    7  O2  UNL     1      12.312  33.240   8.035  1.00  0.00    -0.386 OA
ATOM      8  H2  UNL     1      11.560  33.749   8.315  1.00  0.00     0.210 HD
ENDBRANCH   1   7
BRANCH   1   9
HETATM    9  C6  UNL     1      11.946  32.445  10.169  1.00  0.00     0.041 C 
BRANCH   9  10
HETATM   10  C7  UNL     1      10.640  32.146   9.492  1.00  0.00     0.003 C 
BRANCH  10  11
HETATM   11  C8  UNL     1      10.209  30.722   9.776  1.00  0.00     0.000 C 
BRANCH  11  12
HETATM   12  C9  UNL     1       9.657  30.057   8.549  1.00  0.00     0.000 C 
BRANCH  12  13
HETATM   13  C10 UNL     1       8.505  30.820   7.962  1.00  0.00     0.004 C 
BRANCH  13  14
HETATM   14  C11 UNL     1       8.531  30.784   6.445  1.00  0.00    -0.023 C 
HETATM   15  C12 UNL     1       7.163  30.871   5.851  1.00  0.00     0.009 C 
HETATM   16  C13 UNL     1       9.355  31.951   5.950  1.00  0.00     0.009 C 
ENDBRANCH  13  14
ENDBRANCH  12  13
ENDBRANCH  11  12
ENDBRANCH  10  11
ENDBRANCH   9  10
ENDBRANCH   1   9
BRANCH   1  17
HETATM   17  C14 UNL     1      13.950  31.836   8.923  1.00  0.00     0.023 C 
HETATM   18  C15 UNL     1      13.851  31.165   7.578  1.00  0.00     0.007 C 
HETATM   19  C16 UNL     1      14.954  30.103   7.735  1.00  0.00     0.001 C 
HETATM   20  C17 UNL     1      15.037  29.816   9.226  1.00  0.00     0.001 C 
HETATM   21  C18 UNL     1      13.889  30.642   9.841  1.00  0.00     0.007 C 
ENDBRANCH   1  17
TORSDOF 10
ENDMDL
MODEL 3
REMARK VINA RESULT: -6.307712724      1.779      3.125
REMARK  10 active torsions:
REMARK  status: ('A' for Active; 'I' for Inactive)
REMARK    1  A    between atoms: O1_2  and  C2_3 
REMARK    2  A    between atoms: C2_3  and  C5_6 
REMARK    3  A    between atoms: C5_6  and  O2_7 
REMARK    4  A    between atoms: C5_6  and  C6_9 
REMARK    5  A    between atoms: C5_6  and  C14_17 
REMARK    6  A    between atoms: C6_9  and  C7_10 
REMARK    7  A    between atoms: C7_10  and  C8_11 
REMARK    8  A    between atoms: C8_11  and  C9_12 
REMARK    9  A    between atoms: C9_12  and  C10_13 
REMARK   10  A    between atoms: C10_13  and  C11_14 
ROOT
HETATM    1  C5  UNL     1      10.601  31.766   8.688  1.00  0.00     0.092 C 
ENDROOT
BRANCH   1   2
HETATM    2  C2  UNL     1      10.442  30.651   9.689  1.00  0.00     0.084 C 
HETATM    3  C3  UNL     1       9.044  30.111   9.619  1.00  0.00     0.049 C 
HETATM    4  C4  UNL     1      11.338  29.493   9.203  1.00  0.00     0.049 C 
BRANCH   2   5
HETATM    5  O1  UNL     1      10.836  30.976  10.954  1.00  0.00    -0.383 OA
HETATM    6  C1  UNL     1      11.956  30.349  11.409  1.00  0.00     0.202 C 
ENDBRANCH   2   5
ENDBRANCH   1   2
BRANCH   1   7
HETATM    7  O2  UNL     1      10.240  32.949   9.352  1.00  0.00    -0.386 OA
ATOM      8  H2  UNL     1       9.970  33.562   8.678  1.00  0.00     0.210 HD
ENDBRANCH   1   7
BRANCH   1   9
HETATM    9  C6  UNL     1       9.521  31.631   7.601  1.00  0.00     0.041 C 
BRANCH   9  10
HETATM   10  C7  UNL     1       8.535  32.763   7.602  1.00  0.00     0.003 C 
BRANCH  10  11
HETATM   11  C8  UNL     1       8.062  33.055   6.192  1.00  0.00     0.000 C 
BRANCH  11  12
HETATM   12  C9  UNL     1       8.423  34.447   5.765  1.00  0.00     0.000 C 
BRANCH  12  13
HETATM   13  C10 UNL     1       8.459  34.590   4.271  1.00  0.00     0.004 C 
BRANCH  13  14
HETATM   14  C11 UNL     1       9.835  35.007   3.786  1.00  0.00    -0.023 C 
HETATM   15  C12 UNL     1      10.529  35.912   4.751  1.00  0.00     0.009 C 
HETATM   16  C13 UNL     1      10.674  33.764   3.590  1.00  0.00     0.009 C 
ENDBRANCH  13  14
ENDBRANCH  12  13
ENDBRANCH  11  12
ENDBRANCH  10  11
ENDBRANCH   9  10
ENDBRANCH   1   9
BRANCH   1  17
HETATM   17  C14 UNL     1      11.896  31.946   8.049  1.00  0.00     0.023 C 
HETATM   18  C15 UNL     1      12.896  32.837   8.738  1.00  0.00     0.007 C 
HETATM   19  C16 UNL     1      14.060  32.744   7.736  1.00  0.00     0.001 C 
HETATM   20  C17 UNL     1      13.418  32.464   6.386  1.00  0.00     0.001 C 
HETATM   21  C18 UNL     1      11.901  32.532   6.660  1.00  0.00     0.007 C 
ENDBRANCH   1  17
TORSDOF 10
ENDMDL
MODEL 4
REMARK VINA RESULT: -6.281113301      2.064      5.314
REMARK  10 active torsions:
REMARK  status: ('A' for Active; 'I' for Inactive)
REMARK    1  A    between atoms: O1_2  and  C2_3 
REMARK    2  A    between atoms: C2_3  and  C5_6 
REMARK    3  A    between atoms: C5_6  and  O2_7 
REMARK    4  A    between atoms: C5_6  and  C6_9 
REMARK    5  A    between atoms: C5_6  and  C14_17 
REMARK    6  A    between atoms: C6_9  and  C7_10 
REMARK    7  A    between atoms: C7_10  and  C8_11 
REMARK    8  A    between atoms: C8_11  and  C9_12 
REMARK    9  A    between atoms: C9_12  and  C10_13 
REMARK   10  A    between atoms: C10_13  and  C11_14 
ROOT
HETATM    1  C5  UNL     1      13.234  32.779   6.468  1.00  0.00     0.092 C 
ENDROOT
BRANCH   1   2
HETATM    2  C2  UNL     1      13.752  34.191   6.363  1.00  0.00     0.084 C 
HETATM    3  C3  UNL     1      14.846  34.399   7.369  1.00  0.00     0.049 C 
HETATM    4  C4  UNL     1      14.452  34.300   4.992  1.00  0.00     0.049 C 
BRANCH   2   5
HETATM    5  O1  UNL     1      12.781  35.147   6.411  1.00  0.00    -0.383 OA
HETATM    6  C1  UNL     1      12.777  36.044   5.385  1.00  0.00     0.202 C 
ENDBRANCH   2   5
ENDBRANCH   1   2
BRANCH   1   7
HETATM    7  O2  UNL     1      13.291  32.240   5.174  1.00  0.00    -0.386 OA
ATOM      8  H2  UNL     1      12.996  31.340   5.247  1.00  0.00     0.210 HD
ENDBRANCH   1   7
BRANCH   1   9
HETATM    9  C6  UNL     1      11.726  32.813   6.768  1.00  0.00     0.041 C 
BRANCH   9  10
HETATM   10  C7  UNL     1      10.876  32.534   5.562  1.00  0.00     0.003 C 
BRANCH  10  11
HETATM   11  C8  UNL     1       9.868  33.646   5.355  1.00  0.00     0.000 C 
BRANCH  11  12
HETATM   12  C9  UNL     1       8.463  33.163   5.561  1.00  0.00     0.000 C 
BRANCH  12  13
HETATM   13  C10 UNL     1       8.149  32.936   7.012  1.00  0.00     0.004 C 
BRANCH  13  14
HETATM   14  C11 UNL     1       7.611  31.538   7.251  1.00  0.00    -0.023 C 
HETATM   15  C12 UNL     1       7.226  30.851   5.982  1.00  0.00     0.009 C 
HETATM   16  C13 UNL     1       8.679  30.723   7.944  1.00  0.00     0.009 C 
ENDBRANCH  13  14
ENDBRANCH  12  13
ENDBRANCH  11  12
ENDBRANCH  10  11
ENDBRANCH   9  10
ENDBRANCH   1   9
BRANCH   1  17
HETATM   17  C14 UNL     1      13.883  31.870   7.400  1.00  0.00     0.023 C 
HETATM   18  C15 UNL     1      14.714  30.755   6.823  1.00  0.00     0.007 C 
HETATM   19  C16 UNL     1      15.172  30.072   8.124  1.00  0.00     0.001 C 
HETATM   20  C17 UNL     1      14.084  30.365   9.145  1.00  0.00     0.001 C 
HETATM   21  C18 UNL     1      12.992  31.102   8.344  1.00  0.00     0.007 C 
ENDBRANCH   1  17
TORSDOF 10
ENDMDL
MODEL 5
REMARK VINA RESULT: -6.271657792      2.423      6.041
REMARK  10 active torsions:
REMARK  status: ('A' for Active; 'I' for Inactive)
REMARK    1  A    between atoms: O1_2  and  C2_3 
REMARK    2  A    between atoms: C2_3  and  C5_6 
REMARK    3  A    between atoms: C5_6  and  O2_7 
REMARK    4  A    between atoms: C5_6  and  C6_9 
REMARK    5  A    between atoms: C5_6  and  C14_17 
REMARK    6  A    between atoms: C6_9  and  C7_10 
REMARK    7  A    between atoms: C7_10  and  C8_11 
REMARK    8  A    between atoms: C8_11  and  C9_12 
REMARK    9  A    between atoms: C9_12  and  C10_13 
REMARK   10  A    between atoms: C10_13  and  C11_14 
ROOT
HETATM    1  C5  UNL     1      13.515  33.413   6.139  1.00  0.00     0.092 C 
ENDROOT
BRANCH   1   2
HETATM    2  C2  UNL     1      15.001  33.337   5.895  1.00  0.00     0.084 C 
HETATM    3  C3  UNL     1      15.411  34.436   4.958  1.00  0.00     0.049 C 
HETATM    4  C4  UNL     1      15.684  33.685   7.234  1.00  0.00     0.049 C 
BRANCH   2   5
HETATM    5  O1  UNL     1      15.442  32.105   5.512  1.00  0.00    -0.383 OA
HETATM    6  C1  UNL     1      16.431  31.562   6.275  1.00  0.00     0.202 C 
ENDBRANCH   2   5
ENDBRANCH   1   2
BRANCH   1   7
HETATM    7  O2  UNL     1      13.325  34.407   7.111  1.00  0.00    -0.386 OA
ATOM      8  H2  UNL     1      12.549  34.890   6.852  1.00  0.00     0.210 HD
ENDBRANCH   1   7
BRANCH   1   9
HETATM    9  C6  UNL     1      13.052  32.132   6.852  1.00  0.00     0.041 C 
BRANCH   9  10
HETATM   10  C7  UNL     1      12.409  32.394   8.183  1.00  0.00     0.003 C 
BRANCH  10  11
HETATM   11  C8  UNL     1      11.225  31.472   8.391  1.00  0.00     0.000 C 
BRANCH  11  12
HETATM   12  C9  UNL     1       9.993  31.994   7.712  1.00  0.00     0.000 C 
BRANCH  12  13
HETATM   13  C10 UNL     1       9.129  30.887   7.180  1.00  0.00     0.004 C 
BRANCH  13  14
HETATM   14  C11 UNL     1       8.403  31.309   5.915  1.00  0.00    -0.023 C 
HETATM   15  C12 UNL     1       7.011  30.770   5.852  1.00  0.00     0.009 C 
HETATM   16  C13 UNL     1       8.346  32.819   5.874  1.00  0.00     0.009 C 
ENDBRANCH  13  14
ENDBRANCH  12  13
ENDBRANCH  11  12
ENDBRANCH  10  11
ENDBRANCH   9  10
ENDBRANCH   1   9
BRANCH   1  17
HETATM   17  C14 UNL     1      12.639  33.670   5.007  1.00  0.00     0.023 C 
HETATM   18  C15 UNL     1      11.561  34.707   5.181  1.00  0.00     0.007 C 
HETATM   19  C16 UNL     1      10.902  34.632   3.792  1.00  0.00     0.001 C 
HETATM   20  C17 UNL     1      11.148  33.216   3.297  1.00  0.00     0.001 C 
HETATM   21  C18 UNL     1      11.834  32.507   4.484  1.00  0.00     0.007 C 
ENDBRANCH   1  17
TORSDOF 10
ENDMDL
