MODEL 1
REMARK VINA RESULT: -6.491489686      0.000      0.000
REMARK  8 active torsions:
REMARK  status: ('A' for Active; 'I' for Inactive)
REMARK    1  A    between atoms: C2_2  and  C3_3 
REMARK    2  A    between atoms: C3_3  and  C7_9 
REMARK    3  A    between atoms: C4_4  and  C6_6 
REMARK    4  A    between atoms: C6_6  and  O1_7 
REMARK    5  A    between atoms: C7_9  and  O2_10 
REMARK    6  A    between atoms: O2_10  and  C8_11 
REMARK    7  A    between atoms: C8_11  and  C9_12 
REMARK    8  A    between atoms: C9_12  and  C10_13 
ROOT
HETATM    1  C7  UNL     1      13.000  31.269   9.441  1.00  0.00     0.076 C 
HETATM    2  C16 UNL     1      13.490  30.087   9.252  1.00  0.00    -0.054 C 
HETATM    3  C17 UNL     1      12.755  28.958  10.001  1.00  0.00     0.046 C 
HETATM    4  C18 UNL     1      14.622  29.583   8.470  1.00  0.00     0.046 C 
ENDROOT
BRANCH   1   5
HETATM    5  C3  UNL     1      13.391  32.578   8.934  1.00  0.00    -0.021 C 
HETATM    6  C4  UNL     1      13.859  33.534   9.684  1.00  0.00    -0.051 C 
HETATM    7  C5  UNL     1      13.991  34.928   9.103  1.00  0.00     0.046 C 
BRANCH   5   8
HETATM    8  C2  UNL     1      13.048  32.991   7.527  1.00  0.00     0.037 C 
HETATM    9  C1  UNL     1      13.883  32.354   6.482  1.00  0.00     0.010 C 
ENDBRANCH   5   8
BRANCH   6  10
HETATM   10  C6  UNL     1      14.473  33.408  11.016  1.00  0.00     0.198 C 
BRANCH  10  11
HETATM   11  O1  UNL     1      13.317  33.542  11.904  1.00  0.00    -0.397 OA
ATOM     12  H1  UNL     1      13.641  33.167  12.715  1.00  0.00     0.209 HD
ENDBRANCH  10  11
ENDBRANCH   6  10
ENDBRANCH   1   5
BRANCH   1  13
HETATM   13  O2  UNL     1      11.834  31.308  10.295  1.00  0.00    -0.350 OA
BRANCH  13  14
HETATM   14  C8  UNL     1      10.642  31.815   9.660  1.00  0.00     0.176 C 
BRANCH  14  15
HETATM   15  C9  UNL     1       9.821  30.789   8.995  1.00  0.00     0.031 C 
BRANCH  15  16
HETATM   16  C10 UNL     1       9.364  30.993   7.607  1.00  0.00    -0.013 C 
HETATM   17  C11 UNL     1       9.800  32.279   6.998  1.00  0.00     0.005 C 
HETATM   18  C12 UNL     1       8.720  33.075   6.334  1.00  0.00     0.000 C 
HETATM   19  C13 UNL     1       7.782  32.228   5.498  1.00  0.00     0.000 C 
HETATM   20  C14 UNL     1       7.235  31.061   6.287  1.00  0.00     0.000 C 
HETATM   21  C15 UNL     1       7.826  31.020   7.677  1.00  0.00     0.005 C 
ENDBRANCH  15  16
ENDBRANCH  14  15
ENDBRANCH  13  14
ENDBRANCH   1  13
TORSDOF 8
ENDMDL
MODEL 2
REMARK VINA RESULT: -6.489176899      2.607      4.361
REMARK  8 active torsions:
REMARK  status: ('A' for Active; 'I' for Inactive)
REMARK    1  A    between atoms: C2_2  and  C3_3 
REMARK    2  A    between atoms: C3_3  and  C7_9 
REMARK    3  A    between atoms: C4_4  and  C6_6 
REMARK    4  A    between atoms: C6_6  and  O1_7 
REMARK    5  A    between atoms: C7_9  and  O2_10 
REMARK    6  A    between atoms: O2_10  and  C8_11 
REMARK    7  A    between atoms: C8_11  and  C9_12 
REMARK    8  A    between atoms: C9_12  and  C10_13 
ROOT
HETATM    1  C7  UNL     1      10.883  31.539   8.335  1.00  0.00     0.076 C 
HETATM    2  C16 UNL     1       9.805  30.833   8.224  1.00  0.00    -0.054 C 
HETATM    3  C17 UNL     1       8.789  31.365   7.194  1.00  0.00     0.046 C 
HETATM    4  C18 UNL     1       9.329  29.615   8.887  1.00  0.00     0.046 C 
ENDROOT
BRANCH   1   5
HETATM    5  C3  UNL     1      12.063  31.390   9.176  1.00  0.00    -0.021 C 
HETATM    6  C4  UNL     1      12.426  32.258  10.075  1.00  0.00    -0.051 C 
HETATM    7  C5  UNL     1      13.798  32.133  10.708  1.00  0.00     0.046 C 
BRANCH   5   8
HETATM    8  C2  UNL     1      13.082  30.319   8.885  1.00  0.00     0.037 C 
HETATM    9  C1  UNL     1      12.826  29.030   9.570  1.00  0.00     0.010 C 
ENDBRANCH   5   8
BRANCH   6  10
HETATM   10  C6  UNL     1      11.589  33.282  10.720  1.00  0.00     0.198 C 
BRANCH  10  11
HETATM   11  O1  UNL     1      12.268  34.523  10.343  1.00  0.00    -0.397 OA
ATOM     12  H1  UNL     1      11.656  34.910   9.729  1.00  0.00     0.209 HD
ENDBRANCH  10  11
ENDBRANCH   6  10
ENDBRANCH   1   5
BRANCH   1  13
HETATM   13  O2  UNL     1      10.948  32.681   7.449  1.00  0.00    -0.350 OA
BRANCH  13  14
HETATM   14  C8  UNL     1      11.990  32.609   6.455  1.00  0.00     0.176 C 
BRANCH  14  15
HETATM   15  C9  UNL     1      11.540  32.879   5.078  1.00  0.00     0.031 C 
BRANCH  15  16
HETATM   16  C10 UNL     1      11.841  34.176   4.444  1.00  0.00    -0.013 C 
HETATM   17  C11 UNL     1      12.937  34.942   5.096  1.00  0.00     0.005 C 
HETATM   18  C12 UNL     1      12.630  36.376   5.395  1.00  0.00     0.000 C 
HETATM   19  C13 UNL     1      11.910  37.081   4.265  1.00  0.00     0.000 C 
HETATM   20  C14 UNL     1      10.688  36.311   3.819  1.00  0.00     0.000 C 
HETATM   21  C15 UNL     1      10.556  35.013   4.580  1.00  0.00     0.005 C 
ENDBRANCH  15  16
ENDBRANCH  14  15
ENDBRANCH  13  14
ENDBRANCH   1  13
TORSDOF 8
ENDMDL
MODEL 3
REMARK VINA RESULT: -6.470679347      1.389      2.215
REMARK  8 active torsions:
REMARK  status: ('A' for Active; 'I' for Inactive)
REMARK    1  A    between atoms: C2_2  and  C3_3 
REMARK    2  A    between atoms: C3_3  and  C7_9 
REMARK    3  A    between atoms: C4_4  and  C6_6 
REMARK    4  A    between atoms: C6_6  and  O1_7 
REMARK    5  A    between atoms: C7_9  and  O2_10 
REMARK    6  A    between atoms: O2_10  and  C8_11 
REMARK    7  A    between atoms: C8_11  and  C9_12 
REMARK    8  A    between atoms: C9_12  and  C10_13 
ROOT
HETATM    1  C7  UNL     1      13.203  31.086   9.431  1.00  0.00     0.076 C 
HETATM    2  C16 UNL     1      12.536  30.194  10.089  1.00  0.00    -0.054 C 
HETATM    3  C17 UNL     1      11.416  29.505   9.286  1.00  0.00     0.046 C 
HETATM    4  C18 UNL     1      12.614  29.694  11.465  1.00  0.00     0.046 C 
ENDROOT
BRANCH   1   5
HETATM    5  C3  UNL     1      14.312  31.951   9.813  1.00  0.00    -0.021 C 
HETATM    6  C4  UNL     1      14.173  33.040  10.511  1.00  0.00    -0.051 C 
HETATM    7  C5  UNL     1      15.346  33.993  10.631  1.00  0.00     0.046 C 
BRANCH   5   8
HETATM    8  C2  UNL     1      15.678  31.759   9.209  1.00  0.00     0.037 C 
HETATM    9  C1  UNL     1      16.004  30.354   8.868  1.00  0.00     0.010 C 
ENDBRANCH   5   8
BRANCH   6  10
HETATM   10  C6  UNL     1      13.047  33.405  11.386  1.00  0.00     0.198 C 
BRANCH  10  11
HETATM   11  O1  UNL     1      13.559  34.594  12.071  1.00  0.00    -0.397 OA
ATOM     12  H1  UNL     1      14.223  34.227  12.643  1.00  0.00     0.209 HD
ENDBRANCH  10  11
ENDBRANCH   6  10
ENDBRANCH   1   5
BRANCH   1  13
HETATM   13  O2  UNL     1      12.793  31.249   8.054  1.00  0.00    -0.350 OA
BRANCH  13  14
HETATM   14  C8  UNL     1      12.408  32.593   7.699  1.00  0.00     0.176 C 
BRANCH  14  15
HETATM   15  C9  UNL     1      11.408  32.676   6.621  1.00  0.00     0.031 C 
BRANCH  15  16
HETATM   16  C10 UNL     1      10.198  31.834   6.668  1.00  0.00    -0.013 C 
HETATM   17  C11 UNL     1       9.273  32.020   5.517  1.00  0.00     0.005 C 
HETATM   18  C12 UNL     1       7.835  32.232   5.875  1.00  0.00     0.000 C 
HETATM   19  C13 UNL     1       7.351  31.308   6.974  1.00  0.00     0.000 C 
HETATM   20  C14 UNL     1       8.259  31.358   8.181  1.00  0.00     0.000 C 
HETATM   21  C15 UNL     1       9.440  32.266   7.937  1.00  0.00     0.005 C 
ENDBRANCH  15  16
ENDBRANCH  14  15
ENDBRANCH  13  14
ENDBRANCH   1  13
TORSDOF 8
ENDMDL
MODEL 4
REMARK VINA RESULT: -6.448761064      2.540      5.856
REMARK  8 active torsions:
REMARK  status: ('A' for Active; 'I' for Inactive)
REMARK    1  A    between atoms: C2_2  and  C3_3 
REMARK    2  A    between atoms: C3_3  and  C7_9 
REMARK    3  A    between atoms: C4_4  and  C6_6 
REMARK    4  A    between atoms: C6_6  and  O1_7 
REMARK    5  A    between atoms: C7_9  and  O2_10 
REMARK    6  A    between atoms: O2_10  and  C8_11 
REMARK    7  A    between atoms: C8_11  and  C9_12 
REMARK    8  A    between atoms: C9_12  and  C10_13 
ROOT
HETATM    1  C7  UNL     1       9.705  32.458   6.414  1.00  0.00     0.076 C 
HETATM    2  C16 UNL     1       9.018  31.366   6.509  1.00  0.00    -0.054 C 
HETATM    3  C17 UNL     1       9.192  30.610   7.841  1.00  0.00     0.046 C 
HETATM    4  C18 UNL     1       8.097  30.677   5.601  1.00  0.00     0.046 C 
ENDROOT
BRANCH   1   5
HETATM    5  C3  UNL     1       9.827  33.443   5.347  1.00  0.00    -0.021 C 
HETATM    6  C4  UNL     1      10.810  33.469   4.495  1.00  0.00    -0.051 C 
HETATM    7  C5  UNL     1      10.973  34.678   3.595  1.00  0.00     0.046 C 
BRANCH   5   8
HETATM    8  C2  UNL     1       8.931  34.653   5.314  1.00  0.00     0.037 C 
HETATM    9  C1  UNL     1       7.643  34.442   4.612  1.00  0.00     0.010 C 
ENDBRANCH   5   8
BRANCH   6  10
HETATM   10  C6  UNL     1      11.718  32.365   4.142  1.00  0.00     0.198 C 
BRANCH  10  11
HETATM   11  O1  UNL     1      11.624  32.341   2.681  1.00  0.00    -0.397 OA
ATOM     12  H1  UNL     1      10.690  32.233   2.540  1.00  0.00     0.209 HD
ENDBRANCH  10  11
ENDBRANCH   6  10
ENDBRANCH   1   5
BRANCH   1  13
HETATM   13  O2  UNL     1      10.486  32.782   7.588  1.00  0.00    -0.350 OA
BRANCH  13  14
HETATM   14  C8  UNL     1      11.882  32.432   7.494  1.00  0.00     0.176 C 
BRANCH  14  15
HETATM   15  C9  UNL     1      12.648  32.641   8.734  1.00  0.00     0.031 C 
BRANCH  15  16
HETATM   16  C10 UNL     1      13.000  31.492   9.589  1.00  0.00    -0.013 C 
HETATM   17  C11 UNL     1      13.269  30.232   8.846  1.00  0.00     0.005 C 
HETATM   18  C12 UNL     1      12.553  29.020   9.356  1.00  0.00     0.000 C 
HETATM   19  C13 UNL     1      12.561  28.914  10.867  1.00  0.00     0.000 C 
HETATM   20  C14 UNL     1      12.070  30.188  11.516  1.00  0.00     0.000 C 
HETATM   21  C15 UNL     1      11.768  31.244  10.479  1.00  0.00     0.005 C 
ENDBRANCH  15  16
ENDBRANCH  14  15
ENDBRANCH  13  14
ENDBRANCH   1  13
TORSDOF 8
ENDMDL
MODEL 5
REMARK VINA RESULT: -6.443573581      1.867      3.431
REMARK  8 active torsions:
REMARK  status: ('A' for Active; 'I' for Inactive)
REMARK    1  A    between atoms: C2_2  and  C3_3 
REMARK    2  A    between atoms: C3_3  and  C7_9 
REMARK    3  A    between atoms: C4_4  and  C6_6 
REMARK    4  A    between atoms: C6_6  and  O1_7 
REMARK    5  A    between atoms: C7_9  and  O2_10 
REMARK    6  A    between atoms: O2_10  and  C8_11 
REMARK    7  A    between atoms: C8_11  and  C9_12 
REMARK    8  A    between atoms: C9_12  and  C10_13 
ROOT
HETATM    1  C7  UNL     1      12.246  31.571   8.522  1.00  0.00     0.076 C 
HETATM    2  C16 UNL     1      13.222  31.617   7.675  1.00  0.00    -0.054 C 
HETATM    3  C17 UNL     1      13.102  32.727   6.613  1.00  0.00     0.046 C 
HETATM    4  C18 UNL     1      14.439  30.818   7.501  1.00  0.00     0.046 C 
ENDROOT
BRANCH   1   5
HETATM    5  C3  UNL     1      11.977  30.692   9.652  1.00  0.00    -0.021 C 
HETATM    6  C4  UNL     1      12.119  31.049  10.896  1.00  0.00    -0.051 C 
HETATM    7  C5  UNL     1      12.062  29.988  11.977  1.00  0.00     0.046 C 
BRANCH   5   8
HETATM    8  C2  UNL     1      11.743  29.220   9.441  1.00  0.00     0.037 C 
HETATM    9  C1  UNL     1      10.408  28.884   8.893  1.00  0.00     0.010 C 
ENDBRANCH   5   8
BRANCH   6  10
HETATM   10  C6  UNL     1      12.150  32.417  11.437  1.00  0.00     0.198 C 
BRANCH  10  11
HETATM   11  O1  UNL     1      13.586  32.659  11.590  1.00  0.00    -0.397 OA
ATOM     12  H1  UNL     1      13.620  33.175  12.387  1.00  0.00     0.209 HD
ENDBRANCH  10  11
ENDBRANCH   6  10
ENDBRANCH   1   5
BRANCH   1  13
HETATM   13  O2  UNL     1      11.238  32.591   8.333  1.00  0.00    -0.350 OA
BRANCH  13  14
HETATM   14  C8  UNL     1       9.885  32.093   8.280  1.00  0.00     0.176 C 
BRANCH  14  15
HETATM   15  C9  UNL     1       9.253  32.181   6.952  1.00  0.00     0.031 C 
BRANCH  15  16
HETATM   16  C10 UNL     1       9.436  33.388   6.125  1.00  0.00    -0.013 C 
HETATM   17  C11 UNL     1       8.180  34.129   5.831  1.00  0.00     0.005 C 
HETATM   18  C12 UNL     1       7.964  34.483   4.392  1.00  0.00     0.000 C 
HETATM   19  C13 UNL     1       9.214  34.998   3.710  1.00  0.00     0.000 C 
HETATM   20  C14 UNL     1      10.380  34.056   3.901  1.00  0.00     0.000 C 
HETATM   21  C15 UNL     1       9.997  32.889   4.780  1.00  0.00     0.005 C 
ENDBRANCH  15  16
ENDBRANCH  14  15
ENDBRANCH  13  14
ENDBRANCH   1  13
TORSDOF 8
ENDMDL
