MODEL 1
REMARK VINA RESULT: -7.211306932      0.000      0.000
REMARK  8 active torsions:
REMARK  status: ('A' for Active; 'I' for Inactive)
REMARK    1  A    between atoms: C2_2  and  C3_3 
REMARK    2  A    between atoms: C3_3  and  C4_4 
REMARK    3  A    between atoms: C7_7  and  O1_8 
REMARK    4  A    between atoms: O1_8  and  C8_9 
REMARK    5  A    between atoms: C8_9  and  C9_10 
REMARK    6  A    between atoms: C9_10  and  C10_11 
REMARK    7  A    between atoms: C10_11  and  C11_12 
REMARK    8  A    between atoms: C11_12  and  O2_13 
ROOT
HETATM    1  O1  UNL     1       9.634  32.659   5.429  1.00  0.00    -0.350 OA
ENDROOT
BRANCH   1   2
HETATM    2  C7  UNL     1       9.536  31.851   6.534  1.00  0.00     0.077 A 
HETATM    3  C5  UNL     1      10.524  31.645   7.577  1.00  0.00    -0.025 A 
HETATM    4  C4  UNL     1      10.107  30.797   8.502  1.00  0.00    -0.064 A 
HETATM    5  C6  UNL     1      11.886  32.294   7.654  1.00  0.00     0.051 C 
HETATM    6  C18 UNL     1       8.742  30.372   8.095  1.00  0.00     0.071 A 
HETATM    7  C16 UNL     1       8.490  31.109   6.831  1.00  0.00    -0.046 A 
HETATM    8  C17 UNL     1       7.207  30.966   6.075  1.00  0.00     0.046 C 
BRANCH   4   9
HETATM    9  C3  UNL     1      10.811  30.323   9.722  1.00  0.00     0.061 C 
BRANCH   9  10
HETATM   10  C2  UNL     1      11.639  29.119   9.446  1.00  0.00    -0.033 C 
HETATM   11  C1  UNL     1      12.957  29.191   9.528  1.00  0.00     0.007 C 
ENDBRANCH   9  10
ENDBRANCH   4   9
ENDBRANCH   1   2
BRANCH   1  12
HETATM   12  C8  UNL     1       9.518  34.086   5.500  1.00  0.00     0.176 C 
BRANCH  12  13
HETATM   13  C9  UNL     1       9.893  34.622   4.166  1.00  0.00     0.038 C 
BRANCH  13  14
HETATM   14  C10 UNL     1      11.358  34.774   3.933  1.00  0.00    -0.017 C 
HETATM   15  C12 UNL     1      12.131  34.902   5.217  1.00  0.00     0.012 C 
HETATM   16  C13 UNL     1      12.380  36.360   5.457  1.00  0.00     0.001 C 
HETATM   17  C14 UNL     1      11.565  37.068   4.396  1.00  0.00     0.001 C 
HETATM   18  C15 UNL     1      11.658  36.079   3.238  1.00  0.00     0.012 C 
BRANCH  14  19
HETATM   19  C11 UNL     1      11.963  33.645   3.147  1.00  0.00     0.173 C 
BRANCH  19  20
HETATM   20  O2  UNL     1      12.329  32.656   4.083  1.00  0.00    -0.400 OA
ATOM     21  H2  UNL     1      13.262  32.760   4.235  1.00  0.00     0.209 HD
ENDBRANCH  19  20
ENDBRANCH  14  19
ENDBRANCH  13  14
ENDBRANCH  12  13
ENDBRANCH   1  12
TORSDOF 8
ENDMDL
MODEL 2
REMARK VINA RESULT: -7.039875961      2.853      5.552
REMARK  8 active torsions:
REMARK  status: ('A' for Active; 'I' for Inactive)
REMARK    1  A    between atoms: C2_2  and  C3_3 
REMARK    2  A    between atoms: C3_3  and  C4_4 
REMARK    3  A    between atoms: C7_7  and  O1_8 
REMARK    4  A    between atoms: O1_8  and  C8_9 
REMARK    5  A    between atoms: C8_9  and  C9_10 
REMARK    6  A    between atoms: C9_10  and  C10_11 
REMARK    7  A    between atoms: C10_11  and  C11_12 
REMARK    8  A    between atoms: C11_12  and  O2_13 
ROOT
HETATM    1  O1  UNL     1      12.892  33.597   8.542  1.00  0.00    -0.350 OA
ENDROOT
BRANCH   1   2
HETATM    2  C7  UNL     1      11.949  32.616   8.721  1.00  0.00     0.077 A 
HETATM    3  C5  UNL     1      11.035  32.069   7.734  1.00  0.00    -0.025 A 
HETATM    4  C4  UNL     1      10.254  31.130   8.242  1.00  0.00    -0.064 A 
HETATM    5  C6  UNL     1      10.939  32.483   6.284  1.00  0.00     0.051 C 
HETATM    6  C18 UNL     1      10.633  30.999   9.672  1.00  0.00     0.071 A 
HETATM    7  C16 UNL     1      11.719  31.993   9.857  1.00  0.00    -0.046 A 
HETATM    8  C17 UNL     1      12.394  32.191  11.178  1.00  0.00     0.046 C 
BRANCH   4   9
HETATM    9  C3  UNL     1       9.195  30.332   7.570  1.00  0.00     0.061 C 
BRANCH   9  10
HETATM   10  C2  UNL     1       7.933  31.105   7.429  1.00  0.00    -0.033 C 
HETATM   11  C1  UNL     1       7.265  31.076   6.288  1.00  0.00     0.007 C 
ENDBRANCH   9  10
ENDBRANCH   4   9
ENDBRANCH   1   2
BRANCH   1  12
HETATM   12  C8  UNL     1      13.990  33.460   7.632  1.00  0.00     0.176 C 
BRANCH  12  13
HETATM   13  C9  UNL     1      15.110  32.842   8.388  1.00  0.00     0.038 C 
BRANCH  13  14
HETATM   14  C10 UNL     1      15.663  31.591   7.795  1.00  0.00    -0.017 C 
HETATM   15  C12 UNL     1      14.593  30.721   7.195  1.00  0.00     0.012 C 
HETATM   16  C13 UNL     1      14.245  29.665   8.200  1.00  0.00     0.001 C 
HETATM   17  C14 UNL     1      14.991  30.070   9.454  1.00  0.00     0.001 C 
HETATM   18  C15 UNL     1      16.248  30.702   8.864  1.00  0.00     0.012 C 
BRANCH  14  19
HETATM   19  C11 UNL     1      16.699  31.835   6.734  1.00  0.00     0.173 C 
BRANCH  19  20
HETATM   20  O2  UNL     1      16.089  31.534   5.499  1.00  0.00    -0.400 OA
ATOM     21  H2  UNL     1      16.144  32.322   4.970  1.00  0.00     0.209 HD
ENDBRANCH  19  20
ENDBRANCH  14  19
ENDBRANCH  13  14
ENDBRANCH  12  13
ENDBRANCH   1  12
TORSDOF 8
ENDMDL
MODEL 3
REMARK VINA RESULT: -6.912965013      0.889      1.074
REMARK  8 active torsions:
REMARK  status: ('A' for Active; 'I' for Inactive)
REMARK    1  A    between atoms: C2_2  and  C3_3 
REMARK    2  A    between atoms: C3_3  and  C4_4 
REMARK    3  A    between atoms: C7_7  and  O1_8 
REMARK    4  A    between atoms: O1_8  and  C8_9 
REMARK    5  A    between atoms: C8_9  and  C9_10 
REMARK    6  A    between atoms: C9_10  and  C10_11 
REMARK    7  A    between atoms: C10_11  and  C11_12 
REMARK    8  A    between atoms: C11_12  and  O2_13 
ROOT
HETATM    1  O1  UNL     1       9.812  33.147   6.759  1.00  0.00    -0.350 OA
ENDROOT
BRANCH   1   2
HETATM    2  C7  UNL     1      10.054  32.068   7.573  1.00  0.00     0.077 A 
HETATM    3  C5  UNL     1      11.244  31.795   8.359  1.00  0.00    -0.025 A 
HETATM    4  C4  UNL     1      11.148  30.662   9.035  1.00  0.00    -0.064 A 
HETATM    5  C6  UNL     1      12.478  32.663   8.437  1.00  0.00     0.051 C 
HETATM    6  C18 UNL     1       9.814  30.094   8.713  1.00  0.00     0.071 A 
HETATM    7  C16 UNL     1       9.213  31.077   7.776  1.00  0.00    -0.046 A 
HETATM    8  C17 UNL     1       7.847  30.884   7.196  1.00  0.00     0.046 C 
BRANCH   4   9
HETATM    9  C3  UNL     1      12.138  30.032   9.947  1.00  0.00     0.061 C 
BRANCH   9  10
HETATM   10  C2  UNL     1      13.199  29.314   9.193  1.00  0.00    -0.033 C 
HETATM   11  C1  UNL     1      14.464  29.680   9.321  1.00  0.00     0.007 C 
ENDBRANCH   9  10
ENDBRANCH   4   9
ENDBRANCH   1   2
BRANCH   1  12
HETATM   12  C8  UNL     1      10.029  33.112   5.342  1.00  0.00     0.176 C 
BRANCH  12  13
HETATM   13  C9  UNL     1      10.164  34.520   4.887  1.00  0.00     0.038 C 
BRANCH  13  14
HETATM   14  C10 UNL     1      11.491  34.874   4.306  1.00  0.00    -0.017 C 
HETATM   15  C12 UNL     1      12.521  35.158   5.364  1.00  0.00     0.012 C 
HETATM   16  C13 UNL     1      12.601  36.644   5.537  1.00  0.00     0.001 C 
HETATM   17  C14 UNL     1      11.459  37.188   4.705  1.00  0.00     0.001 C 
HETATM   18  C15 UNL     1      11.418  36.182   3.558  1.00  0.00     0.012 C 
BRANCH  14  19
HETATM   19  C11 UNL     1      12.051  33.816   3.396  1.00  0.00     0.173 C 
BRANCH  19  20
HETATM   20  O2  UNL     1      13.291  33.430   3.945  1.00  0.00    -0.400 OA
ATOM     21  H2  UNL     1      13.898  34.140   3.767  1.00  0.00     0.209 HD
ENDBRANCH  19  20
ENDBRANCH  14  19
ENDBRANCH  13  14
ENDBRANCH  12  13
ENDBRANCH   1  12
TORSDOF 8
ENDMDL
MODEL 4
REMARK VINA RESULT: -6.867659678      1.636      6.406
REMARK  8 active torsions:
REMARK  status: ('A' for Active; 'I' for Inactive)
REMARK    1  A    between atoms: C2_2  and  C3_3 
REMARK    2  A    between atoms: C3_3  and  C4_4 
REMARK    3  A    between atoms: C7_7  and  O1_8 
REMARK    4  A    between atoms: O1_8  and  C8_9 
REMARK    5  A    between atoms: C8_9  and  C9_10 
REMARK    6  A    between atoms: C9_10  and  C10_11 
REMARK    7  A    between atoms: C10_11  and  C11_12 
REMARK    8  A    between atoms: C11_12  and  O2_13 
ROOT
HETATM    1  O1  UNL     1      10.856  33.018   4.488  1.00  0.00    -0.350 OA
ENDROOT
BRANCH   1   2
HETATM    2  C7  UNL     1      10.924  34.381   4.340  1.00  0.00     0.077 A 
HETATM    3  C5  UNL     1      12.079  35.241   4.526  1.00  0.00    -0.025 A 
HETATM    4  C4  UNL     1      11.798  36.513   4.300  1.00  0.00    -0.064 A 
HETATM    5  C6  UNL     1      13.465  34.795   4.930  1.00  0.00     0.051 C 
HETATM    6  C18 UNL     1      10.360  36.565   3.931  1.00  0.00     0.071 A 
HETATM    7  C16 UNL     1       9.915  35.150   3.991  1.00  0.00    -0.046 A 
HETATM    8  C17 UNL     1       8.506  34.750   3.684  1.00  0.00     0.046 C 
BRANCH   4   9
HETATM    9  C3  UNL     1      12.693  37.697   4.381  1.00  0.00     0.061 C 
BRANCH   9  10
HETATM   10  C2  UNL     1      12.100  38.777   5.213  1.00  0.00    -0.033 C 
HETATM   11  C1  UNL     1      12.530  38.971   6.449  1.00  0.00     0.007 C 
ENDBRANCH   9  10
ENDBRANCH   4   9
ENDBRANCH   1   2
BRANCH   1  12
HETATM   12  C8  UNL     1      10.784  32.382   5.771  1.00  0.00     0.176 C 
BRANCH  12  13
HETATM   13  C9  UNL     1       9.453  31.729   5.859  1.00  0.00     0.038 C 
BRANCH  13  14
HETATM   14  C10 UNL     1       8.675  32.039   7.093  1.00  0.00    -0.017 C 
HETATM   15  C12 UNL     1       9.559  32.449   8.238  1.00  0.00     0.012 C 
HETATM   16  C13 UNL     1       9.770  31.246   9.106  1.00  0.00     0.001 C 
HETATM   17  C14 UNL     1       9.157  30.101   8.328  1.00  0.00     0.001 C 
HETATM   18  C15 UNL     1       7.997  30.802   7.627  1.00  0.00     0.012 C 
BRANCH  14  19
HETATM   19  C11 UNL     1       7.648  33.120   6.900  1.00  0.00     0.173 C 
BRANCH  19  20
HETATM   20  O2  UNL     1       8.264  34.332   7.275  1.00  0.00    -0.400 OA
ATOM     21  H2  UNL     1       9.146  34.111   7.555  1.00  0.00     0.209 HD
ENDBRANCH  19  20
ENDBRANCH  14  19
ENDBRANCH  13  14
ENDBRANCH  12  13
ENDBRANCH   1  12
TORSDOF 8
ENDMDL
MODEL 5
REMARK VINA RESULT: -6.861814401      1.640      6.388
REMARK  8 active torsions:
REMARK  status: ('A' for Active; 'I' for Inactive)
REMARK    1  A    between atoms: C2_2  and  C3_3 
REMARK    2  A    between atoms: C3_3  and  C4_4 
REMARK    3  A    between atoms: C7_7  and  O1_8 
REMARK    4  A    between atoms: O1_8  and  C8_9 
REMARK    5  A    between atoms: C8_9  and  C9_10 
REMARK    6  A    between atoms: C9_10  and  C10_11 
REMARK    7  A    between atoms: C10_11  and  C11_12 
REMARK    8  A    between atoms: C11_12  and  O2_13 
ROOT
HETATM    1  O1  UNL     1      10.725  32.800   4.995  1.00  0.00    -0.350 OA
ENDROOT
BRANCH   1   2
HETATM    2  C7  UNL     1      10.763  34.151   4.758  1.00  0.00     0.077 A 
HETATM    3  C5  UNL     1      11.921  35.027   4.776  1.00  0.00    -0.025 A 
HETATM    4  C4  UNL     1      11.605  36.281   4.501  1.00  0.00    -0.064 A 
HETATM    5  C6  UNL     1      13.345  34.613   5.066  1.00  0.00     0.051 C 
HETATM    6  C18 UNL     1      10.137  36.303   4.275  1.00  0.00     0.071 A 
HETATM    7  C16 UNL     1       9.716  34.892   4.465  1.00  0.00    -0.046 A 
HETATM    8  C17 UNL     1       8.287  34.468   4.325  1.00  0.00     0.046 C 
BRANCH   4   9
HETATM    9  C3  UNL     1      12.491  37.472   4.421  1.00  0.00     0.061 C 
BRANCH   9  10
HETATM   10  C2  UNL     1      11.936  38.621   5.185  1.00  0.00    -0.033 C 
HETATM   11  C1  UNL     1      12.467  38.958   6.349  1.00  0.00     0.007 C 
ENDBRANCH   9  10
ENDBRANCH   4   9
ENDBRANCH   1   2
BRANCH   1  12
HETATM   12  C8  UNL     1      11.048  32.228   6.269  1.00  0.00     0.176 C 
BRANCH  12  13
HETATM   13  C9  UNL     1       9.908  32.515   7.178  1.00  0.00     0.038 C 
BRANCH  13  14
HETATM   14  C10 UNL     1       9.066  31.337   7.531  1.00  0.00    -0.017 C 
HETATM   15  C12 UNL     1       8.798  30.450   6.346  1.00  0.00     0.012 C 
HETATM   16  C13 UNL     1       7.445  30.804   5.808  1.00  0.00     0.001 C 
HETATM   17  C14 UNL     1       7.036  32.040   6.581  1.00  0.00     0.001 C 
HETATM   18  C15 UNL     1       7.679  31.770   7.938  1.00  0.00     0.012 C 
BRANCH  14  19
HETATM   19  C11 UNL     1       9.655  30.480   8.617  1.00  0.00     0.173 C 
BRANCH  19  20
HETATM   20  O2  UNL     1       9.248  31.049   9.842  1.00  0.00    -0.400 OA
ATOM     21  H2  UNL     1       8.744  30.383  10.295  1.00  0.00     0.209 HD
ENDBRANCH  19  20
ENDBRANCH  14  19
ENDBRANCH  13  14
ENDBRANCH  12  13
ENDBRANCH   1  12
TORSDOF 8
ENDMDL
