MODEL 1
REMARK VINA RESULT: -7.158163911      0.000      0.000
REMARK  14 active torsions:
REMARK  status: ('A' for Active; 'I' for Inactive)
REMARK    1  A    between atoms: C2_4  and  C3_5 
REMARK    2  A    between atoms: C3_5  and  C4_6 
REMARK    3  A    between atoms: C4_6  and  C5_7 
REMARK    4  A    between atoms: C5_7  and  C6_8 
REMARK    5  A    between atoms: C6_8  and  C7_9 
REMARK    6  A    between atoms: C7_9  and  C8_10 
REMARK    7  A    between atoms: C8_10  and  C9_11 
REMARK    8  A    between atoms: C9_11  and  C10_12 
REMARK    9  A    between atoms: C10_12  and  C11_13 
REMARK   10  A    between atoms: C11_13  and  C12_14 
REMARK   11  A    between atoms: C12_14  and  C13_15 
REMARK   12  A    between atoms: C13_15  and  C14_16 
REMARK   13  A    between atoms: C14_16  and  C15_17 
REMARK   14  A    between atoms: C15_17  and  C16_18 
ROOT
HETATM    1  C7  UNL     1       9.414  31.692   6.978  1.00  0.00     0.000 C 
ENDROOT
BRANCH   1   2
HETATM    2  C6  UNL     1       8.989  31.689   5.528  1.00  0.00     0.000 C 
BRANCH   2   3
HETATM    3  C5  UNL     1       7.688  32.499   5.470  1.00  0.00     0.000 C 
BRANCH   3   4
HETATM    4  C4  UNL     1       7.977  33.965   5.398  1.00  0.00     0.007 C 
BRANCH   4   5
HETATM    5  C3  UNL     1       8.677  34.254   4.089  1.00  0.00     0.078 C 
BRANCH   5   6
HETATM    6  C2  UNL     1       9.960  34.963   4.290  1.00  0.00     0.096 A 
HETATM    7  N1  UNL     1      10.876  34.715   5.236  1.00  0.00    -0.340 N 
HETATM    8  C1  UNL     1      11.903  35.558   5.101  1.00  0.00     0.198 A 
ATOM      9  H1  UNL     1      10.800  33.992   5.951  1.00  0.00     0.168 HD
HETATM   10  N3  UNL     1      11.612  36.343   4.047  1.00  0.00    -0.295 N 
HETATM   11  N2  UNL     1      10.452  35.992   3.558  1.00  0.00    -0.288 N 
ATOM     12  H3  UNL     1      12.203  37.092   3.686  1.00  0.00     0.187 HD
ATOM     13  H2  UNL     1       9.992  36.423   2.756  1.00  0.00     0.188 HD
ENDBRANCH   5   6
ENDBRANCH   4   5
ENDBRANCH   3   4
ENDBRANCH   2   3
ENDBRANCH   1   2
BRANCH   1  14
HETATM   14  C8  UNL     1       8.288  31.309   7.912  1.00  0.00     0.000 C 
BRANCH  14  15
HETATM   15  C9  UNL     1       8.694  30.243   8.872  1.00  0.00     0.000 C 
BRANCH  15  16
HETATM   16  C10 UNL     1      10.177  30.059   8.976  1.00  0.00     0.000 C 
BRANCH  16  17
HETATM   17  C11 UNL     1      10.529  28.615   9.079  1.00  0.00     0.000 C 
BRANCH  17  18
HETATM   18  C12 UNL     1      11.927  28.348   9.584  1.00  0.00     0.000 C 
BRANCH  18  19
HETATM   19  C13 UNL     1      12.329  29.273  10.708  1.00  0.00     0.000 C 
BRANCH  19  20
HETATM   20  C14 UNL     1      13.534  30.077  10.428  1.00  0.00     0.000 C 
BRANCH  20  21
HETATM   21  C15 UNL     1      14.477  29.626   9.387  1.00  0.00     0.004 C 
BRANCH  21  22
HETATM   22  C16 UNL     1      14.688  30.498   8.213  1.00  0.00    -0.014 C 
HETATM   23  C17 UNL     1      14.721  29.911   6.833  1.00  0.00     0.004 C 
HETATM   24  C18 UNL     1      14.046  31.228   6.373  1.00  0.00     0.001 C 
HETATM   25  C19 UNL     1      13.398  31.215   7.772  1.00  0.00     0.004 C 
ENDBRANCH  21  22
ENDBRANCH  20  21
ENDBRANCH  19  20
ENDBRANCH  18  19
ENDBRANCH  17  18
ENDBRANCH  16  17
ENDBRANCH  15  16
ENDBRANCH  14  15
ENDBRANCH   1  14
TORSDOF 14
ENDMDL
MODEL 2
REMARK VINA RESULT: -7.093103559      0.795      1.677
REMARK  14 active torsions:
REMARK  status: ('A' for Active; 'I' for Inactive)
REMARK    1  A    between atoms: C2_4  and  C3_5 
REMARK    2  A    between atoms: C3_5  and  C4_6 
REMARK    3  A    between atoms: C4_6  and  C5_7 
REMARK    4  A    between atoms: C5_7  and  C6_8 
REMARK    5  A    between atoms: C6_8  and  C7_9 
REMARK    6  A    between atoms: C7_9  and  C8_10 
REMARK    7  A    between atoms: C8_10  and  C9_11 
REMARK    8  A    between atoms: C9_11  and  C10_12 
REMARK    9  A    between atoms: C10_12  and  C11_13 
REMARK   10  A    between atoms: C11_13  and  C12_14 
REMARK   11  A    between atoms: C12_14  and  C13_15 
REMARK   12  A    between atoms: C13_15  and  C14_16 
REMARK   13  A    between atoms: C14_16  and  C15_17 
REMARK   14  A    between atoms: C15_17  and  C16_18 
ROOT
HETATM    1  C7  UNL     1       8.953  32.072   5.597  1.00  0.00     0.000 C 
ENDROOT
BRANCH   1   2
HETATM    2  C6  UNL     1       7.740  32.950   5.794  1.00  0.00     0.000 C 
BRANCH   2   3
HETATM    3  C5  UNL     1       7.734  33.932   4.616  1.00  0.00     0.000 C 
BRANCH   3   4
HETATM    4  C4  UNL     1       9.033  33.882   3.876  1.00  0.00     0.007 C 
BRANCH   4   5
HETATM    5  C3  UNL     1       9.493  35.299   3.616  1.00  0.00     0.078 C 
BRANCH   5   6
HETATM    6  C2  UNL     1      10.593  35.701   4.519  1.00  0.00     0.096 A 
HETATM    7  N1  UNL     1      11.089  36.936   4.682  1.00  0.00    -0.340 N 
HETATM    8  C1  UNL     1      12.075  36.910   5.583  1.00  0.00     0.198 A 
ATOM      9  H1  UNL     1      10.762  37.769   4.193  1.00  0.00     0.168 HD
HETATM   10  N3  UNL     1      12.188  35.630   5.983  1.00  0.00    -0.295 N 
HETATM   11  N2  UNL     1      11.306  34.903   5.350  1.00  0.00    -0.288 N 
ATOM     12  H3  UNL     1      12.856  35.282   6.671  1.00  0.00     0.187 HD
ATOM     13  H2  UNL     1      11.174  33.898   5.464  1.00  0.00     0.188 HD
ENDBRANCH   5   6
ENDBRANCH   4   5
ENDBRANCH   3   4
ENDBRANCH   2   3
ENDBRANCH   1   2
BRANCH   1  14
HETATM   14  C8  UNL     1       9.516  31.560   6.903  1.00  0.00     0.000 C 
BRANCH  14  15
HETATM   15  C9  UNL     1       8.450  31.326   7.920  1.00  0.00     0.000 C 
BRANCH  15  16
HETATM   16  C10 UNL     1       8.810  30.291   8.941  1.00  0.00     0.000 C 
BRANCH  16  17
HETATM   17  C11 UNL     1      10.276  30.027   8.936  1.00  0.00     0.000 C 
BRANCH  17  18
HETATM   18  C12 UNL     1      10.646  28.563   8.992  1.00  0.00     0.000 C 
BRANCH  18  19
HETATM   19  C13 UNL     1      11.938  28.314   9.732  1.00  0.00     0.000 C 
BRANCH  19  20
HETATM   20  C14 UNL     1      12.438  29.479  10.486  1.00  0.00     0.000 C 
BRANCH  20  21
HETATM   21  C15 UNL     1      13.720  30.096  10.095  1.00  0.00     0.004 C 
BRANCH  21  22
HETATM   22  C16 UNL     1      14.360  29.639   8.844  1.00  0.00    -0.014 C 
HETATM   23  C17 UNL     1      14.075  30.344   7.550  1.00  0.00     0.004 C 
HETATM   24  C18 UNL     1      15.548  30.033   7.181  1.00  0.00     0.001 C 
HETATM   25  C19 UNL     1      15.803  30.158   8.697  1.00  0.00     0.004 C 
ENDBRANCH  21  22
ENDBRANCH  20  21
ENDBRANCH  19  20
ENDBRANCH  18  19
ENDBRANCH  17  18
ENDBRANCH  16  17
ENDBRANCH  15  16
ENDBRANCH  14  15
ENDBRANCH   1  14
TORSDOF 14
ENDMDL
MODEL 3
REMARK VINA RESULT: -6.940960398      1.437      2.189
REMARK  14 active torsions:
REMARK  status: ('A' for Active; 'I' for Inactive)
REMARK    1  A    between atoms: C2_4  and  C3_5 
REMARK    2  A    between atoms: C3_5  and  C4_6 
REMARK    3  A    between atoms: C4_6  and  C5_7 
REMARK    4  A    between atoms: C5_7  and  C6_8 
REMARK    5  A    between atoms: C6_8  and  C7_9 
REMARK    6  A    between atoms: C7_9  and  C8_10 
REMARK    7  A    between atoms: C8_10  and  C9_11 
REMARK    8  A    between atoms: C9_11  and  C10_12 
REMARK    9  A    between atoms: C10_12  and  C11_13 
REMARK   10  A    between atoms: C11_13  and  C12_14 
REMARK   11  A    between atoms: C12_14  and  C13_15 
REMARK   12  A    between atoms: C13_15  and  C14_16 
REMARK   13  A    between atoms: C14_16  and  C15_17 
REMARK   14  A    between atoms: C15_17  and  C16_18 
ROOT
HETATM    1  C7  UNL     1       9.259  31.353   7.460  1.00  0.00     0.000 C 
ENDROOT
BRANCH   1   2
HETATM    2  C6  UNL     1       7.906  31.942   7.136  1.00  0.00     0.000 C 
BRANCH   2   3
HETATM    3  C5  UNL     1       7.951  32.302   5.646  1.00  0.00     0.000 C 
BRANCH   3   4
HETATM    4  C4  UNL     1       7.869  33.783   5.453  1.00  0.00     0.007 C 
BRANCH   4   5
HETATM    5  C3  UNL     1       8.539  34.136   4.144  1.00  0.00     0.078 C 
BRANCH   5   6
HETATM    6  C2  UNL     1       9.807  34.870   4.347  1.00  0.00     0.096 A 
HETATM    7  N1  UNL     1      10.784  34.563   5.211  1.00  0.00    -0.340 N 
HETATM    8  C1  UNL     1      11.772  35.456   5.109  1.00  0.00     0.198 A 
ATOM      9  H1  UNL     1      10.774  33.768   5.849  1.00  0.00     0.168 HD
HETATM   10  N3  UNL     1      11.394  36.333   4.161  1.00  0.00    -0.295 N 
HETATM   11  N2  UNL     1      10.220  35.988   3.702  1.00  0.00    -0.288 N 
ATOM     12  H3  UNL     1      11.937  37.138   3.849  1.00  0.00     0.187 HD
ATOM     13  H2  UNL     1       9.699  36.481   2.976  1.00  0.00     0.188 HD
ENDBRANCH   5   6
ENDBRANCH   4   5
ENDBRANCH   3   4
ENDBRANCH   2   3
ENDBRANCH   1   2
BRANCH   1  14
HETATM   14  C8  UNL     1       9.222  30.455   8.676  1.00  0.00     0.000 C 
BRANCH  14  15
HETATM   15  C9  UNL     1      10.361  29.492   8.696  1.00  0.00     0.000 C 
BRANCH  15  16
HETATM   16  C10 UNL     1      11.028  29.377  10.032  1.00  0.00     0.000 C 
BRANCH  16  17
HETATM   17  C11 UNL     1      12.362  28.724   9.906  1.00  0.00     0.000 C 
BRANCH  17  18
HETATM   18  C12 UNL     1      13.227  29.280   8.799  1.00  0.00     0.000 C 
BRANCH  18  19
HETATM   19  C13 UNL     1      14.605  29.672   9.276  1.00  0.00     0.000 C 
BRANCH  19  20
HETATM   20  C14 UNL     1      14.951  31.085   9.032  1.00  0.00     0.000 C 
BRANCH  20  21
HETATM   21  C15 UNL     1      14.829  32.058  10.134  1.00  0.00     0.004 C 
BRANCH  21  22
HETATM   22  C16 UNL     1      13.608  32.889  10.198  1.00  0.00    -0.014 C 
HETATM   23  C17 UNL     1      12.574  32.795   9.115  1.00  0.00     0.004 C 
HETATM   24  C18 UNL     1      11.533  33.041  10.237  1.00  0.00     0.001 C 
HETATM   25  C19 UNL     1      12.540  32.295  11.136  1.00  0.00     0.004 C 
ENDBRANCH  21  22
ENDBRANCH  20  21
ENDBRANCH  19  20
ENDBRANCH  18  19
ENDBRANCH  17  18
ENDBRANCH  16  17
ENDBRANCH  15  16
ENDBRANCH  14  15
ENDBRANCH   1  14
TORSDOF 14
ENDMDL
MODEL 4
REMARK VINA RESULT: -6.937986810      1.765      4.135
REMARK  14 active torsions:
REMARK  status: ('A' for Active; 'I' for Inactive)
REMARK    1  A    between atoms: C2_4  and  C3_5 
REMARK    2  A    between atoms: C3_5  and  C4_6 
REMARK    3  A    between atoms: C4_6  and  C5_7 
REMARK    4  A    between atoms: C5_7  and  C6_8 
REMARK    5  A    between atoms: C6_8  and  C7_9 
REMARK    6  A    between atoms: C7_9  and  C8_10 
REMARK    7  A    between atoms: C8_10  and  C9_11 
REMARK    8  A    between atoms: C9_11  and  C10_12 
REMARK    9  A    between atoms: C10_12  and  C11_13 
REMARK   10  A    between atoms: C11_13  and  C12_14 
REMARK   11  A    between atoms: C12_14  and  C13_15 
REMARK   12  A    between atoms: C13_15  and  C14_16 
REMARK   13  A    between atoms: C14_16  and  C15_17 
REMARK   14  A    between atoms: C15_17  and  C16_18 
ROOT
HETATM    1  C7  UNL     1      12.304  34.353   4.867  1.00  0.00     0.000 C 
ENDROOT
BRANCH   1   2
HETATM    2  C6  UNL     1      11.871  35.749   4.485  1.00  0.00     0.000 C 
BRANCH   2   3
HETATM    3  C5  UNL     1      10.338  35.735   4.507  1.00  0.00     0.000 C 
BRANCH   3   4
HETATM    4  C4  UNL     1       9.802  34.684   3.587  1.00  0.00     0.007 C 
BRANCH   4   5
HETATM    5  C3  UNL     1       8.437  34.261   4.082  1.00  0.00     0.078 C 
BRANCH   5   6
HETATM    6  C2  UNL     1       8.524  33.371   5.260  1.00  0.00     0.096 A 
HETATM    7  N1  UNL     1       9.287  32.277   5.386  1.00  0.00    -0.340 N 
HETATM    8  C1  UNL     1       9.099  31.733   6.592  1.00  0.00     0.198 A 
ATOM      9  H1  UNL     1       9.916  31.914   4.670  1.00  0.00     0.168 HD
HETATM   10  N3  UNL     1       8.200  32.512   7.221  1.00  0.00    -0.295 N 
HETATM   11  N2  UNL     1       7.852  33.492   6.430  1.00  0.00    -0.288 N 
ATOM     12  H3  UNL     1       7.846  32.361   8.166  1.00  0.00     0.187 HD
ATOM     13  H2  UNL     1       7.183  34.228   6.657  1.00  0.00     0.188 HD
ENDBRANCH   5   6
ENDBRANCH   4   5
ENDBRANCH   3   4
ENDBRANCH   2   3
ENDBRANCH   1   2
BRANCH   1  14
HETATM   14  C8  UNL     1      12.957  34.301   6.230  1.00  0.00     0.000 C 
BRANCH  14  15
HETATM   15  C9  UNL     1      12.627  33.044   6.962  1.00  0.00     0.000 C 
BRANCH  15  16
HETATM   16  C10 UNL     1      12.965  31.799   6.203  1.00  0.00     0.000 C 
BRANCH  16  17
HETATM   17  C11 UNL     1      14.369  31.377   6.472  1.00  0.00     0.000 C 
BRANCH  17  18
HETATM   18  C12 UNL     1      14.500  30.006   7.093  1.00  0.00     0.000 C 
BRANCH  18  19
HETATM   19  C13 UNL     1      15.139  30.042   8.460  1.00  0.00     0.000 C 
BRANCH  19  20
HETATM   20  C14 UNL     1      14.255  30.542   9.529  1.00  0.00     0.000 C 
BRANCH  20  21
HETATM   21  C15 UNL     1      13.536  29.577  10.381  1.00  0.00     0.004 C 
BRANCH  21  22
HETATM   22  C16 UNL     1      12.073  29.451  10.211  1.00  0.00    -0.014 C 
HETATM   23  C17 UNL     1      11.353  30.309   9.214  1.00  0.00     0.004 C 
HETATM   24  C18 UNL     1      10.427  29.087   8.992  1.00  0.00     0.001 C 
HETATM   25  C19 UNL     1      11.684  28.256   9.320  1.00  0.00     0.004 C 
ENDBRANCH  21  22
ENDBRANCH  20  21
ENDBRANCH  19  20
ENDBRANCH  18  19
ENDBRANCH  17  18
ENDBRANCH  16  17
ENDBRANCH  15  16
ENDBRANCH  14  15
ENDBRANCH   1  14
TORSDOF 14
ENDMDL
MODEL 5
REMARK VINA RESULT: -6.917532783      0.888      1.252
REMARK  14 active torsions:
REMARK  status: ('A' for Active; 'I' for Inactive)
REMARK    1  A    between atoms: C2_4  and  C3_5 
REMARK    2  A    between atoms: C3_5  and  C4_6 
REMARK    3  A    between atoms: C4_6  and  C5_7 
REMARK    4  A    between atoms: C5_7  and  C6_8 
REMARK    5  A    between atoms: C6_8  and  C7_9 
REMARK    6  A    between atoms: C7_9  and  C8_10 
REMARK    7  A    between atoms: C8_10  and  C9_11 
REMARK    8  A    between atoms: C9_11  and  C10_12 
REMARK    9  A    between atoms: C10_12  and  C11_13 
REMARK   10  A    between atoms: C11_13  and  C12_14 
REMARK   11  A    between atoms: C12_14  and  C13_15 
REMARK   12  A    between atoms: C13_15  and  C14_16 
REMARK   13  A    between atoms: C14_16  and  C15_17 
REMARK   14  A    between atoms: C15_17  and  C16_18 
ROOT
HETATM    1  C7  UNL     1       8.013  31.783   7.064  1.00  0.00     0.000 C 
ENDROOT
BRANCH   1   2
HETATM    2  C6  UNL     1       7.665  32.181   5.650  1.00  0.00     0.000 C 
BRANCH   2   3
HETATM    3  C5  UNL     1       7.725  33.713   5.617  1.00  0.00     0.000 C 
BRANCH   3   4
HETATM    4  C4  UNL     1       7.867  34.211   4.214  1.00  0.00     0.007 C 
BRANCH   4   5
HETATM    5  C3  UNL     1       9.277  33.934   3.744  1.00  0.00     0.078 C 
BRANCH   5   6
HETATM    6  C2  UNL     1      10.236  34.949   4.233  1.00  0.00     0.096 A 
HETATM    7  N1  UNL     1      11.155  34.788   5.194  1.00  0.00    -0.340 N 
HETATM    8  C1  UNL     1      11.837  35.925   5.359  1.00  0.00     0.198 A 
ATOM      9  H1  UNL     1      11.311  33.928   5.720  1.00  0.00     0.168 HD
HETATM   10  N3  UNL     1      11.325  36.805   4.479  1.00  0.00    -0.295 N 
HETATM   11  N2  UNL     1      10.367  36.227   3.804  1.00  0.00    -0.288 N 
ATOM     12  H3  UNL     1      11.635  37.769   4.359  1.00  0.00     0.187 HD
ATOM     13  H2  UNL     1       9.810  36.667   3.072  1.00  0.00     0.188 HD
ENDBRANCH   5   6
ENDBRANCH   4   5
ENDBRANCH   3   4
ENDBRANCH   2   3
ENDBRANCH   1   2
BRANCH   1  14
HETATM   14  C8  UNL     1       9.476  31.435   7.225  1.00  0.00     0.000 C 
BRANCH  14  15
HETATM   15  C9  UNL     1       9.810  31.054   8.628  1.00  0.00     0.000 C 
BRANCH  15  16
HETATM   16  C10 UNL     1       9.722  29.582   8.889  1.00  0.00     0.000 C 
BRANCH  16  17
HETATM   17  C11 UNL     1      11.064  29.016   9.201  1.00  0.00     0.000 C 
BRANCH  17  18
HETATM   18  C12 UNL     1      11.711  29.589  10.440  1.00  0.00     0.000 C 
BRANCH  18  19
HETATM   19  C13 UNL     1      13.196  29.327  10.499  1.00  0.00     0.000 C 
BRANCH  19  20
HETATM   20  C14 UNL     1      13.868  29.354   9.186  1.00  0.00     0.000 C 
BRANCH  20  21
HETATM   21  C15 UNL     1      14.850  30.417   8.900  1.00  0.00     0.004 C 
BRANCH  21  22
HETATM   22  C16 UNL     1      14.402  31.586   8.113  1.00  0.00    -0.014 C 
HETATM   23  C17 UNL     1      13.225  31.468   7.192  1.00  0.00     0.004 C 
HETATM   24  C18 UNL     1      12.908  32.934   7.583  1.00  0.00     0.001 C 
HETATM   25  C19 UNL     1      13.536  32.555   8.940  1.00  0.00     0.004 C 
ENDBRANCH  21  22
ENDBRANCH  20  21
ENDBRANCH  19  20
ENDBRANCH  18  19
ENDBRANCH  17  18
ENDBRANCH  16  17
ENDBRANCH  15  16
ENDBRANCH  14  15
ENDBRANCH   1  14
TORSDOF 14
ENDMDL
