MODEL 1
REMARK VINA RESULT: -8.145309971      0.000      0.000
REMARK  12 active torsions:
REMARK  status: ('A' for Active; 'I' for Inactive)
REMARK    1  A    between atoms: C2_2  and  C3_3 
REMARK    2  A    between atoms: C4_5  and  O2_7 
REMARK    3  A    between atoms: O2_7  and  C6_8 
REMARK    4  A    between atoms: C7_10  and  C8_11 
REMARK    5  A    between atoms: C8_11  and  N1_12 
REMARK    6  A    between atoms: C9_16  and  O4_17 
REMARK    7  A    between atoms: C11_20  and  N2_21 
REMARK    8  A    between atoms: C12_25  and  C13_26 
REMARK    9  A    between atoms: C13_26  and  N3_27 
REMARK       I    between atoms: N3_27  and  C14_28 
REMARK   10  A    between atoms: C16_31  and  O6_32 
REMARK   11  A    between atoms: O6_32  and  C17_33 
REMARK   12  A    between atoms: C19_35  and  N4_36 
ROOT
HETATM    1  C3  UNL     1      22.483  11.021  19.654  1.00  0.00     0.154 C 
HETATM    2  O1  UNL     1      21.954   9.800  20.002  1.00  0.00    -0.347 OA
HETATM    3  C4  UNL     1      21.983   9.787  21.399  1.00  0.00     0.175 C 
HETATM    4  C5  UNL     1      21.068   8.749  21.962  1.00  0.00     0.080 C 
HETATM    5  C12 UNL     1      21.491  11.160  21.722  1.00  0.00     0.132 C 
HETATM    6  C16 UNL     1      21.818  12.005  20.546  1.00  0.00     0.168 C 
ENDROOT
BRANCH   3   7
HETATM    7  O2  UNL     1      23.266   9.707  21.877  1.00  0.00    -0.323 OA
BRANCH   7   8
HETATM    8  C6  UNL     1      23.653   9.007  22.928  1.00  0.00     0.294 C 
HETATM    9  O3  UNL     1      24.819   8.273  22.747  1.00  0.00    -0.350 OA
HETATM   10  C7  UNL     1      25.906   9.070  22.575  1.00  0.00     0.178 C 
HETATM   11  C9  UNL     1      25.893  10.391  23.180  1.00  0.00     0.151 C 
HETATM   12  C10 UNL     1      24.854  10.767  24.181  1.00  0.00     0.072 C 
HETATM   13  C11 UNL     1      23.779   9.703  24.292  1.00  0.00     0.240 C 
BRANCH  10  14
HETATM   14  C8  UNL     1      26.333   9.125  21.101  1.00  0.00     0.264 C 
BRANCH  14  15
HETATM   15  N1  UNL     1      27.762   8.989  21.055  1.00  0.00    -0.077 N 
ATOM     16  H13 UNL     1      28.248   9.758  21.516  1.00  0.00     0.274 HD
ATOM     17  H12 UNL     1      28.108   8.235  21.648  1.00  0.00     0.274 HD
ATOM     18  H11 UNL     1      28.031   8.880  20.077  1.00  0.00     0.274 HD
ENDBRANCH  14  15
ENDBRANCH  10  14
BRANCH  11  19
HETATM   19  O4  UNL     1      25.821  11.356  22.124  1.00  0.00    -0.393 OA
ATOM     20  H4  UNL     1      25.401  12.135  22.469  1.00  0.00     0.210 HD
ENDBRANCH  11  19
BRANCH  13  21
HETATM   21  N2  UNL     1      24.329   8.703  25.232  1.00  0.00    -0.070 N 
ATOM     22  H23 UNL     1      24.290   7.748  24.873  1.00  0.00     0.274 HD
ATOM     23  H22 UNL     1      25.342   8.761  25.334  1.00  0.00     0.274 HD
ATOM     24  H21 UNL     1      23.828   8.821  26.113  1.00  0.00     0.274 HD
ENDBRANCH  13  21
ENDBRANCH   7   8
ENDBRANCH   3   7
BRANCH   5  25
HETATM   25  C13 UNL     1      20.082  11.202  22.213  1.00  0.00     0.171 C 
BRANCH  25  26
HETATM   26  N3  UNL     1      19.632  12.050  23.123  1.00  0.00    -0.387 NA
HETATM   27  C14 UNL     1      19.159  12.942  24.082  1.00  0.00     0.286 C 
HETATM   28  C15 UNL     1      20.049  13.318  25.264  1.00  0.00     0.135 C 
HETATM   29  O5  UNL     1      18.050  13.539  24.170  1.00  0.00    -0.258 OA
ENDBRANCH  25  26
ENDBRANCH   5  25
BRANCH   1  30
HETATM   30  C2  UNL     1      22.492  11.249  18.192  1.00  0.00     0.030 C 
HETATM   31  C1  UNL     1      23.144  10.237  17.328  1.00  0.00     0.007 C 
ENDBRANCH   1  30
BRANCH   6  32
HETATM   32  O6  UNL     1      20.866  12.822  20.063  1.00  0.00    -0.358 OA
BRANCH  32  33
HETATM   33  C17 UNL     1      21.124  14.171  20.080  1.00  0.00     0.224 C 
HETATM   34  C18 UNL     1      20.901  14.874  21.408  1.00  0.00     0.086 C 
HETATM   35  C19 UNL     1      21.323  16.313  21.156  1.00  0.00     0.194 C 
HETATM   36  C20 UNL     1      20.099  16.922  20.435  1.00  0.00     0.105 C 
HETATM   37  C21 UNL     1      20.030  16.107  19.166  1.00  0.00     0.092 C 
HETATM   38  N5  UNL     1      19.408  16.688  18.014  1.00  0.00    -0.088 NA
HETATM   39  N6  UNL     1      20.479  14.945  19.062  1.00  0.00    -0.355 N 
ATOM     40  H6  UNL     1      20.373  14.498  18.151  1.00  0.00     0.163 HD
BRANCH  35  41
HETATM   41  N4  UNL     1      21.666  17.079  22.294  1.00  0.00    -0.074 N 
ATOM     42  H43 UNL     1      21.836  18.047  22.018  1.00  0.00     0.274 HD
ATOM     43  H42 UNL     1      20.845  17.197  22.888  1.00  0.00     0.274 HD
ATOM     44  H41 UNL     1      22.448  16.739  22.853  1.00  0.00     0.274 HD
ENDBRANCH  35  41
ENDBRANCH  32  33
ENDBRANCH   6  32
TORSDOF 12
ENDMDL
MODEL 2
REMARK VINA RESULT: -8.037335305      1.306      1.763
REMARK  12 active torsions:
REMARK  status: ('A' for Active; 'I' for Inactive)
REMARK    1  A    between atoms: C2_2  and  C3_3 
REMARK    2  A    between atoms: C4_5  and  O2_7 
REMARK    3  A    between atoms: O2_7  and  C6_8 
REMARK    4  A    between atoms: C7_10  and  C8_11 
REMARK    5  A    between atoms: C8_11  and  N1_12 
REMARK    6  A    between atoms: C9_16  and  O4_17 
REMARK    7  A    between atoms: C11_20  and  N2_21 
REMARK    8  A    between atoms: C12_25  and  C13_26 
REMARK    9  A    between atoms: C13_26  and  N3_27 
REMARK       I    between atoms: N3_27  and  C14_28 
REMARK   10  A    between atoms: C16_31  and  O6_32 
REMARK   11  A    between atoms: O6_32  and  C17_33 
REMARK   12  A    between atoms: C19_35  and  N4_36 
ROOT
HETATM    1  C3  UNL     1      22.417   9.586  19.329  1.00  0.00     0.154 C 
HETATM    2  O1  UNL     1      21.919   8.506  20.019  1.00  0.00    -0.347 OA
HETATM    3  C4  UNL     1      22.091   8.837  21.366  1.00  0.00     0.175 C 
HETATM    4  C5  UNL     1      21.232   8.000  22.256  1.00  0.00     0.080 C 
HETATM    5  C12 UNL     1      21.645  10.263  21.384  1.00  0.00     0.132 C 
HETATM    6  C16 UNL     1      21.854  10.780  20.009  1.00  0.00     0.168 C 
ENDROOT
BRANCH   3   7
HETATM    7  O2  UNL     1      23.416   8.836  21.721  1.00  0.00    -0.323 OA
BRANCH   7   8
HETATM    8  C6  UNL     1      23.902   8.423  22.877  1.00  0.00     0.294 C 
HETATM    9  O3  UNL     1      25.253   8.098  22.863  1.00  0.00    -0.350 OA
HETATM   10  C7  UNL     1      26.041   9.184  22.644  1.00  0.00     0.178 C 
HETATM   11  C9  UNL     1      25.549  10.486  23.061  1.00  0.00     0.151 C 
HETATM   12  C10 UNL     1      24.352  10.608  23.943  1.00  0.00     0.072 C 
HETATM   13  C11 UNL     1      23.668   9.269  24.138  1.00  0.00     0.240 C 
BRANCH  10  14
HETATM   14  C8  UNL     1      26.569   9.212  21.202  1.00  0.00     0.264 C 
BRANCH  14  15
HETATM   15  N1  UNL     1      27.875   8.617  21.203  1.00  0.00    -0.077 N 
ATOM     16  H13 UNL     1      27.987   7.905  20.482  1.00  0.00     0.274 HD
ATOM     17  H12 UNL     1      28.602   9.254  20.877  1.00  0.00     0.274 HD
ATOM     18  H11 UNL     1      28.053   8.261  22.143  1.00  0.00     0.274 HD
ENDBRANCH  14  15
ENDBRANCH  10  14
BRANCH  11  19
HETATM   19  O4  UNL     1      25.275  11.250  21.881  1.00  0.00    -0.393 OA
ATOM     20  H4  UNL     1      24.588  10.804  21.399  1.00  0.00     0.210 HD
ENDBRANCH  11  19
BRANCH  13  21
HETATM   21  N2  UNL     1      24.414   8.616  25.235  1.00  0.00    -0.070 N 
ATOM     22  H23 UNL     1      24.259   9.054  26.143  1.00  0.00     0.274 HD
ATOM     23  H22 UNL     1      24.052   7.693  25.474  1.00  0.00     0.274 HD
ATOM     24  H21 UNL     1      25.395   8.603  24.956  1.00  0.00     0.274 HD
ENDBRANCH  13  21
ENDBRANCH   7   8
ENDBRANCH   3   7
BRANCH   5  25
HETATM   25  C13 UNL     1      20.293  10.469  21.986  1.00  0.00     0.171 C 
BRANCH  25  26
HETATM   26  N3  UNL     1      19.979  11.470  22.792  1.00  0.00    -0.387 NA
HETATM   27  C14 UNL     1      19.648  12.523  23.641  1.00  0.00     0.286 C 
HETATM   28  C15 UNL     1      20.678  13.029  24.648  1.00  0.00     0.135 C 
HETATM   29  O5  UNL     1      18.578  13.183  23.750  1.00  0.00    -0.258 OA
ENDBRANCH  25  26
ENDBRANCH   5  25
BRANCH   1  30
HETATM   30  C2  UNL     1      22.277   9.447  17.863  1.00  0.00     0.030 C 
HETATM   31  C1  UNL     1      23.234  10.171  16.994  1.00  0.00     0.007 C 
ENDBRANCH   1  30
BRANCH   6  32
HETATM   32  O6  UNL     1      20.863  11.484  19.434  1.00  0.00    -0.358 OA
BRANCH  32  33
HETATM   33  C17 UNL     1      21.066  12.831  19.255  1.00  0.00     0.224 C 
HETATM   34  C18 UNL     1      22.484  13.248  18.907  1.00  0.00     0.086 C 
HETATM   35  C19 UNL     1      22.401  14.753  18.702  1.00  0.00     0.194 C 
HETATM   36  C20 UNL     1      22.409  15.310  20.143  1.00  0.00     0.105 C 
HETATM   37  C21 UNL     1      21.140  14.733  20.723  1.00  0.00     0.092 C 
HETATM   38  N5  UNL     1      20.511  15.421  21.810  1.00  0.00    -0.088 NA
HETATM   39  N6  UNL     1      20.607  13.679  20.313  1.00  0.00    -0.355 N 
ATOM     40  H6  UNL     1      19.749  13.391  20.785  1.00  0.00     0.163 HD
BRANCH  35  41
HETATM   41  N4  UNL     1      23.430  15.343  17.931  1.00  0.00    -0.074 N 
ATOM     42  H43 UNL     1      24.055  14.617  17.581  1.00  0.00     0.274 HD
ATOM     43  H42 UNL     1      23.043  15.695  17.055  1.00  0.00     0.274 HD
ATOM     44  H41 UNL     1      23.975  16.077  18.385  1.00  0.00     0.274 HD
ENDBRANCH  35  41
ENDBRANCH  32  33
ENDBRANCH   6  32
TORSDOF 12
ENDMDL
MODEL 3
REMARK VINA RESULT: -7.944623766      2.579      7.657
REMARK  12 active torsions:
REMARK  status: ('A' for Active; 'I' for Inactive)
REMARK    1  A    between atoms: C2_2  and  C3_3 
REMARK    2  A    between atoms: C4_5  and  O2_7 
REMARK    3  A    between atoms: O2_7  and  C6_8 
REMARK    4  A    between atoms: C7_10  and  C8_11 
REMARK    5  A    between atoms: C8_11  and  N1_12 
REMARK    6  A    between atoms: C9_16  and  O4_17 
REMARK    7  A    between atoms: C11_20  and  N2_21 
REMARK    8  A    between atoms: C12_25  and  C13_26 
REMARK    9  A    between atoms: C13_26  and  N3_27 
REMARK       I    between atoms: N3_27  and  C14_28 
REMARK   10  A    between atoms: C16_31  and  O6_32 
REMARK   11  A    between atoms: O6_32  and  C17_33 
REMARK   12  A    between atoms: C19_35  and  N4_36 
ROOT
HETATM    1  C3  UNL     1      22.553   8.623  23.571  1.00  0.00     0.154 C 
HETATM    2  O1  UNL     1      23.107   8.293  22.356  1.00  0.00    -0.347 OA
HETATM    3  C4  UNL     1      23.737   9.463  21.926  1.00  0.00     0.175 C 
HETATM    4  C5  UNL     1      24.743   9.188  20.856  1.00  0.00     0.080 C 
HETATM    5  C12 UNL     1      24.407   9.922  23.180  1.00  0.00     0.132 C 
HETATM    6  C16 UNL     1      23.618   9.355  24.302  1.00  0.00     0.168 C 
ENDROOT
BRANCH   3   7
HETATM    7  O2  UNL     1      22.827  10.432  21.588  1.00  0.00    -0.323 OA
BRANCH   7   8
HETATM    8  C6  UNL     1      21.947  10.353  20.608  1.00  0.00     0.294 C 
HETATM    9  O3  UNL     1      20.621  10.506  20.996  1.00  0.00    -0.350 OA
HETATM   10  C7  UNL     1      20.361  11.760  21.452  1.00  0.00     0.178 C 
HETATM   11  C9  UNL     1      21.164  12.858  20.941  1.00  0.00     0.151 C 
HETATM   12  C10 UNL     1      22.056  12.673  19.761  1.00  0.00     0.072 C 
HETATM   13  C11 UNL     1      22.139  11.215  19.351  1.00  0.00     0.240 C 
BRANCH  10  14
HETATM   14  C8  UNL     1      20.267  11.790  22.985  1.00  0.00     0.264 C 
BRANCH  14  15
HETATM   15  N1  UNL     1      19.269  12.758  23.341  1.00  0.00    -0.077 N 
ATOM     16  H13 UNL     1      18.876  12.599  24.269  1.00  0.00     0.274 HD
ATOM     17  H12 UNL     1      19.660  13.684  23.518  1.00  0.00     0.274 HD
ATOM     18  H11 UNL     1      18.562  12.760  22.607  1.00  0.00     0.274 HD
ENDBRANCH  14  15
ENDBRANCH  10  14
BRANCH  11  19
HETATM   19  O4  UNL     1      21.987  13.334  22.013  1.00  0.00    -0.393 OA
ATOM     20  H4  UNL     1      21.414  13.660  22.697  1.00  0.00     0.210 HD
ENDBRANCH  11  19
BRANCH  13  21
HETATM   21  N2  UNL     1      20.953  10.992  18.495  1.00  0.00    -0.070 N 
ATOM     22  H23 UNL     1      20.320  10.281  18.862  1.00  0.00     0.274 HD
ATOM     23  H22 UNL     1      20.295  11.771  18.510  1.00  0.00     0.274 HD
ATOM     24  H21 UNL     1      21.301  10.777  17.561  1.00  0.00     0.274 HD
ENDBRANCH  13  21
ENDBRANCH   7   8
ENDBRANCH   3   7
BRANCH   5  25
HETATM   25  C13 UNL     1      25.881   9.687  23.203  1.00  0.00     0.171 C 
BRANCH  25  26
HETATM   26  N3  UNL     1      26.777  10.506  22.677  1.00  0.00    -0.387 NA
HETATM   27  C14 UNL     1      27.720  11.368  22.123  1.00  0.00     0.286 C 
HETATM   28  C15 UNL     1      28.205  12.570  22.929  1.00  0.00     0.135 C 
HETATM   29  O5  UNL     1      28.287  11.348  20.995  1.00  0.00    -0.258 OA
ENDBRANCH  25  26
ENDBRANCH   5  25
BRANCH   1  30
HETATM   30  C2  UNL     1      21.871   7.482  24.222  1.00  0.00     0.030 C 
HETATM   31  C1  UNL     1      21.684   6.237  23.441  1.00  0.00     0.007 C 
ENDBRANCH   1  30
BRANCH   6  32
HETATM   32  O6  UNL     1      24.280   8.760  25.311  1.00  0.00    -0.358 OA
BRANCH  32  33
HETATM   33  C17 UNL     1      23.925   9.108  26.591  1.00  0.00     0.224 C 
HETATM   34  C18 UNL     1      23.405  10.523  26.775  1.00  0.00     0.086 C 
HETATM   35  C19 UNL     1      23.030  10.606  28.247  1.00  0.00     0.194 C 
HETATM   36  C20 UNL     1      24.388  10.832  28.947  1.00  0.00     0.105 C 
HETATM   37  C21 UNL     1      25.143   9.568  28.612  1.00  0.00     0.092 C 
HETATM   38  N5  UNL     1      26.192   9.145  29.489  1.00  0.00    -0.088 NA
HETATM   39  N6  UNL     1      24.911   8.870  27.601  1.00  0.00    -0.355 N 
ATOM     40  H6  UNL     1      25.488   8.037  27.483  1.00  0.00     0.163 HD
BRANCH  35  41
HETATM   41  N4  UNL     1      22.107  11.614  28.608  1.00  0.00    -0.074 N 
ATOM     42  H43 UNL     1      22.330  12.478  28.112  1.00  0.00     0.274 HD
ATOM     43  H42 UNL     1      21.193  11.402  28.208  1.00  0.00     0.274 HD
ATOM     44  H41 UNL     1      22.009  11.806  29.605  1.00  0.00     0.274 HD
ENDBRANCH  35  41
ENDBRANCH  32  33
ENDBRANCH   6  32
TORSDOF 12
ENDMDL
MODEL 4
REMARK VINA RESULT: -7.943645664      3.347      5.681
REMARK  12 active torsions:
REMARK  status: ('A' for Active; 'I' for Inactive)
REMARK    1  A    between atoms: C2_2  and  C3_3 
REMARK    2  A    between atoms: C4_5  and  O2_7 
REMARK    3  A    between atoms: O2_7  and  C6_8 
REMARK    4  A    between atoms: C7_10  and  C8_11 
REMARK    5  A    between atoms: C8_11  and  N1_12 
REMARK    6  A    between atoms: C9_16  and  O4_17 
REMARK    7  A    between atoms: C11_20  and  N2_21 
REMARK    8  A    between atoms: C12_25  and  C13_26 
REMARK    9  A    between atoms: C13_26  and  N3_27 
REMARK       I    between atoms: N3_27  and  C14_28 
REMARK   10  A    between atoms: C16_31  and  O6_32 
REMARK   11  A    between atoms: O6_32  and  C17_33 
REMARK   12  A    between atoms: C19_35  and  N4_36 
ROOT
HETATM    1  C3  UNL     1      25.257  10.757  24.034  1.00  0.00     0.154 C 
HETATM    2  O1  UNL     1      25.709   9.691  24.777  1.00  0.00    -0.347 OA
HETATM    3  C4  UNL     1      24.641   9.367  25.617  1.00  0.00     0.175 C 
HETATM    4  C5  UNL     1      24.777   7.990  26.180  1.00  0.00     0.080 C 
HETATM    5  C12 UNL     1      23.484   9.444  24.675  1.00  0.00     0.132 C 
HETATM    6  C16 UNL     1      23.891  10.378  23.595  1.00  0.00     0.168 C 
ENDROOT
BRANCH   3   7
HETATM    7  O2  UNL     1      24.437  10.333  26.569  1.00  0.00    -0.323 OA
BRANCH   7   8
HETATM    8  C6  UNL     1      23.340  10.482  27.290  1.00  0.00     0.294 C 
HETATM    9  O3  UNL     1      23.306   9.742  28.466  1.00  0.00    -0.350 OA
HETATM   10  C7  UNL     1      24.241  10.156  29.361  1.00  0.00     0.178 C 
HETATM   11  C9  UNL     1      24.670  11.544  29.317  1.00  0.00     0.151 C 
HETATM   12  C10 UNL     1      23.924  12.552  28.511  1.00  0.00     0.072 C 
HETATM   13  C11 UNL     1      22.861  11.897  27.648  1.00  0.00     0.240 C 
BRANCH  10  14
HETATM   14  C8  UNL     1      25.438   9.194  29.407  1.00  0.00     0.264 C 
BRANCH  14  15
HETATM   15  N1  UNL     1      26.020   9.282  30.716  1.00  0.00    -0.077 N 
ATOM     16  H13 UNL     1      26.348  10.221  30.941  1.00  0.00     0.274 HD
ATOM     17  H12 UNL     1      25.331   9.198  31.463  1.00  0.00     0.274 HD
ATOM     18  H11 UNL     1      26.758   8.580  30.775  1.00  0.00     0.274 HD
ENDBRANCH  14  15
ENDBRANCH  10  14
BRANCH  11  19
HETATM   19  O4  UNL     1      26.027  11.569  28.861  1.00  0.00    -0.393 OA
ATOM     20  H4  UNL     1      26.130  12.324  28.293  1.00  0.00     0.210 HD
ENDBRANCH  11  19
BRANCH  13  21
HETATM   21  N2  UNL     1      21.692  11.739  28.540  1.00  0.00    -0.070 N 
ATOM     22  H23 UNL     1      21.670  12.419  29.300  1.00  0.00     0.274 HD
ATOM     23  H22 UNL     1      20.812  12.009  28.100  1.00  0.00     0.274 HD
ATOM     24  H21 UNL     1      21.699  10.772  28.865  1.00  0.00     0.274 HD
ENDBRANCH  13  21
ENDBRANCH   7   8
ENDBRANCH   3   7
BRANCH   5  25
HETATM   25  C13 UNL     1      22.953   8.113  24.254  1.00  0.00     0.171 C 
BRANCH  25  26
HETATM   26  N3  UNL     1      21.905   7.943  23.464  1.00  0.00    -0.387 NA
HETATM   27  C14 UNL     1      20.803   7.763  22.632  1.00  0.00     0.286 C 
HETATM   28  C15 UNL     1      20.872   6.738  21.504  1.00  0.00     0.135 C 
HETATM   29  O5  UNL     1      19.677   8.333  22.629  1.00  0.00    -0.258 OA
ENDBRANCH  25  26
ENDBRANCH   5  25
BRANCH   1  30
HETATM   30  C2  UNL     1      26.244  11.222  23.034  1.00  0.00     0.030 C 
HETATM   31  C1  UNL     1      27.604  11.576  23.502  1.00  0.00     0.007 C 
ENDBRANCH   1  30
BRANCH   6  32
HETATM   32  O6  UNL     1      23.664  10.015  22.319  1.00  0.00    -0.358 OA
BRANCH  32  33
HETATM   33  C17 UNL     1      22.792  10.785  21.589  1.00  0.00     0.224 C 
HETATM   34  C18 UNL     1      23.275  12.179  21.231  1.00  0.00     0.086 C 
HETATM   35  C19 UNL     1      22.159  12.766  20.382  1.00  0.00     0.194 C 
HETATM   36  C20 UNL     1      21.113  13.213  21.427  1.00  0.00     0.105 C 
HETATM   37  C21 UNL     1      20.722  11.907  22.076  1.00  0.00     0.092 C 
HETATM   38  N5  UNL     1      19.431  11.807  22.687  1.00  0.00    -0.088 NA
HETATM   39  N6  UNL     1      21.468  10.904  22.120  1.00  0.00    -0.355 N 
ATOM     40  H6  UNL     1      21.090  10.078  22.586  1.00  0.00     0.163 HD
BRANCH  35  41
HETATM   41  N4  UNL     1      22.509  13.842  19.533  1.00  0.00    -0.074 N 
ATOM     42  H43 UNL     1      23.033  14.540  20.063  1.00  0.00     0.274 HD
ATOM     43  H42 UNL     1      23.223  13.538  18.871  1.00  0.00     0.274 HD
ATOM     44  H41 UNL     1      21.745  14.294  19.031  1.00  0.00     0.274 HD
ENDBRANCH  35  41
ENDBRANCH  32  33
ENDBRANCH   6  32
TORSDOF 12
ENDMDL
MODEL 5
REMARK VINA RESULT: -7.937486056      3.423      5.426
REMARK  12 active torsions:
REMARK  status: ('A' for Active; 'I' for Inactive)
REMARK    1  A    between atoms: C2_2  and  C3_3 
REMARK    2  A    between atoms: C4_5  and  O2_7 
REMARK    3  A    between atoms: O2_7  and  C6_8 
REMARK    4  A    between atoms: C7_10  and  C8_11 
REMARK    5  A    between atoms: C8_11  and  N1_12 
REMARK    6  A    between atoms: C9_16  and  O4_17 
REMARK    7  A    between atoms: C11_20  and  N2_21 
REMARK    8  A    between atoms: C12_25  and  C13_26 
REMARK    9  A    between atoms: C13_26  and  N3_27 
REMARK       I    between atoms: N3_27  and  C14_28 
REMARK   10  A    between atoms: C16_31  and  O6_32 
REMARK   11  A    between atoms: O6_32  and  C17_33 
REMARK   12  A    between atoms: C19_35  and  N4_36 
ROOT
HETATM    1  C3  UNL     1      25.518  10.955  24.086  1.00  0.00     0.154 C 
HETATM    2  O1  UNL     1      25.762   9.770  24.740  1.00  0.00    -0.347 OA
HETATM    3  C4  UNL     1      24.603   9.530  25.482  1.00  0.00     0.175 C 
HETATM    4  C5  UNL     1      24.505   8.102  25.908  1.00  0.00     0.080 C 
HETATM    5  C12 UNL     1      23.537   9.863  24.489  1.00  0.00     0.132 C 
HETATM    6  C16 UNL     1      24.146  10.823  23.534  1.00  0.00     0.168 C 
ENDROOT
BRANCH   3   7
HETATM    7  O2  UNL     1      24.470  10.422  26.515  1.00  0.00    -0.323 OA
BRANCH   7   8
HETATM    8  C6  UNL     1      23.388  10.589  27.253  1.00  0.00     0.294 C 
HETATM    9  O3  UNL     1      23.307   9.765  28.369  1.00  0.00    -0.350 OA
HETATM   10  C7  UNL     1      24.269  10.046  29.287  1.00  0.00     0.178 C 
HETATM   11  C9  UNL     1      24.790  11.402  29.345  1.00  0.00     0.151 C 
HETATM   12  C10 UNL     1      24.111  12.516  28.623  1.00  0.00     0.072 C 
HETATM   13  C11 UNL     1      23.006  12.002  27.721  1.00  0.00     0.240 C 
BRANCH  10  14
HETATM   14  C8  UNL     1      25.398   9.005  29.250  1.00  0.00     0.264 C 
BRANCH  14  15
HETATM   15  N1  UNL     1      25.962   8.926  30.568  1.00  0.00    -0.077 N 
ATOM     16  H13 UNL     1      26.742   9.569  30.705  1.00  0.00     0.274 HD
ATOM     17  H12 UNL     1      25.346   9.308  31.286  1.00  0.00     0.274 HD
ATOM     18  H11 UNL     1      26.215   7.953  30.739  1.00  0.00     0.274 HD
ENDBRANCH  14  15
ENDBRANCH  10  14
BRANCH  11  19
HETATM   19  O4  UNL     1      26.145  11.371  28.882  1.00  0.00    -0.393 OA
ATOM     20  H4  UNL     1      26.713  11.394  29.644  1.00  0.00     0.210 HD
ENDBRANCH  11  19
BRANCH  13  21
HETATM   21  N2  UNL     1      21.830  11.854  28.606  1.00  0.00    -0.070 N 
ATOM     22  H23 UNL     1      21.620  12.698  29.140  1.00  0.00     0.274 HD
ATOM     23  H22 UNL     1      20.948  11.802  28.097  1.00  0.00     0.274 HD
ATOM     24  H21 UNL     1      22.004  11.039  29.193  1.00  0.00     0.274 HD
ENDBRANCH  13  21
ENDBRANCH   7   8
ENDBRANCH   3   7
BRANCH   5  25
HETATM   25  C13 UNL     1      22.855   8.670  23.906  1.00  0.00     0.171 C 
BRANCH  25  26
HETATM   26  N3  UNL     1      21.819   8.728  23.085  1.00  0.00    -0.387 NA
HETATM   27  C14 UNL     1      20.730   8.789  22.220  1.00  0.00     0.286 C 
HETATM   28  C15 UNL     1      20.610   7.771  21.089  1.00  0.00     0.135 C 
HETATM   29  O5  UNL     1      19.754   9.589  22.186  1.00  0.00    -0.258 OA
ENDBRANCH  25  26
ENDBRANCH   5  25
BRANCH   1  30
HETATM   30  C2  UNL     1      26.628  11.361  23.195  1.00  0.00     0.030 C 
HETATM   31  C1  UNL     1      28.016  11.085  23.633  1.00  0.00     0.007 C 
ENDBRANCH   1  30
BRANCH   6  32
HETATM   32  O6  UNL     1      23.960  10.617  22.218  1.00  0.00    -0.358 OA
BRANCH  32  33
HETATM   33  C17 UNL     1      23.352  11.619  21.502  1.00  0.00     0.224 C 
HETATM   34  C18 UNL     1      22.529  12.607  22.309  1.00  0.00     0.086 C 
HETATM   35  C19 UNL     1      22.041  13.624  21.289  1.00  0.00     0.194 C 
HETATM   36  C20 UNL     1      20.844  12.912  20.621  1.00  0.00     0.105 C 
HETATM   37  C21 UNL     1      21.495  11.712  19.977  1.00  0.00     0.092 C 
HETATM   38  N5  UNL     1      20.860  11.116  18.841  1.00  0.00    -0.088 NA
HETATM   39  N6  UNL     1      22.560  11.199  20.386  1.00  0.00    -0.355 N 
ATOM     40  H6  UNL     1      22.902  10.390  19.866  1.00  0.00     0.163 HD
BRANCH  35  41
HETATM   41  N4  UNL     1      21.655  14.888  21.792  1.00  0.00    -0.074 N 
ATOM     42  H43 UNL     1      21.753  14.898  22.807  1.00  0.00     0.274 HD
ATOM     43  H42 UNL     1      22.349  15.588  21.531  1.00  0.00     0.274 HD
ATOM     44  H41 UNL     1      20.723  15.216  21.533  1.00  0.00     0.274 HD
ENDBRANCH  35  41
ENDBRANCH  32  33
ENDBRANCH   6  32
TORSDOF 12
ENDMDL
