MODEL 1
REMARK VINA RESULT: -8.977657926      0.000      0.000
REMARK  11 active torsions:
REMARK  status: ('A' for Active; 'I' for Inactive)
REMARK    1  A    between atoms: C1_2  and  C2_3 
REMARK       I    between atoms: C1_2  and  N5_27 
REMARK    2  A    between atoms: C2_3  and  N1_4 
REMARK    3  A    between atoms: N2_8  and  C6_9 
REMARK    4  A    between atoms: C6_9  and  C7_10 
REMARK    5  A    between atoms: C7_10  and  O2_11 
REMARK    6  A    between atoms: N3_13  and  O3_15 
REMARK    7  A    between atoms: N5_27  and  C14_29 
REMARK    8  A    between atoms: C14_29  and  C15_30 
REMARK    9  A    between atoms: C14_29  and  C16_37 
REMARK   10  A    between atoms: C15_30  and  O5_31 
REMARK   11  A    between atoms: N6_33  and  O6_35 
ROOT
HETATM    1  N1  UNL     1      23.770   9.948  24.516  1.00  0.00    -0.383 N 
HETATM    2  C3  UNL     1      23.420   8.861  23.674  1.00  0.00     0.127 C 
HETATM    3  C4  UNL     1      23.571   9.339  22.246  1.00  0.00     0.064 C 
HETATM    4  C5  UNL     1      22.866   8.481  21.234  1.00  0.00     0.060 C 
HETATM    5  N2  UNL     1      21.490   8.621  21.105  1.00  0.00    -0.384 N 
HETATM    6  C8  UNL     1      20.773   9.668  21.683  1.00  0.00     0.150 C 
HETATM    7  C9  UNL     1      20.825  10.956  20.846  1.00  0.00     0.252 C 
HETATM    8  N4  UNL     1      20.939  12.137  21.669  1.00  0.00    -0.072 N 
ATOM      9  H41 UNL     1      20.930  12.975  21.088  1.00  0.00     0.277 HD
ATOM     10  H42 UNL     1      21.878  12.205  22.061  1.00  0.00     0.277 HD
HETATM   11  C10 UNL     1      19.962  12.239  22.701  1.00  0.00     0.258 C 
HETATM   12  C11 UNL     1      20.530  12.801  23.987  1.00  0.00     0.195 C 
HETATM   13  O4  UNL     1      20.916  11.833  24.894  1.00  0.00    -0.388 OA
HETATM   14  C12 UNL     1      22.299  11.774  24.903  1.00  0.00     0.187 C 
HETATM   15  C13 UNL     1      22.803  10.425  25.429  1.00  0.00     0.148 C 
ENDROOT
BRANCH   1  16
HETATM   16  C2  UNL     1      25.133  10.168  24.790  1.00  0.00     0.160 C 
BRANCH  16  17
HETATM   17  C1  UNL     1      25.571   9.776  26.148  1.00  0.00     0.257 C 
HETATM   18  O1  UNL     1      25.744   8.607  26.543  1.00  0.00    -0.267 OA
HETATM   19  N5  UNL     1      25.813  10.838  27.072  1.00  0.00    -0.344 N 
ATOM     20  H5  UNL     1      25.679  11.803  26.769  1.00  0.00     0.163 HD
BRANCH  19  21
HETATM   21  C14 UNL     1      26.248  10.572  28.441  1.00  0.00     0.167 C 
BRANCH  21  22
HETATM   22  C15 UNL     1      27.393  11.481  28.703  1.00  0.00     0.159 C 
HETATM   23  N6  UNL     1      27.461  12.164  29.771  1.00  0.00    -0.249 N 
ATOM     24  H6  UNL     1      26.704  12.067  30.448  1.00  0.00     0.196 HD
BRANCH  22  25
HETATM   25  O5  UNL     1      28.379  11.565  27.758  1.00  0.00    -0.347 OA
ATOM     26  H5  UNL     1      29.060  12.218  27.877  1.00  0.00     0.219 HD
ENDBRANCH  22  25
BRANCH  23  27
HETATM   27  O6  UNL     1      28.486  13.024  30.078  1.00  0.00    -0.288 OA
ATOM     28  H6  UNL     1      28.801  13.191  30.958  1.00  0.00     0.244 HD
ENDBRANCH  23  27
ENDBRANCH  21  22
BRANCH  21  29
HETATM   29  C16 UNL     1      25.110  11.002  29.336  1.00  0.00     0.043 C 
HETATM   30  C17 UNL     1      24.130   9.874  29.586  1.00  0.00     0.036 C 
HETATM   31  C18 UNL     1      22.912  10.658  30.042  1.00  0.00     0.232 C 
HETATM   32  N7  UNL     1      23.055  11.996  29.526  1.00  0.00    -0.075 N 
HETATM   33  C19 UNL     1      24.229  12.037  28.688  1.00  0.00     0.239 C 
ATOM     34  H72 UNL     1      22.217  12.322  29.045  1.00  0.00     0.277 HD
ATOM     35  H71 UNL     1      23.074  12.700  30.264  1.00  0.00     0.277 HD
ENDBRANCH  21  29
ENDBRANCH  19  21
ENDBRANCH  16  17
ENDBRANCH   1  16
BRANCH   5  36
HETATM   36  C6  UNL     1      20.805   7.390  20.892  1.00  0.00     0.207 C 
BRANCH  36  37
HETATM   37  C7  UNL     1      21.186   6.308  21.831  1.00  0.00     0.153 C 
HETATM   38  N3  UNL     1      22.159   5.515  21.543  1.00  0.00    -0.250 N 
ATOM     39  H3  UNL     1      22.673   5.628  20.669  1.00  0.00     0.196 HD
BRANCH  37  40
HETATM   40  O2  UNL     1      20.450   6.195  23.011  1.00  0.00    -0.347 OA
ATOM     41  H2  UNL     1      20.810   5.645  23.697  1.00  0.00     0.219 HD
ENDBRANCH  37  40
BRANCH  38  42
HETATM   42  O3  UNL     1      22.496   4.531  22.412  1.00  0.00    -0.288 OA
ATOM     43  H3  UNL     1      22.184   3.647  22.260  1.00  0.00     0.244 HD
ENDBRANCH  38  42
ENDBRANCH  36  37
ENDBRANCH   5  36
TORSDOF 11
ENDMDL
MODEL 2
REMARK VINA RESULT: -8.792719363      0.928      1.147
REMARK  11 active torsions:
REMARK  status: ('A' for Active; 'I' for Inactive)
REMARK    1  A    between atoms: C1_2  and  C2_3 
REMARK       I    between atoms: C1_2  and  N5_27 
REMARK    2  A    between atoms: C2_3  and  N1_4 
REMARK    3  A    between atoms: N2_8  and  C6_9 
REMARK    4  A    between atoms: C6_9  and  C7_10 
REMARK    5  A    between atoms: C7_10  and  O2_11 
REMARK    6  A    between atoms: N3_13  and  O3_15 
REMARK    7  A    between atoms: N5_27  and  C14_29 
REMARK    8  A    between atoms: C14_29  and  C15_30 
REMARK    9  A    between atoms: C14_29  and  C16_37 
REMARK   10  A    between atoms: C15_30  and  O5_31 
REMARK   11  A    between atoms: N6_33  and  O6_35 
ROOT
HETATM    1  N1  UNL     1      23.935  10.137  24.551  1.00  0.00    -0.383 N 
HETATM    2  C3  UNL     1      23.591   8.916  23.915  1.00  0.00     0.127 C 
HETATM    3  C4  UNL     1      23.928   9.069  22.448  1.00  0.00     0.064 C 
HETATM    4  C5  UNL     1      23.268   8.054  21.558  1.00  0.00     0.060 C 
HETATM    5  N2  UNL     1      21.928   8.237  21.240  1.00  0.00    -0.384 N 
HETATM    6  C8  UNL     1      21.238   9.421  21.501  1.00  0.00     0.150 C 
HETATM    7  C9  UNL     1      21.477  10.495  20.428  1.00  0.00     0.252 C 
HETATM    8  N4  UNL     1      21.596  11.817  20.998  1.00  0.00    -0.072 N 
ATOM      9  H41 UNL     1      21.713  12.511  20.260  1.00  0.00     0.277 HD
ATOM     10  H42 UNL     1      22.491  11.916  21.477  1.00  0.00     0.277 HD
HETATM   11  C10 UNL     1      20.527  12.189  21.863  1.00  0.00     0.258 C 
HETATM   12  C11 UNL     1      20.999  12.981  23.064  1.00  0.00     0.195 C 
HETATM   13  O4  UNL     1      21.211  12.210  24.190  1.00  0.00    -0.388 OA
HETATM   14  C12 UNL     1      22.577  12.080  24.376  1.00  0.00     0.187 C 
HETATM   15  C13 UNL     1      22.917  10.849  25.224  1.00  0.00     0.148 C 
ENDROOT
BRANCH   1  16
HETATM   16  C2  UNL     1      25.274  10.337  24.934  1.00  0.00     0.160 C 
BRANCH  16  17
HETATM   17  C1  UNL     1      25.592   9.954  26.328  1.00  0.00     0.257 C 
HETATM   18  O1  UNL     1      25.705   8.787  26.749  1.00  0.00    -0.267 OA
HETATM   19  N5  UNL     1      25.782  11.024  27.255  1.00  0.00    -0.344 N 
ATOM     20  H5  UNL     1      25.695  11.987  26.931  1.00  0.00     0.163 HD
BRANCH  19  21
HETATM   21  C14 UNL     1      26.099  10.767  28.658  1.00  0.00     0.167 C 
BRANCH  21  22
HETATM   22  C15 UNL     1      27.162  11.735  29.033  1.00  0.00     0.159 C 
HETATM   23  N6  UNL     1      28.391  11.458  28.876  1.00  0.00    -0.249 N 
ATOM     24  H6  UNL     1      28.627  10.548  28.481  1.00  0.00     0.196 HD
BRANCH  22  25
HETATM   25  O5  UNL     1      26.780  12.941  29.556  1.00  0.00    -0.347 OA
ATOM     26  H5  UNL     1      26.656  13.669  28.959  1.00  0.00     0.219 HD
ENDBRANCH  22  25
BRANCH  23  27
HETATM   27  O6  UNL     1      29.423  12.302  29.202  1.00  0.00    -0.288 OA
ATOM     28  H6  UNL     1      29.475  12.798  30.010  1.00  0.00     0.244 HD
ENDBRANCH  23  27
ENDBRANCH  21  22
BRANCH  21  29
HETATM   29  C16 UNL     1      24.859  11.124  29.442  1.00  0.00     0.043 C 
HETATM   30  C17 UNL     1      24.011   9.905  29.745  1.00  0.00     0.036 C 
HETATM   31  C18 UNL     1      22.678  10.563  30.054  1.00  0.00     0.232 C 
HETATM   32  N7  UNL     1      22.689  11.856  29.420  1.00  0.00    -0.075 N 
HETATM   33  C19 UNL     1      23.902  11.975  28.649  1.00  0.00     0.239 C 
ATOM     34  H72 UNL     1      21.852  12.028  28.864  1.00  0.00     0.277 HD
ATOM     35  H71 UNL     1      22.571  12.620  30.086  1.00  0.00     0.277 HD
ENDBRANCH  21  29
ENDBRANCH  19  21
ENDBRANCH  16  17
ENDBRANCH   1  16
BRANCH   5  36
HETATM   36  C6  UNL     1      21.176   7.028  21.205  1.00  0.00     0.207 C 
BRANCH  36  37
HETATM   37  C7  UNL     1      21.248   6.226  22.451  1.00  0.00     0.153 C 
HETATM   38  N3  UNL     1      20.674   6.645  23.524  1.00  0.00    -0.250 N 
ATOM     39  H3  UNL     1      20.167   7.530  23.523  1.00  0.00     0.196 HD
BRANCH  37  40
HETATM   40  O2  UNL     1      21.956   5.025  22.398  1.00  0.00    -0.347 OA
ATOM     41  H2  UNL     1      22.893   5.078  22.248  1.00  0.00     0.219 HD
ENDBRANCH  37  40
BRANCH  38  42
HETATM   42  O3  UNL     1      20.749   5.902  24.654  1.00  0.00    -0.288 OA
ATOM     43  H3  UNL     1      21.089   6.294  25.450  1.00  0.00     0.244 HD
ENDBRANCH  38  42
ENDBRANCH  36  37
ENDBRANCH   5  36
TORSDOF 11
ENDMDL
MODEL 3
REMARK VINA RESULT: -8.789718858      2.191      8.415
REMARK  11 active torsions:
REMARK  status: ('A' for Active; 'I' for Inactive)
REMARK    1  A    between atoms: C1_2  and  C2_3 
REMARK       I    between atoms: C1_2  and  N5_27 
REMARK    2  A    between atoms: C2_3  and  N1_4 
REMARK    3  A    between atoms: N2_8  and  C6_9 
REMARK    4  A    between atoms: C6_9  and  C7_10 
REMARK    5  A    between atoms: C7_10  and  O2_11 
REMARK    6  A    between atoms: N3_13  and  O3_15 
REMARK    7  A    between atoms: N5_27  and  C14_29 
REMARK    8  A    between atoms: C14_29  and  C15_30 
REMARK    9  A    between atoms: C14_29  and  C16_37 
REMARK   10  A    between atoms: C15_30  and  O5_31 
REMARK   11  A    between atoms: N6_33  and  O6_35 
ROOT
HETATM    1  N1  UNL     1      24.765   9.984  24.440  1.00  0.00    -0.383 N 
HETATM    2  C3  UNL     1      25.782   9.899  25.426  1.00  0.00     0.127 C 
HETATM    3  C4  UNL     1      25.258   9.003  26.528  1.00  0.00     0.064 C 
HETATM    4  C5  UNL     1      26.011   9.121  27.823  1.00  0.00     0.060 C 
HETATM    5  N2  UNL     1      25.751  10.220  28.632  1.00  0.00    -0.384 N 
HETATM    6  C8  UNL     1      24.673  11.079  28.425  1.00  0.00     0.150 C 
HETATM    7  C9  UNL     1      23.359  10.536  29.010  1.00  0.00     0.252 C 
HETATM    8  N4  UNL     1      22.228  10.808  28.155  1.00  0.00    -0.072 N 
ATOM      9  H41 UNL     1      21.368  10.472  28.588  1.00  0.00     0.277 HD
ATOM     10  H42 UNL     1      22.256  10.209  27.331  1.00  0.00     0.277 HD
HETATM   11  C10 UNL     1      22.088  12.173  27.771  1.00  0.00     0.258 C 
HETATM   12  C11 UNL     1      21.631  12.330  26.335  1.00  0.00     0.195 C 
HETATM   13  O4  UNL     1      22.666  12.521  25.440  1.00  0.00    -0.388 OA
HETATM   14  C12 UNL     1      22.840  11.349  24.724  1.00  0.00     0.187 C 
HETATM   15  C13 UNL     1      24.248  11.260  24.123  1.00  0.00     0.148 C 
ENDROOT
BRANCH   1  16
HETATM   16  C2  UNL     1      24.672   8.954  23.486  1.00  0.00     0.160 C 
BRANCH  16  17
HETATM   17  C1  UNL     1      24.223   9.382  22.142  1.00  0.00     0.257 C 
HETATM   18  O1  UNL     1      24.950   9.882  21.262  1.00  0.00    -0.267 OA
HETATM   19  N5  UNL     1      22.838   9.199  21.844  1.00  0.00    -0.344 N 
ATOM     20  H5  UNL     1      22.225   8.790  22.550  1.00  0.00     0.163 HD
BRANCH  19  21
HETATM   21  C14 UNL     1      22.281   9.585  20.550  1.00  0.00     0.167 C 
BRANCH  21  22
HETATM   22  C15 UNL     1      21.609   8.378  20.004  1.00  0.00     0.159 C 
HETATM   23  N6  UNL     1      21.119   8.370  18.833  1.00  0.00    -0.249 N 
ATOM     24  H6  UNL     1      21.202   9.220  18.276  1.00  0.00     0.196 HD
BRANCH  22  25
HETATM   25  O5  UNL     1      21.532   7.267  20.800  1.00  0.00    -0.347 OA
ATOM     26  H5  UNL     1      21.641   6.416  20.393  1.00  0.00     0.219 HD
ENDBRANCH  22  25
BRANCH  23  27
HETATM   27  O6  UNL     1      20.484   7.294  18.266  1.00  0.00    -0.288 OA
ATOM     28  H6  UNL     1      20.912   6.645  17.721  1.00  0.00     0.244 HD
ENDBRANCH  23  27
ENDBRANCH  21  22
BRANCH  21  29
HETATM   29  C16 UNL     1      21.211  10.610  20.841  1.00  0.00     0.043 C 
HETATM   30  C17 UNL     1      21.800  11.970  21.155  1.00  0.00     0.036 C 
HETATM   31  C18 UNL     1      20.630  12.625  21.868  1.00  0.00     0.232 C 
HETATM   32  N7  UNL     1      19.795  11.563  22.370  1.00  0.00    -0.075 N 
HETATM   33  C19 UNL     1      20.451  10.305  22.105  1.00  0.00     0.239 C 
ATOM     34  H72 UNL     1      19.559  11.683  23.355  1.00  0.00     0.277 HD
ATOM     35  H71 UNL     1      18.848  11.598  21.995  1.00  0.00     0.277 HD
ENDBRANCH  21  29
ENDBRANCH  19  21
ENDBRANCH  16  17
ENDBRANCH   1  16
BRANCH   5  36
HETATM   36  C6  UNL     1      26.910  10.754  29.265  1.00  0.00     0.207 C 
BRANCH  36  37
HETATM   37  C7  UNL     1      27.004  10.459  30.716  1.00  0.00     0.153 C 
HETATM   38  N3  UNL     1      27.942  10.987  31.423  1.00  0.00    -0.250 N 
ATOM     39  H3  UNL     1      28.624  11.609  30.990  1.00  0.00     0.196 HD
BRANCH  37  40
HETATM   40  O2  UNL     1      26.048   9.600  31.258  1.00  0.00    -0.347 OA
ATOM     41  H2  UNL     1      25.524   9.931  31.978  1.00  0.00     0.219 HD
ENDBRANCH  37  40
BRANCH  38  42
HETATM   42  O3  UNL     1      28.015  10.709  32.747  1.00  0.00    -0.288 OA
ATOM     43  H3  UNL     1      28.772  10.997  33.244  1.00  0.00     0.244 HD
ENDBRANCH  38  42
ENDBRANCH  36  37
ENDBRANCH   5  36
TORSDOF 11
ENDMDL
MODEL 4
REMARK VINA RESULT: -8.785365316      2.215      3.422
REMARK  11 active torsions:
REMARK  status: ('A' for Active; 'I' for Inactive)
REMARK    1  A    between atoms: C1_2  and  C2_3 
REMARK       I    between atoms: C1_2  and  N5_27 
REMARK    2  A    between atoms: C2_3  and  N1_4 
REMARK    3  A    between atoms: N2_8  and  C6_9 
REMARK    4  A    between atoms: C6_9  and  C7_10 
REMARK    5  A    between atoms: C7_10  and  O2_11 
REMARK    6  A    between atoms: N3_13  and  O3_15 
REMARK    7  A    between atoms: N5_27  and  C14_29 
REMARK    8  A    between atoms: C14_29  and  C15_30 
REMARK    9  A    between atoms: C14_29  and  C16_37 
REMARK   10  A    between atoms: C15_30  and  O5_31 
REMARK   11  A    between atoms: N6_33  and  O6_35 
ROOT
HETATM    1  N1  UNL     1      22.133  12.216  26.411  1.00  0.00    -0.383 N 
HETATM    2  C3  UNL     1      22.252  10.830  26.132  1.00  0.00     0.127 C 
HETATM    3  C4  UNL     1      23.366  10.676  25.119  1.00  0.00     0.064 C 
HETATM    4  C5  UNL     1      23.368   9.353  24.406  1.00  0.00     0.060 C 
HETATM    5  N2  UNL     1      22.448   9.163  23.382  1.00  0.00    -0.384 N 
HETATM    6  C8  UNL     1      21.700  10.201  22.828  1.00  0.00     0.150 C 
HETATM    7  C9  UNL     1      22.480  10.996  21.768  1.00  0.00     0.252 C 
HETATM    8  N4  UNL     1      22.211  12.412  21.843  1.00  0.00    -0.072 N 
ATOM      9  H41 UNL     1      22.711  12.906  21.104  1.00  0.00     0.277 HD
ATOM     10  H42 UNL     1      22.665  12.816  22.662  1.00  0.00     0.277 HD
HETATM   11  C10 UNL     1      20.829  12.757  21.822  1.00  0.00     0.258 C 
HETATM   12  C11 UNL     1      20.502  13.908  22.751  1.00  0.00     0.195 C 
HETATM   13  O4  UNL     1      20.051  13.508  23.994  1.00  0.00    -0.388 OA
HETATM   14  C12 UNL     1      21.066  13.720  24.912  1.00  0.00     0.187 C 
HETATM   15  C13 UNL     1      20.893  12.844  26.157  1.00  0.00     0.148 C 
ENDROOT
BRANCH   1  16
HETATM   16  C2  UNL     1      23.002  12.784  27.360  1.00  0.00     0.160 C 
BRANCH  16  17
HETATM   17  C1  UNL     1      23.366  11.897  28.488  1.00  0.00     0.257 C 
HETATM   18  O1  UNL     1      22.606  11.555  29.414  1.00  0.00    -0.267 OA
HETATM   19  N5  UNL     1      24.705  11.400  28.501  1.00  0.00    -0.344 N 
ATOM     20  H5  UNL     1      25.344  11.666  27.752  1.00  0.00     0.163 HD
BRANCH  19  21
HETATM   21  C14 UNL     1      25.178  10.517  29.565  1.00  0.00     0.167 C 
BRANCH  21  22
HETATM   22  C15 UNL     1      24.909   9.128  29.110  1.00  0.00     0.159 C 
HETATM   23  N6  UNL     1      24.672   8.869  27.890  1.00  0.00    -0.249 N 
ATOM     24  H6  UNL     1      24.674   9.646  27.228  1.00  0.00     0.196 HD
BRANCH  22  25
HETATM   25  O5  UNL     1      24.923   8.129  30.045  1.00  0.00    -0.347 OA
ATOM     26  H5  UNL     1      24.100   7.887  30.454  1.00  0.00     0.219 HD
ENDBRANCH  22  25
BRANCH  23  27
HETATM   27  O6  UNL     1      24.414   7.614  27.400  1.00  0.00    -0.288 OA
ATOM     28  H6  UNL     1      24.794   7.259  26.606  1.00  0.00     0.244 HD
ENDBRANCH  23  27
ENDBRANCH  21  22
BRANCH  21  29
HETATM   29  C16 UNL     1      26.676  10.695  29.625  1.00  0.00     0.043 C 
HETATM   30  C17 UNL     1      27.212  10.512  31.030  1.00  0.00     0.036 C 
HETATM   31  C18 UNL     1      28.556  11.208  30.910  1.00  0.00     0.232 C 
HETATM   32  N7  UNL     1      28.459  12.122  29.801  1.00  0.00    -0.075 N 
HETATM   33  C19 UNL     1      27.100  12.106  29.316  1.00  0.00     0.239 C 
ATOM     34  H72 UNL     1      28.780  13.061  30.038  1.00  0.00     0.277 HD
ATOM     35  H71 UNL     1      29.140  11.924  29.068  1.00  0.00     0.277 HD
ENDBRANCH  21  29
ENDBRANCH  19  21
ENDBRANCH  16  17
ENDBRANCH   1  16
BRANCH   5  36
HETATM   36  C6  UNL     1      21.889   7.853  23.348  1.00  0.00     0.207 C 
BRANCH  36  37
HETATM   37  C7  UNL     1      22.636   6.891  22.502  1.00  0.00     0.153 C 
HETATM   38  N3  UNL     1      22.476   5.624  22.669  1.00  0.00    -0.250 N 
ATOM     39  H3  UNL     1      21.836   5.277  23.383  1.00  0.00     0.196 HD
BRANCH  37  40
HETATM   40  O2  UNL     1      23.500   7.418  21.542  1.00  0.00    -0.347 OA
ATOM     41  H2  UNL     1      23.174   8.136  21.011  1.00  0.00     0.219 HD
ENDBRANCH  37  40
BRANCH  38  42
HETATM   42  O3  UNL     1      23.165   4.757  21.888  1.00  0.00    -0.288 OA
ATOM     43  H3  UNL     1      23.808   5.091  21.273  1.00  0.00     0.244 HD
ENDBRANCH  38  42
ENDBRANCH  36  37
ENDBRANCH   5  36
TORSDOF 11
ENDMDL
MODEL 5
REMARK VINA RESULT: -8.776756314      2.275      3.534
REMARK  11 active torsions:
REMARK  status: ('A' for Active; 'I' for Inactive)
REMARK    1  A    between atoms: C1_2  and  C2_3 
REMARK       I    between atoms: C1_2  and  N5_27 
REMARK    2  A    between atoms: C2_3  and  N1_4 
REMARK    3  A    between atoms: N2_8  and  C6_9 
REMARK    4  A    between atoms: C6_9  and  C7_10 
REMARK    5  A    between atoms: C7_10  and  O2_11 
REMARK    6  A    between atoms: N3_13  and  O3_15 
REMARK    7  A    between atoms: N5_27  and  C14_29 
REMARK    8  A    between atoms: C14_29  and  C15_30 
REMARK    9  A    between atoms: C14_29  and  C16_37 
REMARK   10  A    between atoms: C15_30  and  O5_31 
REMARK   11  A    between atoms: N6_33  and  O6_35 
ROOT
HETATM    1  N1  UNL     1      21.770  11.888  23.943  1.00  0.00    -0.383 N 
HETATM    2  C3  UNL     1      21.924  10.479  24.018  1.00  0.00     0.127 C 
HETATM    3  C4  UNL     1      23.270  10.147  23.412  1.00  0.00     0.064 C 
HETATM    4  C5  UNL     1      23.433   8.702  23.034  1.00  0.00     0.060 C 
HETATM    5  N2  UNL     1      22.829   8.261  21.863  1.00  0.00    -0.384 N 
HETATM    6  C8  UNL     1      22.292   9.128  20.911  1.00  0.00     0.150 C 
HETATM    7  C9  UNL     1      23.357   9.699  19.961  1.00  0.00     0.252 C 
HETATM    8  N4  UNL     1      23.118  11.088  19.647  1.00  0.00    -0.072 N 
ATOM      9  H41 UNL     1      23.816  11.427  18.985  1.00  0.00     0.277 HD
ATOM     10  H42 UNL     1      23.337  11.675  20.450  1.00  0.00     0.277 HD
HETATM   11  C10 UNL     1      21.805  11.371  19.170  1.00  0.00     0.258 C 
HETATM   12  C11 UNL     1      21.265  12.685  19.697  1.00  0.00     0.195 C 
HETATM   13  O4  UNL     1      20.476  12.549  20.823  1.00  0.00    -0.388 OA
HETATM   14  C12 UNL     1      21.202  12.991  21.916  1.00  0.00     0.187 C 
HETATM   15  C13 UNL     1      20.666  12.401  23.226  1.00  0.00     0.148 C 
ENDROOT
BRANCH   1  16
HETATM   16  C2  UNL     1      22.357  12.679  24.948  1.00  0.00     0.160 C 
BRANCH  16  17
HETATM   17  C1  UNL     1      22.198  12.163  26.325  1.00  0.00     0.257 C 
HETATM   18  O1  UNL     1      21.149  12.200  26.996  1.00  0.00    -0.267 OA
HETATM   19  N5  UNL     1      23.355  11.575  26.923  1.00  0.00    -0.344 N 
ATOM     20  H5  UNL     1      24.225  11.532  26.392  1.00  0.00     0.163 HD
BRANCH  19  21
HETATM   21  C14 UNL     1      23.318  11.032  28.279  1.00  0.00     0.167 C 
BRANCH  21  22
HETATM   22  C15 UNL     1      23.833   9.642  28.190  1.00  0.00     0.159 C 
HETATM   23  N6  UNL     1      23.903   9.035  27.077  1.00  0.00    -0.249 N 
ATOM     24  H6  UNL     1      23.596   9.535  26.242  1.00  0.00     0.196 HD
BRANCH  22  25
HETATM   25  O5  UNL     1      24.232   9.027  29.346  1.00  0.00    -0.347 OA
ATOM     26  H5  UNL     1      24.908   9.445  29.865  1.00  0.00     0.219 HD
ENDBRANCH  22  25
BRANCH  23  27
HETATM   27  O6  UNL     1      24.365   7.753  26.921  1.00  0.00    -0.288 OA
ATOM     28  H6  UNL     1      24.078   7.158  26.239  1.00  0.00     0.244 HD
ENDBRANCH  23  27
ENDBRANCH  21  22
BRANCH  21  29
HETATM   29  C16 UNL     1      24.313  11.836  29.082  1.00  0.00     0.043 C 
HETATM   30  C17 UNL     1      23.995  13.318  29.056  1.00  0.00     0.036 C 
HETATM   31  C18 UNL     1      25.337  13.899  29.465  1.00  0.00     0.232 C 
HETATM   32  N7  UNL     1      26.336  12.908  29.158  1.00  0.00    -0.075 N 
HETATM   33  C19 UNL     1      25.693  11.809  28.480  1.00  0.00     0.239 C 
ATOM     34  H72 UNL     1      27.119  13.292  28.629  1.00  0.00     0.277 HD
ATOM     35  H71 UNL     1      26.859  12.610  29.981  1.00  0.00     0.277 HD
ENDBRANCH  21  29
ENDBRANCH  19  21
ENDBRANCH  16  17
ENDBRANCH   1  16
BRANCH   5  36
HETATM   36  C6  UNL     1      22.265   6.957  21.963  1.00  0.00     0.207 C 
BRANCH  36  37
HETATM   37  C7  UNL     1      21.205   6.827  22.992  1.00  0.00     0.153 C 
HETATM   38  N3  UNL     1      21.343   5.988  23.959  1.00  0.00    -0.250 N 
ATOM     39  H3  UNL     1      22.180   5.410  24.022  1.00  0.00     0.196 HD
BRANCH  37  40
HETATM   40  O2  UNL     1      20.079   7.639  22.858  1.00  0.00    -0.347 OA
ATOM     41  H2  UNL     1      19.229   7.222  22.936  1.00  0.00     0.219 HD
ENDBRANCH  37  40
BRANCH  38  42
HETATM   42  O3  UNL     1      20.366   5.881  24.892  1.00  0.00    -0.288 OA
ATOM     43  H3  UNL     1      20.532   6.181  25.779  1.00  0.00     0.244 HD
ENDBRANCH  38  42
ENDBRANCH  36  37
ENDBRANCH   5  36
TORSDOF 11
ENDMDL
