MODEL 1
REMARK VINA RESULT: -9.197136759      0.000      0.000
REMARK  5 active torsions:
REMARK  status: ('A' for Active; 'I' for Inactive)
REMARK       I    between atoms: C2_2  and  N1_4 
REMARK    1  A    between atoms: N1_4  and  C3_6 
REMARK       I    between atoms: N2_9  and  C6_10 
REMARK    2  A    between atoms: C6_10  and  C7_12 
REMARK    3  A    between atoms: C7_12  and  C8_13 
REMARK    4  A    between atoms: C7_12  and  N3_16 
REMARK    5  A    between atoms: C8_13  and  O3_14 
REMARK       I    between atoms: N3_16  and  C9_18 
REMARK       I    between atoms: C9_18  and  N4_20 
ROOT
HETATM    1  N3  UNL     1      18.049 -13.602  20.180  1.00  0.00    -0.328 N 
ATOM      2  H3  UNL     1      17.463 -14.434  20.254  1.00  0.00     0.165 HD
HETATM    3  C9  UNL     1      19.315 -13.586  20.804  1.00  0.00     0.319 C 
HETATM    4  O4  UNL     1      20.030 -12.538  20.700  1.00  0.00    -0.247 OA
HETATM    5  N4  UNL     1      19.830 -14.682  21.543  1.00  0.00    -0.324 N 
HETATM    6  C10 UNL     1      21.127 -14.610  22.172  1.00  0.00     0.156 C 
HETATM    7  C11 UNL     1      21.200 -13.626  23.282  1.00  0.00     0.257 C 
HETATM    8  N5  UNL     1      20.954 -14.140  24.595  1.00  0.00    -0.064 N 
HETATM    9  C12 UNL     1      22.096 -14.880  25.039  1.00  0.00     0.237 C 
HETATM   10  C13 UNL     1      22.886 -13.957  25.943  1.00  0.00     0.029 C 
HETATM   11  C14 UNL     1      21.786 -13.153  26.592  1.00  0.00     0.029 C 
HETATM   12  C15 UNL     1      20.773 -13.021  25.499  1.00  0.00     0.237 C 
HETATM   13  C16 UNL     1      19.758 -14.955  24.710  1.00  0.00     0.257 C 
HETATM   14  C17 UNL     1      18.536 -14.182  24.346  1.00  0.00     0.150 C 
HETATM   15  N6  UNL     1      17.588 -14.853  23.514  1.00  0.00    -0.358 N 
ATOM     16  H6  UNL     1      16.608 -14.641  23.697  1.00  0.00     0.162 HD
HETATM   17  C18 UNL     1      17.831 -15.766  22.479  1.00  0.00     0.235 C 
HETATM   18  O5  UNL     1      16.904 -16.606  22.177  1.00  0.00    -0.272 OA
HETATM   19  C19 UNL     1      19.051 -15.900  21.656  1.00  0.00     0.230 C 
ENDROOT
BRANCH   1  20
HETATM   20  C7  UNL     1      17.560 -12.433  19.422  1.00  0.00     0.202 C 
BRANCH  20  21
HETATM   21  C6  UNL     1      16.172 -12.657  18.979  1.00  0.00     0.244 C 
HETATM   22  N2  UNL     1      15.117 -13.189  19.730  1.00  0.00    -0.350 N 
HETATM   23  C5  UNL     1      13.809 -13.355  19.101  1.00  0.00     0.128 C 
HETATM   24  C20 UNL     1      15.271 -13.557  21.098  1.00  0.00     0.128 C 
HETATM   25  C4  UNL     1      12.871 -12.459  19.849  1.00  0.00     0.045 C 
HETATM   26  C3  UNL     1      12.956 -12.552  21.327  1.00  0.00     0.087 C 
HETATM   27  C21 UNL     1      13.997 -13.446  21.894  1.00  0.00     0.045 C 
HETATM   28  O2  UNL     1      15.896 -12.326  17.766  1.00  0.00    -0.271 OA
BRANCH  26  29
HETATM   29  N1  UNL     1      12.990 -11.212  21.908  1.00  0.00    -0.357 N 
HETATM   30  C2  UNL     1      12.182 -10.792  22.975  1.00  0.00     0.213 C 
HETATM   31  C1  UNL     1      12.269  -9.416  23.519  1.00  0.00     0.117 C 
HETATM   32  O1  UNL     1      11.367 -11.609  23.475  1.00  0.00    -0.274 OA
ATOM     33  H1  UNL     1      13.645 -10.538  21.512  1.00  0.00     0.162 HD
ENDBRANCH  26  29
ENDBRANCH  20  21
BRANCH  20  34
HETATM   34  C8  UNL     1      17.652 -11.214  20.320  1.00  0.00     0.199 C 
BRANCH  34  35
HETATM   35  O3  UNL     1      16.613 -10.332  20.056  1.00  0.00    -0.398 OA
ATOM     36  H3  UNL     1      16.844  -9.452  20.328  1.00  0.00     0.209 HD
ENDBRANCH  34  35
ENDBRANCH  20  34
ENDBRANCH   1  20
TORSDOF 5
ENDMDL
MODEL 2
REMARK VINA RESULT: -8.873389900      2.215      7.244
REMARK  5 active torsions:
REMARK  status: ('A' for Active; 'I' for Inactive)
REMARK       I    between atoms: C2_2  and  N1_4 
REMARK    1  A    between atoms: N1_4  and  C3_6 
REMARK       I    between atoms: N2_9  and  C6_10 
REMARK    2  A    between atoms: C6_10  and  C7_12 
REMARK    3  A    between atoms: C7_12  and  C8_13 
REMARK    4  A    between atoms: C7_12  and  N3_16 
REMARK    5  A    between atoms: C8_13  and  O3_14 
REMARK       I    between atoms: N3_16  and  C9_18 
REMARK       I    between atoms: C9_18  and  N4_20 
ROOT
HETATM    1  N3  UNL     1      18.714 -13.160  20.351  1.00  0.00    -0.328 N 
ATOM      2  H3  UNL     1      18.741 -13.169  19.331  1.00  0.00     0.165 HD
HETATM    3  C9  UNL     1      17.483 -13.352  21.016  1.00  0.00     0.319 C 
HETATM    4  O4  UNL     1      17.471 -13.336  22.288  1.00  0.00    -0.247 OA
HETATM    5  N4  UNL     1      16.256 -13.560  20.333  1.00  0.00    -0.324 N 
HETATM    6  C10 UNL     1      15.023 -13.739  21.061  1.00  0.00     0.156 C 
HETATM    7  C11 UNL     1      14.585 -12.528  21.803  1.00  0.00     0.257 C 
HETATM    8  N5  UNL     1      13.673 -11.665  21.115  1.00  0.00    -0.064 N 
HETATM    9  C12 UNL     1      12.370 -12.258  21.107  1.00  0.00     0.237 C 
HETATM   10  C13 UNL     1      11.586 -11.597  22.222  1.00  0.00     0.029 C 
HETATM   11  C14 UNL     1      12.150 -10.198  22.201  1.00  0.00     0.029 C 
HETATM   12  C15 UNL     1      13.587 -10.416  21.846  1.00  0.00     0.237 C 
HETATM   13  C16 UNL     1      14.072 -11.320  19.763  1.00  0.00     0.257 C 
HETATM   14  C17 UNL     1      15.385 -10.614  19.746  1.00  0.00     0.150 C 
HETATM   15  N6  UNL     1      16.313 -11.028  18.743  1.00  0.00    -0.358 N 
ATOM     16  H6  UNL     1      16.899 -10.293  18.348  1.00  0.00     0.162 HD
HETATM   17  C18 UNL     1      16.523 -12.316  18.229  1.00  0.00     0.235 C 
HETATM   18  O5  UNL     1      17.020 -12.427  17.047  1.00  0.00    -0.272 OA
HETATM   19  C19 UNL     1      16.242 -13.610  18.885  1.00  0.00     0.230 C 
ENDROOT
BRANCH   1  20
HETATM   20  C7  UNL     1      19.962 -12.948  21.109  1.00  0.00     0.202 C 
BRANCH  20  21
HETATM   21  C6  UNL     1      20.536 -14.242  21.520  1.00  0.00     0.244 C 
HETATM   22  N2  UNL     1      20.600 -14.768  22.816  1.00  0.00    -0.350 N 
HETATM   23  C5  UNL     1      21.234 -16.067  23.025  1.00  0.00     0.128 C 
HETATM   24  C20 UNL     1      20.051 -14.086  23.939  1.00  0.00     0.128 C 
HETATM   25  C4  UNL     1      20.159 -16.975  23.539  1.00  0.00     0.045 C 
HETATM   26  C3  UNL     1      19.332 -16.414  24.634  1.00  0.00     0.087 C 
HETATM   27  C21 UNL     1      19.601 -15.010  25.039  1.00  0.00     0.045 C 
HETATM   28  O2  UNL     1      21.032 -14.973  20.584  1.00  0.00    -0.271 OA
BRANCH  26  29
HETATM   29  N1  UNL     1      17.918 -16.659  24.365  1.00  0.00    -0.357 N 
HETATM   30  C2  UNL     1      17.270 -17.882  24.593  1.00  0.00     0.213 C 
HETATM   31  C1  UNL     1      15.828 -18.062  24.298  1.00  0.00     0.117 C 
HETATM   32  O1  UNL     1      17.935 -18.842  25.058  1.00  0.00    -0.274 OA
ATOM     33  H1  UNL     1      17.365 -15.890  23.985  1.00  0.00     0.162 HD
ENDBRANCH  26  29
ENDBRANCH  20  21
BRANCH  20  34
HETATM   34  C8  UNL     1      20.929 -12.182  20.225  1.00  0.00     0.199 C 
BRANCH  34  35
HETATM   35  O3  UNL     1      20.754 -12.531  18.893  1.00  0.00    -0.398 OA
ATOM     36  H3  UNL     1      21.543 -12.930  18.545  1.00  0.00     0.209 HD
ENDBRANCH  34  35
ENDBRANCH  20  34
ENDBRANCH   1  20
TORSDOF 5
ENDMDL
MODEL 3
REMARK VINA RESULT: -8.638362729      2.390      4.256
REMARK  5 active torsions:
REMARK  status: ('A' for Active; 'I' for Inactive)
REMARK       I    between atoms: C2_2  and  N1_4 
REMARK    1  A    between atoms: N1_4  and  C3_6 
REMARK       I    between atoms: N2_9  and  C6_10 
REMARK    2  A    between atoms: C6_10  and  C7_12 
REMARK    3  A    between atoms: C7_12  and  C8_13 
REMARK    4  A    between atoms: C7_12  and  N3_16 
REMARK    5  A    between atoms: C8_13  and  O3_14 
REMARK       I    between atoms: N3_16  and  C9_18 
REMARK       I    between atoms: C9_18  and  N4_20 
ROOT
HETATM    1  N3  UNL     1      16.145 -15.544  21.898  1.00  0.00    -0.328 N 
ATOM      2  H3  UNL     1      16.043 -16.538  22.104  1.00  0.00     0.165 HD
HETATM    3  C9  UNL     1      17.419 -14.942  21.989  1.00  0.00     0.319 C 
HETATM    4  O4  UNL     1      17.525 -13.701  21.728  1.00  0.00    -0.247 OA
HETATM    5  N4  UNL     1      18.589 -15.654  22.359  1.00  0.00    -0.324 N 
HETATM    6  C10 UNL     1      19.866 -14.988  22.449  1.00  0.00     0.156 C 
HETATM    7  C11 UNL     1      19.942 -13.985  23.542  1.00  0.00     0.257 C 
HETATM    8  N5  UNL     1      20.466 -14.453  24.789  1.00  0.00    -0.064 N 
HETATM    9  C12 UNL     1      21.887 -14.598  24.685  1.00  0.00     0.237 C 
HETATM   10  C13 UNL     1      22.497 -13.361  25.309  1.00  0.00     0.029 C 
HETATM   11  C14 UNL     1      21.508 -13.056  26.407  1.00  0.00     0.029 C 
HETATM   12  C15 UNL     1      20.198 -13.452  25.804  1.00  0.00     0.237 C 
HETATM   13  C16 UNL     1      19.873 -15.688  25.268  1.00  0.00     0.257 C 
HETATM   14  C17 UNL     1      18.404 -15.540  25.479  1.00  0.00     0.150 C 
HETATM   15  N6  UNL     1      17.587 -16.613  25.008  1.00  0.00    -0.358 N 
ATOM     16  H6  UNL     1      16.765 -16.825  25.572  1.00  0.00     0.162 HD
HETATM   17  C18 UNL     1      17.769 -17.412  23.870  1.00  0.00     0.235 C 
HETATM   18  O5  UNL     1      17.245 -18.587  23.861  1.00  0.00    -0.272 OA
HETATM   19  C19 UNL     1      18.506 -17.075  22.635  1.00  0.00     0.230 C 
ENDROOT
BRANCH   1  20
HETATM   20  C7  UNL     1      14.958 -14.757  21.508  1.00  0.00     0.202 C 
BRANCH  20  21
HETATM   21  C6  UNL     1      14.975 -14.495  20.058  1.00  0.00     0.244 C 
HETATM   22  N2  UNL     1      15.149 -13.261  19.421  1.00  0.00    -0.350 N 
HETATM   23  C5  UNL     1      15.110 -13.201  17.962  1.00  0.00     0.128 C 
HETATM   24  C20 UNL     1      15.382 -12.059  20.149  1.00  0.00     0.128 C 
HETATM   25  C4  UNL     1      16.469 -12.746  17.529  1.00  0.00     0.045 C 
HETATM   26  C3  UNL     1      17.005 -11.575  18.264  1.00  0.00     0.087 C 
HETATM   27  C21 UNL     1      16.187 -11.042  19.384  1.00  0.00     0.045 C 
HETATM   28  O2  UNL     1      14.812 -15.514  19.288  1.00  0.00    -0.271 OA
BRANCH  26  29
HETATM   29  N1  UNL     1      18.392 -11.823  18.652  1.00  0.00    -0.357 N 
HETATM   30  C2  UNL     1      19.477 -11.799  17.765  1.00  0.00     0.213 C 
HETATM   31  C1  UNL     1      20.862 -12.058  18.226  1.00  0.00     0.117 C 
HETATM   32  O1  UNL     1      19.261 -11.551  16.551  1.00  0.00    -0.274 OA
ATOM     33  H1  UNL     1      18.582 -12.028  19.633  1.00  0.00     0.162 HD
ENDBRANCH  26  29
ENDBRANCH  20  21
BRANCH  20  34
HETATM   34  C8  UNL     1      13.720 -15.540  21.903  1.00  0.00     0.199 C 
BRANCH  34  35
HETATM   35  O3  UNL     1      12.584 -14.973  21.345  1.00  0.00    -0.398 OA
ATOM     36  H3  UNL     1      12.131 -14.434  21.983  1.00  0.00     0.209 HD
ENDBRANCH  34  35
ENDBRANCH  20  34
ENDBRANCH   1  20
TORSDOF 5
ENDMDL
MODEL 4
REMARK VINA RESULT: -8.537730698      2.414      4.181
REMARK  5 active torsions:
REMARK  status: ('A' for Active; 'I' for Inactive)
REMARK       I    between atoms: C2_2  and  N1_4 
REMARK    1  A    between atoms: N1_4  and  C3_6 
REMARK       I    between atoms: N2_9  and  C6_10 
REMARK    2  A    between atoms: C6_10  and  C7_12 
REMARK    3  A    between atoms: C7_12  and  C8_13 
REMARK    4  A    between atoms: C7_12  and  N3_16 
REMARK    5  A    between atoms: C8_13  and  O3_14 
REMARK       I    between atoms: N3_16  and  C9_18 
REMARK       I    between atoms: C9_18  and  N4_20 
ROOT
HETATM    1  N3  UNL     1      20.045 -13.223  21.513  1.00  0.00    -0.328 N 
ATOM      2  H3  UNL     1      20.980 -12.882  21.739  1.00  0.00     0.165 HD
HETATM    3  C9  UNL     1      19.283 -13.873  22.509  1.00  0.00     0.319 C 
HETATM    4  O4  UNL     1      18.120 -14.292  22.207  1.00  0.00    -0.247 OA
HETATM    5  N4  UNL     1      19.752 -14.084  23.831  1.00  0.00    -0.324 N 
HETATM    6  C10 UNL     1      18.937 -14.765  24.808  1.00  0.00     0.156 C 
HETATM    7  C11 UNL     1      18.701 -16.198  24.496  1.00  0.00     0.257 C 
HETATM    8  N5  UNL     1      19.614 -17.128  25.089  1.00  0.00    -0.064 N 
HETATM    9  C12 UNL     1      19.308 -17.274  26.480  1.00  0.00     0.237 C 
HETATM   10  C13 UNL     1      18.494 -18.544  26.615  1.00  0.00     0.029 C 
HETATM   11  C14 UNL     1      19.096 -19.406  25.532  1.00  0.00     0.029 C 
HETATM   12  C15 UNL     1      19.426 -18.420  24.457  1.00  0.00     0.237 C 
HETATM   13  C16 UNL     1      21.015 -16.791  24.920  1.00  0.00     0.257 C 
HETATM   14  C17 UNL     1      21.389 -16.725  23.478  1.00  0.00     0.150 C 
HETATM   15  N6  UNL     1      22.206 -15.621  23.086  1.00  0.00    -0.358 N 
ATOM     16  H6  UNL     1      22.892 -15.813  22.357  1.00  0.00     0.162 HD
HETATM   17  C18 UNL     1      22.187 -14.307  23.575  1.00  0.00     0.235 C 
HETATM   18  O5  UNL     1      23.260 -13.604  23.473  1.00  0.00    -0.272 OA
HETATM   19  C19 UNL     1      21.062 -13.594  24.213  1.00  0.00     0.230 C 
ENDROOT
BRANCH   1  20
HETATM   20  C7  UNL     1      19.509 -13.029  20.151  1.00  0.00     0.202 C 
BRANCH  20  21
HETATM   21  C6  UNL     1      18.430 -12.026  20.166  1.00  0.00     0.244 C 
HETATM   22  N2  UNL     1      17.280 -12.006  19.367  1.00  0.00    -0.350 N 
HETATM   23  C5  UNL     1      16.331 -10.905  19.515  1.00  0.00     0.128 C 
HETATM   24  C20 UNL     1      16.994 -13.034  18.425  1.00  0.00     0.128 C 
HETATM   25  C4  UNL     1      15.053 -11.521  19.993  1.00  0.00     0.045 C 
HETATM   26  C3  UNL     1      14.618 -12.727  19.249  1.00  0.00     0.087 C 
HETATM   27  C21 UNL     1      15.521 -13.231  18.183  1.00  0.00     0.045 C 
HETATM   28  O2  UNL     1      18.554 -11.061  21.009  1.00  0.00    -0.271 OA
BRANCH  26  29
HETATM   29  N1  UNL     1      14.218 -13.774  20.186  1.00  0.00    -0.357 N 
HETATM   30  C2  UNL     1      13.037 -14.522  20.079  1.00  0.00     0.213 C 
HETATM   31  C1  UNL     1      12.692 -15.573  21.066  1.00  0.00     0.117 C 
HETATM   32  O1  UNL     1      12.257 -14.289  19.121  1.00  0.00    -0.274 OA
ATOM     33  H1  UNL     1      14.840 -13.973  20.970  1.00  0.00     0.162 HD
ENDBRANCH  26  29
ENDBRANCH  20  21
BRANCH  20  34
HETATM   34  C8  UNL     1      20.649 -12.586  19.253  1.00  0.00     0.199 C 
BRANCH  34  35
HETATM   35  O3  UNL     1      21.460 -11.670  19.908  1.00  0.00    -0.398 OA
ATOM     36  H3  UNL     1      21.512 -10.858  19.418  1.00  0.00     0.209 HD
ENDBRANCH  34  35
ENDBRANCH  20  34
ENDBRANCH   1  20
TORSDOF 5
ENDMDL
MODEL 5
REMARK VINA RESULT: -8.092443019      2.287      3.387
REMARK  5 active torsions:
REMARK  status: ('A' for Active; 'I' for Inactive)
REMARK       I    between atoms: C2_2  and  N1_4 
REMARK    1  A    between atoms: N1_4  and  C3_6 
REMARK       I    between atoms: N2_9  and  C6_10 
REMARK    2  A    between atoms: C6_10  and  C7_12 
REMARK    3  A    between atoms: C7_12  and  C8_13 
REMARK    4  A    between atoms: C7_12  and  N3_16 
REMARK    5  A    between atoms: C8_13  and  O3_14 
REMARK       I    between atoms: N3_16  and  C9_18 
REMARK       I    between atoms: C9_18  and  N4_20 
ROOT
HETATM    1  N3  UNL     1      17.071 -13.808  20.461  1.00  0.00    -0.328 N 
ATOM      2  H3  UNL     1      16.639 -14.724  20.576  1.00  0.00     0.165 HD
HETATM    3  C9  UNL     1      18.432 -13.633  20.797  1.00  0.00     0.319 C 
HETATM    4  O4  UNL     1      18.952 -12.481  20.647  1.00  0.00    -0.247 OA
HETATM    5  N4  UNL     1      19.248 -14.680  21.297  1.00  0.00    -0.324 N 
HETATM    6  C10 UNL     1      20.631 -14.446  21.637  1.00  0.00     0.156 C 
HETATM    7  C11 UNL     1      20.816 -13.536  22.798  1.00  0.00     0.257 C 
HETATM    8  N5  UNL     1      20.948 -14.168  24.075  1.00  0.00    -0.064 N 
HETATM    9  C12 UNL     1      22.254 -14.745  24.188  1.00  0.00     0.237 C 
HETATM   10  C13 UNL     1      23.092 -13.771  24.989  1.00  0.00     0.029 C 
HETATM   11  C14 UNL     1      22.066 -13.194  25.935  1.00  0.00     0.029 C 
HETATM   12  C15 UNL     1      20.823 -13.152  25.103  1.00  0.00     0.237 C 
HETATM   13  C16 UNL     1      19.935 -15.166  24.363  1.00  0.00     0.257 C 
HETATM   14  C17 UNL     1      18.567 -14.574  24.347  1.00  0.00     0.150 C 
HETATM   15  N6  UNL     1      17.558 -15.330  23.676  1.00  0.00    -0.358 N 
ATOM     16  H6  UNL     1      16.625 -15.288  24.085  1.00  0.00     0.162 HD
HETATM   17  C18 UNL     1      17.685 -16.124  22.528  1.00  0.00     0.235 C 
HETATM   18  O5  UNL     1      16.840 -17.078  22.350  1.00  0.00    -0.272 OA
HETATM   19  C19 UNL     1      18.692 -16.010  21.453  1.00  0.00     0.230 C 
ENDROOT
BRANCH   1  20
HETATM   20  C7  UNL     1      16.265 -12.684  19.945  1.00  0.00     0.202 C 
BRANCH  20  21
HETATM   21  C6  UNL     1      14.858 -13.093  19.795  1.00  0.00     0.244 C 
HETATM   22  N2  UNL     1      14.367 -14.209  19.106  1.00  0.00    -0.350 N 
HETATM   23  C5  UNL     1      12.925 -14.433  19.051  1.00  0.00     0.128 C 
HETATM   24  C20 UNL     1      15.230 -15.147  18.471  1.00  0.00     0.128 C 
HETATM   25  C4  UNL     1      12.678 -15.727  19.763  1.00  0.00     0.045 C 
HETATM   26  C3  UNL     1      13.576 -16.841  19.374  1.00  0.00     0.087 C 
HETATM   27  C21 UNL     1      14.654 -16.536  18.399  1.00  0.00     0.045 C 
HETATM   28  O2  UNL     1      13.978 -12.342  20.361  1.00  0.00    -0.271 OA
BRANCH  26  29
HETATM   29  N1  UNL     1      14.076 -17.518  20.568  1.00  0.00    -0.357 N 
HETATM   30  C2  UNL     1      13.433 -18.597  21.192  1.00  0.00     0.213 C 
HETATM   31  C1  UNL     1      13.996 -19.241  22.403  1.00  0.00     0.117 C 
HETATM   32  O1  UNL     1      12.354 -19.022  20.706  1.00  0.00    -0.274 OA
ATOM     33  H1  UNL     1      14.949 -17.183  20.975  1.00  0.00     0.162 HD
ENDBRANCH  26  29
ENDBRANCH  20  21
BRANCH  20  34
HETATM   34  C8  UNL     1      16.393 -11.525  20.915  1.00  0.00     0.199 C 
BRANCH  34  35
HETATM   35  O3  UNL     1      16.909 -10.406  20.276  1.00  0.00    -0.398 OA
ATOM     36  H3  UNL     1      16.483 -10.273  19.438  1.00  0.00     0.209 HD
ENDBRANCH  34  35
ENDBRANCH  20  34
ENDBRANCH   1  20
TORSDOF 5
ENDMDL
