MODEL 1
REMARK VINA RESULT: -8.233021984      0.000      0.000
REMARK  9 active torsions:
REMARK  status: ('A' for Active; 'I' for Inactive)
REMARK    1  A    between atoms: C2_2  and  N1_5 
REMARK       I    between atoms: N1_5  and  C5_7 
REMARK       I    between atoms: C5_7  and  N2_9 
REMARK    2  A    between atoms: N3_12  and  C8_13 
REMARK    3  A    between atoms: C8_13  and  O2_14 
REMARK    4  A    between atoms: C8_13  and  N4_16 
REMARK       I    between atoms: N5_19  and  C11_20 
REMARK    5  A    between atoms: C11_20  and  C12_22 
REMARK    6  A    between atoms: C12_22  and  N6_23 
REMARK    7  A    between atoms: C13_27  and  C14_28 
REMARK       I    between atoms: C14_28  and  N7_30 
REMARK    8  A    between atoms: N7_30  and  C15_32 
REMARK    9  A    between atoms: C15_32  and  C16_33 
ROOT
HETATM    1  N4  UNL     1      15.998 -11.340  19.476  1.00  0.00    -0.344 N 
HETATM    2  C9  UNL     1      14.825 -11.322  18.659  1.00  0.00     0.146 C 
HETATM    3  C10 UNL     1      14.055 -12.595  19.012  1.00  0.00     0.147 C 
HETATM    4  N5  UNL     1      13.894 -12.626  20.435  1.00  0.00    -0.334 N 
HETATM    5  C11 UNL     1      13.196 -13.714  21.001  1.00  0.00     0.246 C 
HETATM    6  O3  UNL     1      13.033 -13.778  22.234  1.00  0.00    -0.272 OA
HETATM    7  C13 UNL     1      14.408 -11.605  21.321  1.00  0.00     0.197 C 
HETATM    8  C17 UNL     1      15.712 -11.014  20.895  1.00  0.00     0.161 C 
ENDROOT
BRANCH   1   9
HETATM    9  C8  UNL     1      17.297 -11.644  19.062  1.00  0.00     0.217 C 
BRANCH   9  10
HETATM   10  N3  UNL     1      18.340 -12.354  19.643  1.00  0.00    -0.344 N 
HETATM   11  C7  UNL     1      18.085 -13.781  20.016  1.00  0.00     0.146 C 
HETATM   12  C6  UNL     1      18.733 -14.083  21.334  1.00  0.00     0.147 C 
HETATM   13  N2  UNL     1      20.113 -13.622  21.383  1.00  0.00    -0.331 N 
HETATM   14  C5  UNL     1      20.930 -13.835  22.521  1.00  0.00     0.319 C 
HETATM   15  C19 UNL     1      20.634 -12.941  20.236  1.00  0.00     0.147 C 
HETATM   16  N1  UNL     1      20.426 -14.500  23.645  1.00  0.00    -0.335 N 
HETATM   17  O1  UNL     1      22.135 -13.410  22.507  1.00  0.00    -0.247 OA
ATOM     18  H1  UNL     1      19.459 -14.825  23.625  1.00  0.00     0.165 HD
HETATM   19  C18 UNL     1      19.644 -11.819  19.894  1.00  0.00     0.146 C 
BRANCH  16  20
HETATM   20  C2  UNL     1      21.222 -14.750  24.843  1.00  0.00     0.023 C 
HETATM   21  C1  UNL     1      21.499 -13.471  25.577  1.00  0.00     0.037 C 
HETATM   22  C3  UNL     1      20.442 -15.671  25.790  1.00  0.00     0.037 C 
HETATM   23  C4  UNL     1      22.499 -15.463  24.470  1.00  0.00     0.037 C 
ENDBRANCH  16  20
ENDBRANCH   9  10
BRANCH   9  24
HETATM   24  O2  UNL     1      17.597 -11.157  17.873  1.00  0.00    -0.333 OA
ATOM     25  H2  UNL     1      17.122 -11.575  17.166  1.00  0.00     0.220 HD
ENDBRANCH   9  24
ENDBRANCH   1   9
BRANCH   7  26
HETATM   26  C14 UNL     1      13.362 -10.608  21.661  1.00  0.00     0.242 C 
HETATM   27  O4  UNL     1      12.991  -9.785  20.789  1.00  0.00    -0.271 OA
HETATM   28  N7  UNL     1      12.764 -10.549  22.945  1.00  0.00    -0.351 N 
ATOM     29  H7  UNL     1      13.044 -11.204  23.675  1.00  0.00     0.163 HD
BRANCH  28  30
HETATM   30  C15 UNL     1      11.754  -9.551  23.205  1.00  0.00     0.222 C 
BRANCH  30  31
HETATM   31  C16 UNL     1      12.290  -8.423  24.001  1.00  0.00     0.248 C 
HETATM   32  N8  UNL     1      11.463  -7.712  24.910  1.00  0.00    -0.061 NA
HETATM   33  O5  UNL     1      13.495  -8.081  23.876  1.00  0.00    -0.275 OA
ENDBRANCH  30  31
ENDBRANCH  28  30
ENDBRANCH   7  26
BRANCH   5  34
HETATM   34  C12 UNL     1      12.659 -14.774  20.134  1.00  0.00     0.332 C 
BRANCH  34  35
HETATM   35  N6  UNL     1      12.630 -16.067  20.783  1.00  0.00    -0.071 N 
ATOM     36  H63 UNL     1      12.972 -16.002  21.742  1.00  0.00     0.274 HD
ATOM     37  H62 UNL     1      11.672 -16.361  20.969  1.00  0.00     0.274 HD
ATOM     38  H61 UNL     1      13.138 -16.782  20.261  1.00  0.00     0.274 HD
ENDBRANCH  34  35
ENDBRANCH   5  34
TORSDOF 9
ENDMDL
MODEL 2
REMARK VINA RESULT: -7.523168414      2.341      3.789
REMARK  9 active torsions:
REMARK  status: ('A' for Active; 'I' for Inactive)
REMARK    1  A    between atoms: C2_2  and  N1_5 
REMARK       I    between atoms: N1_5  and  C5_7 
REMARK       I    between atoms: C5_7  and  N2_9 
REMARK    2  A    between atoms: N3_12  and  C8_13 
REMARK    3  A    between atoms: C8_13  and  O2_14 
REMARK    4  A    between atoms: C8_13  and  N4_16 
REMARK       I    between atoms: N5_19  and  C11_20 
REMARK    5  A    between atoms: C11_20  and  C12_22 
REMARK    6  A    between atoms: C12_22  and  N6_23 
REMARK    7  A    between atoms: C13_27  and  C14_28 
REMARK       I    between atoms: C14_28  and  N7_30 
REMARK    8  A    between atoms: N7_30  and  C15_32 
REMARK    9  A    between atoms: C15_32  and  C16_33 
ROOT
HETATM    1  N4  UNL     1      17.172 -12.842  21.498  1.00  0.00    -0.344 N 
HETATM    2  C9  UNL     1      17.569 -11.551  21.030  1.00  0.00     0.146 C 
HETATM    3  C10 UNL     1      17.122 -11.485  19.569  1.00  0.00     0.147 C 
HETATM    4  N5  UNL     1      15.732 -11.830  19.522  1.00  0.00    -0.334 N 
HETATM    5  C11 UNL     1      15.088 -11.828  18.267  1.00  0.00     0.246 C 
HETATM    6  O3  UNL     1      13.881 -12.121  18.184  1.00  0.00    -0.272 OA
HETATM    7  C13 UNL     1      14.956 -12.181  20.691  1.00  0.00     0.197 C 
HETATM    8  C17 UNL     1      15.710 -12.942  21.732  1.00  0.00     0.161 C 
ENDROOT
BRANCH   1   9
HETATM    9  C8  UNL     1      18.005 -13.942  21.715  1.00  0.00     0.217 C 
BRANCH   9  10
HETATM   10  N3  UNL     1      18.959 -14.238  22.680  1.00  0.00    -0.344 N 
HETATM   11  C7  UNL     1      20.168 -13.358  22.753  1.00  0.00     0.146 C 
HETATM   12  C6  UNL     1      21.387 -14.193  23.008  1.00  0.00     0.147 C 
HETATM   13  N2  UNL     1      21.186 -15.134  24.100  1.00  0.00    -0.331 N 
HETATM   14  C5  UNL     1      22.219 -16.000  24.537  1.00  0.00     0.319 C 
HETATM   15  C19 UNL     1      19.902 -15.165  24.732  1.00  0.00     0.147 C 
HETATM   16  N1  UNL     1      23.477 -15.974  23.923  1.00  0.00    -0.335 N 
HETATM   17  O1  UNL     1      21.987 -16.805  25.501  1.00  0.00    -0.247 OA
ATOM     18  H1  UNL     1      23.631 -15.321  23.154  1.00  0.00     0.165 HD
HETATM   19  C18 UNL     1      18.858 -15.315  23.617  1.00  0.00     0.146 C 
BRANCH  16  20
HETATM   20  C2  UNL     1      24.579 -16.840  24.334  1.00  0.00     0.023 C 
HETATM   21  C1  UNL     1      24.224 -18.285  24.142  1.00  0.00     0.037 C 
HETATM   22  C3  UNL     1      25.809 -16.543  23.466  1.00  0.00     0.037 C 
HETATM   23  C4  UNL     1      24.955 -16.546  25.766  1.00  0.00     0.037 C 
ENDBRANCH  16  20
ENDBRANCH   9  10
BRANCH   9  24
HETATM   24  O2  UNL     1      17.859 -14.897  20.817  1.00  0.00    -0.333 OA
ATOM     25  H2  UNL     1      17.341 -14.631  20.067  1.00  0.00     0.220 HD
ENDBRANCH   9  24
ENDBRANCH   1   9
BRANCH   7  26
HETATM   26  C14 UNL     1      14.201 -11.012  21.209  1.00  0.00     0.242 C 
HETATM   27  O4  UNL     1      14.783  -9.905  21.319  1.00  0.00    -0.271 OA
HETATM   28  N7  UNL     1      12.838 -11.101  21.588  1.00  0.00    -0.351 N 
ATOM     29  H7  UNL     1      12.337 -11.986  21.511  1.00  0.00     0.163 HD
BRANCH  28  30
HETATM   30  C15 UNL     1      12.168  -9.923  22.085  1.00  0.00     0.222 C 
BRANCH  30  31
HETATM   31  C16 UNL     1      11.809 -10.059  23.515  1.00  0.00     0.248 C 
HETATM   32  N8  UNL     1      11.835  -8.937  24.386  1.00  0.00    -0.061 NA
HETATM   33  O5  UNL     1      11.476 -11.181  23.977  1.00  0.00    -0.275 OA
ENDBRANCH  30  31
ENDBRANCH  28  30
ENDBRANCH   7  26
BRANCH   5  34
HETATM   34  C12 UNL     1      15.845 -11.479  17.054  1.00  0.00     0.332 C 
BRANCH  34  35
HETATM   35  N6  UNL     1      15.061 -10.717  16.106  1.00  0.00    -0.071 N 
ATOM     36  H63 UNL     1      14.072 -10.952  16.177  1.00  0.00     0.274 HD
ATOM     37  H62 UNL     1      15.017  -9.734  16.376  1.00  0.00     0.274 HD
ATOM     38  H61 UNL     1      15.395 -10.818  15.147  1.00  0.00     0.274 HD
ENDBRANCH  34  35
ENDBRANCH   5  34
TORSDOF 9
ENDMDL
MODEL 3
REMARK VINA RESULT: -7.464891111      1.129      1.198
REMARK  9 active torsions:
REMARK  status: ('A' for Active; 'I' for Inactive)
REMARK    1  A    between atoms: C2_2  and  N1_5 
REMARK       I    between atoms: N1_5  and  C5_7 
REMARK       I    between atoms: C5_7  and  N2_9 
REMARK    2  A    between atoms: N3_12  and  C8_13 
REMARK    3  A    between atoms: C8_13  and  O2_14 
REMARK    4  A    between atoms: C8_13  and  N4_16 
REMARK       I    between atoms: N5_19  and  C11_20 
REMARK    5  A    between atoms: C11_20  and  C12_22 
REMARK    6  A    between atoms: C12_22  and  N6_23 
REMARK    7  A    between atoms: C13_27  and  C14_28 
REMARK       I    between atoms: C14_28  and  N7_30 
REMARK    8  A    between atoms: N7_30  and  C15_32 
REMARK    9  A    between atoms: C15_32  and  C16_33 
ROOT
HETATM    1  N4  UNL     1      16.507 -11.743  19.641  1.00  0.00    -0.344 N 
HETATM    2  C9  UNL     1      15.476 -11.350  18.731  1.00  0.00     0.146 C 
HETATM    3  C10 UNL     1      14.414 -12.447  18.808  1.00  0.00     0.147 C 
HETATM    4  N5  UNL     1      14.074 -12.627  20.189  1.00  0.00    -0.334 N 
HETATM    5  C11 UNL     1      13.094 -13.590  20.512  1.00  0.00     0.246 C 
HETATM    6  O3  UNL     1      12.769 -13.776  21.699  1.00  0.00    -0.272 OA
HETATM    7  C13 UNL     1      14.679 -11.876  21.266  1.00  0.00     0.197 C 
HETATM    8  C17 UNL     1      16.122 -11.548  21.060  1.00  0.00     0.161 C 
ENDROOT
BRANCH   1   9
HETATM    9  C8  UNL     1      17.752 -12.280  19.306  1.00  0.00     0.217 C 
BRANCH   9  10
HETATM   10  N3  UNL     1      18.597 -13.188  19.932  1.00  0.00    -0.344 N 
HETATM   11  C7  UNL     1      18.033 -14.529  20.285  1.00  0.00     0.146 C 
HETATM   12  C6  UNL     1      18.541 -14.953  21.630  1.00  0.00     0.147 C 
HETATM   13  N2  UNL     1      19.983 -14.790  21.746  1.00  0.00    -0.331 N 
HETATM   14  C5  UNL     1      20.684 -15.163  22.920  1.00  0.00     0.319 C 
HETATM   15  C19 UNL     1      20.687 -14.237  20.628  1.00  0.00     0.147 C 
HETATM   16  N1  UNL     1      19.999 -15.703  24.015  1.00  0.00    -0.335 N 
HETATM   17  O1  UNL     1      21.949 -14.998  22.965  1.00  0.00    -0.247 OA
ATOM     18  H1  UNL     1      18.988 -15.820  23.949  1.00  0.00     0.165 HD
HETATM   19  C18 UNL     1      19.970 -12.936  20.246  1.00  0.00     0.146 C 
BRANCH  16  20
HETATM   20  C2  UNL     1      20.670 -16.108  25.248  1.00  0.00     0.023 C 
HETATM   21  C1  UNL     1      21.541 -15.004  25.771  1.00  0.00     0.037 C 
HETATM   22  C3  UNL     1      19.617 -16.418  26.321  1.00  0.00     0.037 C 
HETATM   23  C4  UNL     1      21.459 -17.372  25.011  1.00  0.00     0.037 C 
ENDBRANCH  16  20
ENDBRANCH   9  10
BRANCH   9  24
HETATM   24  O2  UNL     1      18.227 -11.832  18.160  1.00  0.00    -0.333 OA
ATOM     25  H2  UNL     1      17.549 -11.577  17.547  1.00  0.00     0.220 HD
ENDBRANCH   9  24
ENDBRANCH   1   9
BRANCH   7  26
HETATM   26  C14 UNL     1      13.836 -10.718  21.659  1.00  0.00     0.242 C 
HETATM   27  O4  UNL     1      14.255  -9.554  21.448  1.00  0.00    -0.271 OA
HETATM   28  N7  UNL     1      12.567 -10.881  22.269  1.00  0.00    -0.351 N 
ATOM     29  H7  UNL     1      12.198 -11.814  22.454  1.00  0.00     0.163 HD
BRANCH  28  30
HETATM   30  C15 UNL     1      11.803  -9.709  22.625  1.00  0.00     0.222 C 
BRANCH  30  31
HETATM   31  C16 UNL     1      11.841  -9.452  24.083  1.00  0.00     0.248 C 
HETATM   32  N8  UNL     1      12.104  -8.152  24.590  1.00  0.00    -0.061 NA
HETATM   33  O5  UNL     1      11.638 -10.394  24.893  1.00  0.00    -0.275 OA
ENDBRANCH  30  31
ENDBRANCH  28  30
ENDBRANCH   7  26
BRANCH   5  34
HETATM   34  C12 UNL     1      12.457 -14.376  19.444  1.00  0.00     0.332 C 
BRANCH  34  35
HETATM   35  N6  UNL     1      12.391 -15.788  19.753  1.00  0.00    -0.071 N 
ATOM     36  H63 UNL     1      11.734 -15.966  20.512  1.00  0.00     0.274 HD
ATOM     37  H62 UNL     1      11.923 -16.303  19.007  1.00  0.00     0.274 HD
ATOM     38  H61 UNL     1      13.306 -16.191  19.958  1.00  0.00     0.274 HD
ENDBRANCH  34  35
ENDBRANCH   5  34
TORSDOF 9
ENDMDL
MODEL 4
REMARK VINA RESULT: -7.426276308      4.247      7.744
REMARK  9 active torsions:
REMARK  status: ('A' for Active; 'I' for Inactive)
REMARK    1  A    between atoms: C2_2  and  N1_5 
REMARK       I    between atoms: N1_5  and  C5_7 
REMARK       I    between atoms: C5_7  and  N2_9 
REMARK    2  A    between atoms: N3_12  and  C8_13 
REMARK    3  A    between atoms: C8_13  and  O2_14 
REMARK    4  A    between atoms: C8_13  and  N4_16 
REMARK       I    between atoms: N5_19  and  C11_20 
REMARK    5  A    between atoms: C11_20  and  C12_22 
REMARK    6  A    between atoms: C12_22  and  N6_23 
REMARK    7  A    between atoms: C13_27  and  C14_28 
REMARK       I    between atoms: C14_28  and  N7_30 
REMARK    8  A    between atoms: N7_30  and  C15_32 
REMARK    9  A    between atoms: C15_32  and  C16_33 
ROOT
HETATM    1  N4  UNL     1      13.777 -13.748  21.301  1.00  0.00    -0.344 N 
HETATM    2  C9  UNL     1      14.985 -13.032  21.570  1.00  0.00     0.146 C 
HETATM    3  C10 UNL     1      15.466 -12.509  20.216  1.00  0.00     0.147 C 
HETATM    4  N5  UNL     1      14.376 -11.804  19.609  1.00  0.00    -0.334 N 
HETATM    5  C11 UNL     1      14.587 -11.216  18.344  1.00  0.00     0.246 C 
HETATM    6  O3  UNL     1      13.665 -10.594  17.783  1.00  0.00    -0.272 OA
HETATM    7  C13 UNL     1      13.074 -11.664  20.222  1.00  0.00     0.197 C 
HETATM    8  C17 UNL     1      12.631 -12.850  21.016  1.00  0.00     0.161 C 
ENDROOT
BRANCH   1   9
HETATM    9  C8  UNL     1      13.621 -15.136  21.271  1.00  0.00     0.217 C 
BRANCH   9  10
HETATM   10  N3  UNL     1      13.490 -16.057  20.240  1.00  0.00    -0.344 N 
HETATM   11  C7  UNL     1      14.697 -16.330  19.398  1.00  0.00     0.146 C 
HETATM   12  C6  UNL     1      14.292 -16.461  17.960  1.00  0.00     0.147 C 
HETATM   13  N2  UNL     1      13.152 -17.350  17.792  1.00  0.00    -0.331 N 
HETATM   14  C5  UNL     1      12.622 -17.649  16.512  1.00  0.00     0.319 C 
HETATM   15  C19 UNL     1      12.572 -17.926  18.967  1.00  0.00     0.147 C 
HETATM   16  N1  UNL     1      13.186 -17.089  15.360  1.00  0.00    -0.335 N 
HETATM   17  O1  UNL     1      11.621 -18.438  16.425  1.00  0.00    -0.247 OA
ATOM     18  H1  UNL     1      13.983 -16.461  15.463  1.00  0.00     0.165 HD
HETATM   19  C18 UNL     1      12.288 -16.772  19.938  1.00  0.00     0.146 C 
BRANCH  16  20
HETATM   20  C2  UNL     1      12.683 -17.364  14.016  1.00  0.00     0.023 C 
HETATM   21  C1  UNL     1      13.457 -16.594  12.987  1.00  0.00     0.037 C 
HETATM   22  C3  UNL     1      12.853 -18.857  13.706  1.00  0.00     0.037 C 
HETATM   23  C4  UNL     1      11.208 -17.053  13.948  1.00  0.00     0.037 C 
ENDBRANCH  16  20
ENDBRANCH   9  10
BRANCH   9  24
HETATM   24  O2  UNL     1      13.590 -15.688  22.469  1.00  0.00    -0.333 OA
ATOM     25  H2  UNL     1      13.316 -15.087  23.151  1.00  0.00     0.220 HD
ENDBRANCH   9  24
ENDBRANCH   1   9
BRANCH   7  26
HETATM   26  C14 UNL     1      12.947 -10.367  20.933  1.00  0.00     0.242 C 
HETATM   27  O4  UNL     1      12.549  -9.357  20.301  1.00  0.00    -0.271 OA
HETATM   28  N7  UNL     1      13.260 -10.225  22.308  1.00  0.00    -0.351 N 
ATOM     29  H7  UNL     1      13.585 -11.026  22.849  1.00  0.00     0.163 HD
BRANCH  28  30
HETATM   30  C15 UNL     1      13.113  -8.932  22.932  1.00  0.00     0.222 C 
BRANCH  30  31
HETATM   31  C16 UNL     1      12.127  -8.965  24.037  1.00  0.00     0.248 C 
HETATM   32  N8  UNL     1      11.705  -7.770  24.677  1.00  0.00    -0.061 NA
HETATM   33  O5  UNL     1      11.650 -10.065  24.421  1.00  0.00    -0.275 OA
ENDBRANCH  30  31
ENDBRANCH  28  30
ENDBRANCH   7  26
BRANCH   5  34
HETATM   34  C12 UNL     1      15.897 -11.337  17.686  1.00  0.00     0.332 C 
BRANCH  34  35
HETATM   35  N6  UNL     1      15.832 -11.097  16.261  1.00  0.00    -0.071 N 
ATOM     36  H63 UNL     1      16.750 -11.202  15.830  1.00  0.00     0.274 HD
ATOM     37  H62 UNL     1      15.339 -11.852  15.785  1.00  0.00     0.274 HD
ATOM     38  H61 UNL     1      15.422 -10.191  16.032  1.00  0.00     0.274 HD
ENDBRANCH  34  35
ENDBRANCH   5  34
TORSDOF 9
ENDMDL
MODEL 5
REMARK VINA RESULT: -7.353969970      2.264      4.979
REMARK  9 active torsions:
REMARK  status: ('A' for Active; 'I' for Inactive)
REMARK    1  A    between atoms: C2_2  and  N1_5 
REMARK       I    between atoms: N1_5  and  C5_7 
REMARK       I    between atoms: C5_7  and  N2_9 
REMARK    2  A    between atoms: N3_12  and  C8_13 
REMARK    3  A    between atoms: C8_13  and  O2_14 
REMARK    4  A    between atoms: C8_13  and  N4_16 
REMARK       I    between atoms: N5_19  and  C11_20 
REMARK    5  A    between atoms: C11_20  and  C12_22 
REMARK    6  A    between atoms: C12_22  and  N6_23 
REMARK    7  A    between atoms: C13_27  and  C14_28 
REMARK       I    between atoms: C14_28  and  N7_30 
REMARK    8  A    between atoms: N7_30  and  C15_32 
REMARK    9  A    between atoms: C15_32  and  C16_33 
ROOT
HETATM    1  N4  UNL     1      16.214 -13.762  20.936  1.00  0.00    -0.344 N 
HETATM    2  C9  UNL     1      14.843 -14.038  20.637  1.00  0.00     0.146 C 
HETATM    3  C10 UNL     1      14.034 -12.986  21.398  1.00  0.00     0.147 C 
HETATM    4  N5  UNL     1      14.562 -11.699  21.055  1.00  0.00    -0.334 N 
HETATM    5  C11 UNL     1      13.962 -10.560  21.632  1.00  0.00     0.246 C 
HETATM    6  O3  UNL     1      14.390  -9.423  21.359  1.00  0.00    -0.272 OA
HETATM    7  C13 UNL     1      15.674 -11.505  20.152  1.00  0.00     0.197 C 
HETATM    8  C17 UNL     1      16.725 -12.564  20.225  1.00  0.00     0.161 C 
ENDROOT
BRANCH   1   9
HETATM    9  C8  UNL     1      17.037 -14.481  21.806  1.00  0.00     0.217 C 
BRANCH   9  10
HETATM   10  N3  UNL     1      18.331 -14.287  22.270  1.00  0.00    -0.344 N 
HETATM   11  C7  UNL     1      19.453 -14.474  21.297  1.00  0.00     0.146 C 
HETATM   12  C6  UNL     1      20.596 -15.173  21.970  1.00  0.00     0.147 C 
HETATM   13  N2  UNL     1      20.927 -14.570  23.252  1.00  0.00    -0.331 N 
HETATM   14  C5  UNL     1      21.999 -15.046  24.047  1.00  0.00     0.319 C 
HETATM   15  C19 UNL     1      20.132 -13.466  23.700  1.00  0.00     0.147 C 
HETATM   16  N1  UNL     1      22.780 -16.126  23.614  1.00  0.00    -0.335 N 
HETATM   17  O1  UNL     1      22.245 -14.477  25.163  1.00  0.00    -0.247 OA
ATOM     18  H1  UNL     1      22.557 -16.560  22.719  1.00  0.00     0.165 HD
HETATM   19  C18 UNL     1      18.665 -13.905  23.609  1.00  0.00     0.146 C 
BRANCH  16  20
HETATM   20  C2  UNL     1      23.898 -16.657  24.389  1.00  0.00     0.023 C 
HETATM   21  C1  UNL     1      23.430 -17.185  25.712  1.00  0.00     0.037 C 
HETATM   22  C3  UNL     1      24.539 -17.822  23.623  1.00  0.00     0.037 C 
HETATM   23  C4  UNL     1      24.954 -15.592  24.559  1.00  0.00     0.037 C 
ENDBRANCH  16  20
ENDBRANCH   9  10
BRANCH   9  24
HETATM   24  O2  UNL     1      16.471 -15.572  22.285  1.00  0.00    -0.333 OA
ATOM     25  H2  UNL     1      15.764 -15.390  22.893  1.00  0.00     0.220 HD
ENDBRANCH   9  24
ENDBRANCH   1   9
BRANCH   7  26
HETATM   26  C14 UNL     1      15.207 -11.197  18.776  1.00  0.00     0.242 C 
HETATM   27  O4  UNL     1      14.003 -10.894  18.590  1.00  0.00    -0.271 OA
HETATM   28  N7  UNL     1      16.077 -11.232  17.658  1.00  0.00    -0.351 N 
ATOM     29  H7  UNL     1      17.061 -11.475  17.776  1.00  0.00     0.163 HD
BRANCH  28  30
HETATM   30  C15 UNL     1      15.552 -10.922  16.349  1.00  0.00     0.222 C 
BRANCH  30  31
HETATM   31  C16 UNL     1      16.631 -10.586  15.392  1.00  0.00     0.248 C 
HETATM   32  N8  UNL     1      16.655 -11.153  14.090  1.00  0.00    -0.061 NA
HETATM   33  O5  UNL     1      17.545  -9.789  15.727  1.00  0.00    -0.275 OA
ENDBRANCH  30  31
ENDBRANCH  28  30
ENDBRANCH   7  26
BRANCH   5  34
HETATM   34  C12 UNL     1      12.830 -10.715  22.558  1.00  0.00     0.332 C 
BRANCH  34  35
HETATM   35  N6  UNL     1      12.630  -9.554  23.398  1.00  0.00    -0.071 N 
ATOM     36  H63 UNL     1      13.455  -9.370  23.970  1.00  0.00     0.274 HD
ATOM     37  H62 UNL     1      12.622  -8.698  22.843  1.00  0.00     0.274 HD
ATOM     38  H61 UNL     1      11.792  -9.624  23.976  1.00  0.00     0.274 HD
ENDBRANCH  34  35
ENDBRANCH   5  34
TORSDOF 9
ENDMDL
