MODEL 1
REMARK VINA RESULT: -7.415218365      0.000      0.000
REMARK  9 active torsions:
REMARK  status: ('A' for Active; 'I' for Inactive)
REMARK    1  A    between atoms: O1_2  and  N1_3 
REMARK    2  A    between atoms: N1_3  and  C2_5 
REMARK    3  A    between atoms: C3_8  and  N3_9 
REMARK    4  A    between atoms: C5_17  and  N6_18 
REMARK    5  A    between atoms: N6_18  and  C6_20 
REMARK    6  A    between atoms: C6_20  and  C7_21 
REMARK    7  A    between atoms: C7_21  and  C8_22 
REMARK    8  A    between atoms: C8_22  and  C9_23 
REMARK    9  A    between atoms: C9_23  and  O2_24 
ROOT
HETATM    1  C2  UNL     1     -25.140  23.410 156.841  1.00  0.00     0.160 A 
HETATM    2  N2  UNL     1     -26.339  23.616 157.418  1.00  0.00    -0.174 N 
ATOM      3  H2  UNL     1     -26.385  23.933 158.387  1.00  0.00     0.186 HD
HETATM    4  C3  UNL     1     -27.478  23.409 156.734  1.00  0.00     0.679 A 
HETATM    5  N4  UNL     1     -27.362  22.991 155.461  1.00  0.00    -0.175 N 
ATOM      6  H4  UNL     1     -28.222  22.831 154.936  1.00  0.00     0.186 HD
HETATM    7  C4  UNL     1     -26.207  22.771 154.839  1.00  0.00     0.156 A 
HETATM    8  N5  UNL     1     -26.100  22.353 153.567  1.00  0.00    -0.175 N 
ATOM      9  H5  UNL     1     -26.956  22.192 153.036  1.00  0.00     0.186 HD
HETATM   10  C5  UNL     1     -24.914  22.137 152.957  1.00  0.00     0.682 A 
HETATM   11  N7  UNL     1     -23.785  22.348 153.655  1.00  0.00    -0.155 N 
ATOM     12  H7  UNL     1     -22.887  22.185 153.198  1.00  0.00     0.187 HD
HETATM   13  C10 UNL     1     -23.794  22.768 154.940  1.00  0.00     0.277 A 
HETATM   14  O3  UNL     1     -22.754  22.971 155.608  1.00  0.00    -0.266 OA
HETATM   15  C11 UNL     1     -25.032  22.979 155.529  1.00  0.00     0.124 A 
ENDROOT
BRANCH  10  16
HETATM   16  N6  UNL     1     -24.824  21.737 151.742  1.00  0.00    -0.226 N 
ATOM     17  H6  UNL     1     -25.660  21.828 151.164  1.00  0.00     0.177 HD
BRANCH  16  18
HETATM   18  C6  UNL     1     -23.679  21.183 151.126  1.00  0.00     0.138 C 
BRANCH  18  19
HETATM   19  C7  UNL     1     -23.848  19.757 150.760  1.00  0.00     0.022 C 
BRANCH  19  20
HETATM   20  C8  UNL     1     -22.651  19.078 150.242  1.00  0.00     0.028 C 
BRANCH  20  21
HETATM   21  C9  UNL     1     -22.721  18.424 148.900  1.00  0.00     0.164 C 
BRANCH  21  22
HETATM   22  O2  UNL     1     -22.272  17.082 149.089  1.00  0.00    -0.401 OA
ATOM     23  H2  UNL     1     -21.813  16.843 148.292  1.00  0.00     0.209 HD
ENDBRANCH  21  22
ENDBRANCH  20  21
ENDBRANCH  19  20
ENDBRANCH  18  19
ENDBRANCH  16  18
ENDBRANCH  10  16
BRANCH   4  24
HETATM   24  N3  UNL     1     -28.644  23.611 157.297  1.00  0.00    -0.234 N 
ATOM     25  H32 UNL     1     -29.302  22.850 157.467  1.00  0.00     0.174 HD
ATOM     26  H31 UNL     1     -28.929  24.547 157.587  1.00  0.00     0.174 HD
ENDBRANCH   4  24
BRANCH   1  27
HETATM   27  N1  UNL     1     -24.025  23.602 157.478  1.00  0.00    -0.249 N 
ATOM     28  H1  UNL     1     -23.354  22.844 157.608  1.00  0.00     0.196 HD
BRANCH  27  29
HETATM   29  O1  UNL     1     -23.781  24.856 157.970  1.00  0.00    -0.284 OA
HETATM   30  C1  UNL     1     -22.563  25.547 157.768  1.00  0.00     0.237 C 
ENDBRANCH  27  29
ENDBRANCH   1  27
TORSDOF 9
ENDMDL
MODEL 2
REMARK VINA RESULT: -7.271692054      1.819      2.891
REMARK  9 active torsions:
REMARK  status: ('A' for Active; 'I' for Inactive)
REMARK    1  A    between atoms: O1_2  and  N1_3 
REMARK    2  A    between atoms: N1_3  and  C2_5 
REMARK    3  A    between atoms: C3_8  and  N3_9 
REMARK    4  A    between atoms: C5_17  and  N6_18 
REMARK    5  A    between atoms: N6_18  and  C6_20 
REMARK    6  A    between atoms: C6_20  and  C7_21 
REMARK    7  A    between atoms: C7_21  and  C8_22 
REMARK    8  A    between atoms: C8_22  and  C9_23 
REMARK    9  A    between atoms: C9_23  and  O2_24 
ROOT
HETATM    1  C2  UNL     1     -25.593  22.571 156.921  1.00  0.00     0.160 A 
HETATM    2  N2  UNL     1     -24.874  23.452 157.643  1.00  0.00    -0.174 N 
ATOM      3  H2  UNL     1     -25.072  23.569 158.637  1.00  0.00     0.186 HD
HETATM    4  C3  UNL     1     -23.900  24.180 157.070  1.00  0.00     0.679 A 
HETATM    5  N4  UNL     1     -23.681  23.989 155.757  1.00  0.00    -0.175 N 
ATOM      6  H4  UNL     1     -22.944  24.538 155.315  1.00  0.00     0.186 HD
HETATM    7  C4  UNL     1     -24.357  23.135 154.994  1.00  0.00     0.156 A 
HETATM    8  N5  UNL     1     -24.132  22.949 153.683  1.00  0.00    -0.175 N 
ATOM      9  H5  UNL     1     -23.396  23.495 153.235  1.00  0.00     0.186 HD
HETATM   10  C5  UNL     1     -24.833  22.074 152.929  1.00  0.00     0.682 A 
HETATM   11  N7  UNL     1     -25.804  21.354 153.516  1.00  0.00    -0.155 N 
ATOM     12  H7  UNL     1     -26.337  20.693 152.949  1.00  0.00     0.187 HD
HETATM   13  C10 UNL     1     -26.102  21.474 154.830  1.00  0.00     0.277 A 
HETATM   14  O3  UNL     1     -27.003  20.812 155.396  1.00  0.00    -0.266 OA
HETATM   15  C11 UNL     1     -25.359  22.382 155.569  1.00  0.00     0.124 A 
ENDROOT
BRANCH  10  16
HETATM   16  N6  UNL     1     -24.610  21.906 151.677  1.00  0.00    -0.226 N 
ATOM     17  H6  UNL     1     -25.306  22.277 151.031  1.00  0.00     0.177 HD
BRANCH  16  18
HETATM   18  C6  UNL     1     -23.492  21.257 151.107  1.00  0.00     0.138 C 
BRANCH  18  19
HETATM   19  C7  UNL     1     -23.761  19.845 150.744  1.00  0.00     0.022 C 
BRANCH  19  20
HETATM   20  C8  UNL     1     -22.608  19.073 150.255  1.00  0.00     0.028 C 
BRANCH  20  21
HETATM   21  C9  UNL     1     -22.699  18.420 148.914  1.00  0.00     0.164 C 
BRANCH  21  22
HETATM   22  O2  UNL     1     -22.249  17.077 149.097  1.00  0.00    -0.401 OA
ATOM     23  H2  UNL     1     -23.022  16.529 149.032  1.00  0.00     0.209 HD
ENDBRANCH  21  22
ENDBRANCH  20  21
ENDBRANCH  19  20
ENDBRANCH  18  19
ENDBRANCH  16  18
ENDBRANCH  10  16
BRANCH   4  24
HETATM   24  N3  UNL     1     -23.202  25.037 157.775  1.00  0.00    -0.234 N 
ATOM     25  H32 UNL     1     -23.530  25.986 157.953  1.00  0.00     0.174 HD
ATOM     26  H31 UNL     1     -22.299  24.774 158.170  1.00  0.00     0.174 HD
ENDBRANCH   4  24
BRANCH   1  27
HETATM   27  N1  UNL     1     -26.539  21.856 157.447  1.00  0.00    -0.249 N 
ATOM     28  H1  UNL     1     -26.546  20.839 157.357  1.00  0.00     0.196 HD
BRANCH  27  29
HETATM   29  O1  UNL     1     -27.529  22.513 158.129  1.00  0.00    -0.284 OA
HETATM   30  C1  UNL     1     -28.493  23.335 157.499  1.00  0.00     0.237 C 
ENDBRANCH  27  29
ENDBRANCH   1  27
TORSDOF 9
ENDMDL
MODEL 3
REMARK VINA RESULT: -7.210080976      2.250      3.047
REMARK  9 active torsions:
REMARK  status: ('A' for Active; 'I' for Inactive)
REMARK    1  A    between atoms: O1_2  and  N1_3 
REMARK    2  A    between atoms: N1_3  and  C2_5 
REMARK    3  A    between atoms: C3_8  and  N3_9 
REMARK    4  A    between atoms: C5_17  and  N6_18 
REMARK    5  A    between atoms: N6_18  and  C6_20 
REMARK    6  A    between atoms: C6_20  and  C7_21 
REMARK    7  A    between atoms: C7_21  and  C8_22 
REMARK    8  A    between atoms: C8_22  and  C9_23 
REMARK    9  A    between atoms: C9_23  and  O2_24 
ROOT
HETATM    1  C2  UNL     1     -26.515  21.689 156.411  1.00  0.00     0.160 A 
HETATM    2  N2  UNL     1     -27.313  20.619 156.227  1.00  0.00    -0.174 N 
ATOM      3  H2  UNL     1     -27.852  20.251 157.012  1.00  0.00     0.186 HD
HETATM    4  C3  UNL     1     -27.407  20.028 155.023  1.00  0.00     0.679 A 
HETATM    5  N4  UNL     1     -26.675  20.550 154.023  1.00  0.00    -0.175 N 
ATOM      6  H4  UNL     1     -26.740  20.107 153.107  1.00  0.00     0.186 HD
HETATM    7  C4  UNL     1     -25.872  21.604 154.145  1.00  0.00     0.156 A 
HETATM    8  N5  UNL     1     -25.144  22.120 153.141  1.00  0.00    -0.175 N 
ATOM      9  H5  UNL     1     -25.205  21.682 152.222  1.00  0.00     0.186 HD
HETATM   10  C5  UNL     1     -24.334  23.192 153.289  1.00  0.00     0.682 A 
HETATM   11  N7  UNL     1     -24.251  23.771 154.499  1.00  0.00    -0.155 N 
ATOM     12  H7  UNL     1     -23.640  24.580 154.616  1.00  0.00     0.187 HD
HETATM   13  C10 UNL     1     -24.946  23.321 155.569  1.00  0.00     0.277 A 
HETATM   14  O3  UNL     1     -24.883  23.846 156.704  1.00  0.00    -0.266 OA
HETATM   15  C11 UNL     1     -25.766  22.219 155.374  1.00  0.00     0.124 A 
ENDROOT
BRANCH  10  16
HETATM   16  N6  UNL     1     -23.643  23.676 152.323  1.00  0.00    -0.226 N 
ATOM     17  H6  UNL     1     -24.015  24.505 151.861  1.00  0.00     0.177 HD
BRANCH  16  18
HETATM   18  C6  UNL     1     -22.416  23.170 151.838  1.00  0.00     0.138 C 
BRANCH  18  19
HETATM   19  C7  UNL     1     -22.585  22.174 150.752  1.00  0.00     0.022 C 
BRANCH  19  20
HETATM   20  C8  UNL     1     -22.412  20.765 151.136  1.00  0.00     0.028 C 
BRANCH  20  21
HETATM   21  C9  UNL     1     -23.404  19.761 150.646  1.00  0.00     0.164 C 
BRANCH  21  22
HETATM   22  O2  UNL     1     -24.477  19.772 151.587  1.00  0.00    -0.401 OA
ATOM     23  H2  UNL     1     -25.206  19.338 151.160  1.00  0.00     0.209 HD
ENDBRANCH  21  22
ENDBRANCH  20  21
ENDBRANCH  19  20
ENDBRANCH  18  19
ENDBRANCH  16  18
ENDBRANCH  10  16
BRANCH   4  24
HETATM   24  N3  UNL     1     -28.183  18.987 154.847  1.00  0.00    -0.234 N 
ATOM     25  H32 UNL     1     -28.949  18.769 155.484  1.00  0.00     0.174 HD
ATOM     26  H31 UNL     1     -28.041  18.358 154.056  1.00  0.00     0.174 HD
ENDBRANCH   4  24
BRANCH   1  27
HETATM   27  N1  UNL     1     -26.405  22.278 157.562  1.00  0.00    -0.249 N 
ATOM     28  H1  UNL     1     -25.501  22.365 158.027  1.00  0.00     0.196 HD
BRANCH  27  29
HETATM   29  O1  UNL     1     -27.545  22.779 158.131  1.00  0.00    -0.284 OA
HETATM   30  C1  UNL     1     -28.459  23.609 157.440  1.00  0.00     0.237 C 
ENDBRANCH  27  29
ENDBRANCH   1  27
TORSDOF 9
ENDMDL
MODEL 4
REMARK VINA RESULT: -7.131941349      2.686      3.791
REMARK  9 active torsions:
REMARK  status: ('A' for Active; 'I' for Inactive)
REMARK    1  A    between atoms: O1_2  and  N1_3 
REMARK    2  A    between atoms: N1_3  and  C2_5 
REMARK    3  A    between atoms: C3_8  and  N3_9 
REMARK    4  A    between atoms: C5_17  and  N6_18 
REMARK    5  A    between atoms: N6_18  and  C6_20 
REMARK    6  A    between atoms: C6_20  and  C7_21 
REMARK    7  A    between atoms: C7_21  and  C8_22 
REMARK    8  A    between atoms: C8_22  and  C9_23 
REMARK    9  A    between atoms: C9_23  and  O2_24 
ROOT
HETATM    1  C2  UNL     1     -25.784  22.417 156.977  1.00  0.00     0.160 A 
HETATM    2  N2  UNL     1     -25.129  23.312 157.741  1.00  0.00    -0.174 N 
ATOM      3  H2  UNL     1     -25.358  23.392 158.732  1.00  0.00     0.186 HD
HETATM    4  C3  UNL     1     -24.177  24.102 157.214  1.00  0.00     0.679 A 
HETATM    5  N4  UNL     1     -23.915  23.957 155.903  1.00  0.00    -0.175 N 
ATOM      6  H4  UNL     1     -23.195  24.553 155.495  1.00  0.00     0.186 HD
HETATM    7  C4  UNL     1     -24.528  23.091 155.100  1.00  0.00     0.156 A 
HETATM    8  N5  UNL     1     -24.260  22.952 153.791  1.00  0.00    -0.175 N 
ATOM      9  H5  UNL     1     -23.540  23.545 153.377  1.00  0.00     0.186 HD
HETATM   10  C5  UNL     1     -24.897  22.065 152.996  1.00  0.00     0.682 A 
HETATM   11  N7  UNL     1     -25.847  21.283 153.537  1.00  0.00    -0.155 N 
ATOM     12  H7  UNL     1     -26.331  20.612 152.940  1.00  0.00     0.187 HD
HETATM   13  C10 UNL     1     -26.184  21.352 154.846  1.00  0.00     0.277 A 
HETATM   14  O3  UNL     1     -27.065  20.633 155.370  1.00  0.00    -0.266 OA
HETATM   15  C11 UNL     1     -25.506  22.276 155.627  1.00  0.00     0.124 A 
ENDROOT
BRANCH  10  16
HETATM   16  N6  UNL     1     -24.633  21.942 151.747  1.00  0.00    -0.226 N 
ATOM     17  H6  UNL     1     -25.286  22.374 151.093  1.00  0.00     0.177 HD
BRANCH  16  18
HETATM   18  C6  UNL     1     -23.526  21.265 151.189  1.00  0.00     0.138 C 
BRANCH  18  19
HETATM   19  C7  UNL     1     -22.462  22.181 150.712  1.00  0.00     0.022 C 
BRANCH  19  20
HETATM   20  C8  UNL     1     -21.308  22.352 151.607  1.00  0.00     0.028 C 
BRANCH  20  21
HETATM   21  C9  UNL     1     -21.081  23.687 152.238  1.00  0.00     0.164 C 
BRANCH  21  22
HETATM   22  O2  UNL     1     -22.342  24.355 152.216  1.00  0.00    -0.401 OA
ATOM     23  H2  UNL     1     -22.423  24.737 151.351  1.00  0.00     0.209 HD
ENDBRANCH  21  22
ENDBRANCH  20  21
ENDBRANCH  19  20
ENDBRANCH  18  19
ENDBRANCH  16  18
ENDBRANCH  10  16
BRANCH   4  24
HETATM   24  N3  UNL     1     -23.541  24.972 157.959  1.00  0.00    -0.234 N 
ATOM     25  H32 UNL     1     -22.774  24.699 158.574  1.00  0.00     0.174 HD
ATOM     26  H31 UNL     1     -23.798  25.959 157.943  1.00  0.00     0.174 HD
ENDBRANCH   4  24
BRANCH   1  27
HETATM   27  N1  UNL     1     -26.707  21.642 157.459  1.00  0.00    -0.249 N 
ATOM     28  H1  UNL     1     -26.640  20.627 157.379  1.00  0.00     0.196 HD
BRANCH  27  29
HETATM   29  O1  UNL     1     -27.775  22.235 158.079  1.00  0.00    -0.284 OA
HETATM   30  C1  UNL     1     -28.518  23.293 157.505  1.00  0.00     0.237 C 
ENDBRANCH  27  29
ENDBRANCH   1  27
TORSDOF 9
ENDMDL
MODEL 5
REMARK VINA RESULT: -7.082080147      2.033      2.436
REMARK  9 active torsions:
REMARK  status: ('A' for Active; 'I' for Inactive)
REMARK    1  A    between atoms: O1_2  and  N1_3 
REMARK    2  A    between atoms: N1_3  and  C2_5 
REMARK    3  A    between atoms: C3_8  and  N3_9 
REMARK    4  A    between atoms: C5_17  and  N6_18 
REMARK    5  A    between atoms: N6_18  and  C6_20 
REMARK    6  A    between atoms: C6_20  and  C7_21 
REMARK    7  A    between atoms: C7_21  and  C8_22 
REMARK    8  A    between atoms: C8_22  and  C9_23 
REMARK    9  A    between atoms: C9_23  and  O2_24 
ROOT
HETATM    1  C2  UNL     1     -25.244  23.375 156.977  1.00  0.00     0.160 A 
HETATM    2  N2  UNL     1     -26.458  23.546 157.537  1.00  0.00    -0.174 N 
ATOM      3  H2  UNL     1     -26.526  23.869 158.502  1.00  0.00     0.186 HD
HETATM    4  C3  UNL     1     -27.580  23.295 156.840  1.00  0.00     0.679 A 
HETATM    5  N4  UNL     1     -27.433  22.870 155.572  1.00  0.00    -0.175 N 
ATOM      6  H4  UNL     1     -28.280  22.677 155.037  1.00  0.00     0.186 HD
HETATM    7  C4  UNL     1     -26.264  22.685 154.967  1.00  0.00     0.156 A 
HETATM    8  N5  UNL     1     -26.126  22.260 153.700  1.00  0.00    -0.175 N 
ATOM      9  H5  UNL     1     -26.968  22.065 153.159  1.00  0.00     0.186 HD
HETATM   10  C5  UNL     1     -24.925  22.078 153.107  1.00  0.00     0.682 A 
HETATM   11  N7  UNL     1     -23.813  22.333 153.818  1.00  0.00    -0.155 N 
ATOM     12  H7  UNL     1     -22.904  22.196 153.374  1.00  0.00     0.187 HD
HETATM   13  C10 UNL     1     -23.853  22.763 155.099  1.00  0.00     0.277 A 
HETATM   14  O3  UNL     1     -22.829  23.007 155.778  1.00  0.00    -0.266 OA
HETATM   15  C11 UNL     1     -25.105  22.937 155.670  1.00  0.00     0.124 A 
ENDROOT
BRANCH  10  16
HETATM   16  N6  UNL     1     -24.806  21.672 151.897  1.00  0.00    -0.226 N 
ATOM     17  H6  UNL     1     -25.651  21.668 151.327  1.00  0.00     0.177 HD
BRANCH  16  18
HETATM   18  C6  UNL     1     -23.616  21.229 151.277  1.00  0.00     0.138 C 
BRANCH  18  19
HETATM   19  C7  UNL     1     -22.822  22.331 150.685  1.00  0.00     0.022 C 
BRANCH  19  20
HETATM   20  C8  UNL     1     -21.444  22.473 151.181  1.00  0.00     0.028 C 
BRANCH  20  21
HETATM   21  C9  UNL     1     -21.117  23.630 152.068  1.00  0.00     0.164 C 
BRANCH  21  22
HETATM   22  O2  UNL     1     -22.334  24.355 152.239  1.00  0.00    -0.401 OA
ATOM     23  H2  UNL     1     -22.482  24.403 153.176  1.00  0.00     0.209 HD
ENDBRANCH  21  22
ENDBRANCH  20  21
ENDBRANCH  19  20
ENDBRANCH  18  19
ENDBRANCH  16  18
ENDBRANCH  10  16
BRANCH   4  24
HETATM   24  N3  UNL     1     -28.759  23.462 157.386  1.00  0.00    -0.234 N 
ATOM     25  H32 UNL     1     -28.878  23.574 158.393  1.00  0.00     0.174 HD
ATOM     26  H31 UNL     1     -29.601  23.485 156.811  1.00  0.00     0.174 HD
ENDBRANCH   4  24
BRANCH   1  27
HETATM   27  N1  UNL     1     -24.145  23.610 157.627  1.00  0.00    -0.249 N 
ATOM     28  H1  UNL     1     -23.496  22.856 157.855  1.00  0.00     0.196 HD
BRANCH  27  29
HETATM   29  O1  UNL     1     -23.888  24.903 157.994  1.00  0.00    -0.284 OA
HETATM   30  C1  UNL     1     -22.615  25.509 157.867  1.00  0.00     0.237 C 
ENDBRANCH  27  29
ENDBRANCH   1  27
TORSDOF 9
ENDMDL
