MODEL 1
REMARK VINA RESULT: -7.776818846      0.000      0.000
REMARK  8 active torsions:
REMARK  status: ('A' for Active; 'I' for Inactive)
REMARK    1  A    between atoms: N1_1  and  C1_4 
REMARK    2  A    between atoms: C3_10  and  N4_11 
REMARK    3  A    between atoms: N4_11  and  C4_13 
REMARK    4  A    between atoms: C4_13  and  C5_14 
REMARK    5  A    between atoms: C5_14  and  C6_15 
REMARK    6  A    between atoms: C6_15  and  O1_16 
REMARK    7  A    between atoms: N6_21  and  C8_23 
REMARK    8  A    between atoms: C8_23  and  C9_24 
ROOT
HETATM    1  C1  UNL     1     -27.766  23.089 157.069  1.00  0.00     0.692 A 
HETATM    2  N2  UNL     1     -27.553  22.589 155.843  1.00  0.00    -0.173 N 
ATOM      3  H2  UNL     1     -28.329  22.230 155.287  1.00  0.00     0.186 HD
HETATM    4  C2  UNL     1     -26.295  22.568 155.356  1.00  0.00     0.168 A 
HETATM    5  N3  UNL     1     -26.026  22.077 154.131  1.00  0.00    -0.174 N 
ATOM      6  H3  UNL     1     -26.797  21.716 153.569  1.00  0.00     0.186 HD
HETATM    7  C3  UNL     1     -24.786  22.041 153.618  1.00  0.00     0.681 A 
HETATM    8  N5  UNL     1     -23.786  22.509 154.346  1.00  0.00    -0.174 N 
ATOM      9  H5  UNL     1     -22.850  22.475 153.941  1.00  0.00     0.186 HD
HETATM   10  C7  UNL     1     -23.918  23.036 155.602  1.00  0.00     0.153 A 
HETATM   11  N6  UNL     1     -22.904  23.460 156.224  1.00  0.00    -0.345 N 
ATOM     12  H6  UNL     1     -22.046  23.355 155.684  1.00  0.00     0.167 HD
HETATM   13  C10 UNL     1     -25.201  23.053 156.090  1.00  0.00     0.138 A 
HETATM   14  N8  UNL     1     -25.481  23.534 157.293  1.00  0.00    -0.280 N 
ATOM     15  H8  UNL     1     -24.724  23.901 157.870  1.00  0.00     0.188 HD
HETATM   16  N9  UNL     1     -26.712  23.552 157.763  1.00  0.00    -0.132 N 
ATOM     17  H9  UNL     1     -26.871  23.934 158.696  1.00  0.00     0.205 HD
ENDROOT
BRANCH   7  18
HETATM   18  N4  UNL     1     -24.602  21.546 152.416  1.00  0.00    -0.226 N 
ATOM     19  H4  UNL     1     -24.840  20.577 152.205  1.00  0.00     0.177 HD
BRANCH  18  20
HETATM   20  C4  UNL     1     -24.051  22.417 151.400  1.00  0.00     0.140 C 
BRANCH  20  21
HETATM   21  C5  UNL     1     -22.660  21.908 151.030  1.00  0.00     0.046 C 
BRANCH  21  22
HETATM   22  C6  UNL     1     -21.654  22.955 151.499  1.00  0.00     0.165 C 
BRANCH  22  23
HETATM   23  O1  UNL     1     -22.298  23.970 152.194  1.00  0.00    -0.401 OA
ATOM     24  H1  UNL     1     -22.807  23.610 152.911  1.00  0.00     0.209 HD
ENDBRANCH  22  23
ENDBRANCH  21  22
ENDBRANCH  20  21
ENDBRANCH  18  20
ENDBRANCH   7  18
BRANCH  11  25
HETATM   25  C8  UNL     1     -22.676  24.036 157.469  1.00  0.00     0.160 C 
BRANCH  25  26
HETATM   26  C9  UNL     1     -22.409  25.513 157.319  1.00  0.00     0.270 C 
HETATM   27  N7  UNL     1     -21.969  26.030 156.064  1.00  0.00    -0.057 NA
HETATM   28  O2  UNL     1     -22.554  26.334 158.256  1.00  0.00    -0.270 OA
ENDBRANCH  25  26
ENDBRANCH  11  25
BRANCH   1  29
HETATM   29  N1  UNL     1     -28.975  23.131 157.585  1.00  0.00    -0.233 N 
ATOM     30  H12 UNL     1     -29.410  22.285 157.954  1.00  0.00     0.174 HD
ATOM     31  H11 UNL     1     -29.500  24.004 157.628  1.00  0.00     0.174 HD
ENDBRANCH   1  29
TORSDOF 8
ENDMDL
MODEL 2
REMARK VINA RESULT: -7.630048234      0.940      1.055
REMARK  8 active torsions:
REMARK  status: ('A' for Active; 'I' for Inactive)
REMARK    1  A    between atoms: N1_1  and  C1_4 
REMARK    2  A    between atoms: C3_10  and  N4_11 
REMARK    3  A    between atoms: N4_11  and  C4_13 
REMARK    4  A    between atoms: C4_13  and  C5_14 
REMARK    5  A    between atoms: C5_14  and  C6_15 
REMARK    6  A    between atoms: C6_15  and  O1_16 
REMARK    7  A    between atoms: N6_21  and  C8_23 
REMARK    8  A    between atoms: C8_23  and  C9_24 
ROOT
HETATM    1  C1  UNL     1     -27.748  23.092 157.068  1.00  0.00     0.692 A 
HETATM    2  N2  UNL     1     -27.547  22.590 155.840  1.00  0.00    -0.173 N 
ATOM      3  H2  UNL     1     -28.329  22.237 155.290  1.00  0.00     0.186 HD
HETATM    4  C2  UNL     1     -26.293  22.561 155.345  1.00  0.00     0.168 A 
HETATM    5  N3  UNL     1     -26.035  22.068 154.118  1.00  0.00    -0.174 N 
ATOM      6  H3  UNL     1     -26.812  21.713 153.561  1.00  0.00     0.186 HD
HETATM    7  C3  UNL     1     -24.799  22.025 153.596  1.00  0.00     0.681 A 
HETATM    8  N5  UNL     1     -23.791  22.486 154.317  1.00  0.00    -0.174 N 
ATOM      9  H5  UNL     1     -22.858  22.446 153.906  1.00  0.00     0.186 HD
HETATM   10  C7  UNL     1     -23.910  23.013 155.574  1.00  0.00     0.153 A 
HETATM   11  N6  UNL     1     -22.890  23.430 156.190  1.00  0.00    -0.345 N 
ATOM     12  H6  UNL     1     -22.036  23.319 155.643  1.00  0.00     0.167 HD
HETATM   13  C10 UNL     1     -25.190  23.039 156.071  1.00  0.00     0.138 A 
HETATM   14  N8  UNL     1     -25.459  23.521 157.276  1.00  0.00    -0.280 N 
ATOM     15  H8  UNL     1     -24.695  23.882 157.848  1.00  0.00     0.188 HD
HETATM   16  N9  UNL     1     -26.686  23.547 157.755  1.00  0.00    -0.132 N 
ATOM     17  H9  UNL     1     -26.836  23.929 158.689  1.00  0.00     0.205 HD
ENDROOT
BRANCH   7  18
HETATM   18  N4  UNL     1     -24.626  21.529 152.393  1.00  0.00    -0.226 N 
ATOM     19  H4  UNL     1     -24.723  20.529 152.218  1.00  0.00     0.177 HD
BRANCH  18  20
HETATM   20  C4  UNL     1     -24.294  22.444 151.322  1.00  0.00     0.140 C 
BRANCH  20  21
HETATM   21  C5  UNL     1     -22.942  22.038 150.741  1.00  0.00     0.046 C 
BRANCH  21  22
HETATM   22  C6  UNL     1     -22.857  20.515 150.808  1.00  0.00     0.165 C 
BRANCH  22  23
HETATM   23  O1  UNL     1     -21.864  20.123 151.694  1.00  0.00    -0.401 OA
ATOM     24  H1  UNL     1     -21.113  19.784 151.222  1.00  0.00     0.209 HD
ENDBRANCH  22  23
ENDBRANCH  21  22
ENDBRANCH  20  21
ENDBRANCH  18  20
ENDBRANCH   7  18
BRANCH  11  25
HETATM   25  C8  UNL     1     -22.649  24.005 157.433  1.00  0.00     0.160 C 
BRANCH  25  26
HETATM   26  C9  UNL     1     -22.391  25.483 157.283  1.00  0.00     0.270 C 
HETATM   27  N7  UNL     1     -21.977  26.006 156.023  1.00  0.00    -0.057 NA
HETATM   28  O2  UNL     1     -22.523  26.300 158.226  1.00  0.00    -0.270 OA
ENDBRANCH  25  26
ENDBRANCH  11  25
BRANCH   1  29
HETATM   29  N1  UNL     1     -28.953  23.141 157.593  1.00  0.00    -0.233 N 
ATOM     30  H12 UNL     1     -29.283  22.393 158.203  1.00  0.00     0.174 HD
ATOM     31  H11 UNL     1     -29.578  23.923 157.403  1.00  0.00     0.174 HD
ENDBRANCH   1  29
TORSDOF 8
ENDMDL
MODEL 3
REMARK VINA RESULT: -7.255252646      2.745      5.094
REMARK  8 active torsions:
REMARK  status: ('A' for Active; 'I' for Inactive)
REMARK    1  A    between atoms: N1_1  and  C1_4 
REMARK    2  A    between atoms: C3_10  and  N4_11 
REMARK    3  A    between atoms: N4_11  and  C4_13 
REMARK    4  A    between atoms: C4_13  and  C5_14 
REMARK    5  A    between atoms: C5_14  and  C6_15 
REMARK    6  A    between atoms: C6_15  and  O1_16 
REMARK    7  A    between atoms: N6_21  and  C8_23 
REMARK    8  A    between atoms: C8_23  and  C9_24 
ROOT
HETATM    1  C1  UNL     1     -21.404  23.330 152.062  1.00  0.00     0.692 A 
HETATM    2  N2  UNL     1     -22.708  23.159 151.798  1.00  0.00    -0.173 N 
ATOM      3  H2  UNL     1     -23.023  22.964 150.848  1.00  0.00     0.186 HD
HETATM    4  C2  UNL     1     -23.597  23.252 152.808  1.00  0.00     0.168 A 
HETATM    5  N3  UNL     1     -24.917  23.089 152.598  1.00  0.00    -0.174 N 
ATOM      6  H3  UNL     1     -25.240  22.892 151.650  1.00  0.00     0.186 HD
HETATM    7  C3  UNL     1     -25.827  23.175 153.582  1.00  0.00     0.681 A 
HETATM    8  N5  UNL     1     -25.409  23.428 154.810  1.00  0.00    -0.174 N 
ATOM      9  H5  UNL     1     -26.112  23.490 155.546  1.00  0.00     0.186 HD
HETATM   10  C7  UNL     1     -24.100  23.613 155.164  1.00  0.00     0.153 A 
HETATM   11  N6  UNL     1     -23.792  23.853 156.365  1.00  0.00    -0.345 N 
ATOM     12  H6  UNL     1     -24.609  23.882 156.975  1.00  0.00     0.167 HD
HETATM   13  C10 UNL     1     -23.202  23.519 154.129  1.00  0.00     0.138 A 
HETATM   14  N8  UNL     1     -21.900  23.676 154.322  1.00  0.00    -0.280 N 
ATOM     15  H8  UNL     1     -21.557  23.872 155.262  1.00  0.00     0.188 HD
HETATM   16  N9  UNL     1     -21.037  23.585 153.330  1.00  0.00    -0.132 N 
ATOM     17  H9  UNL     1     -20.046  23.714 153.534  1.00  0.00     0.205 HD
ENDROOT
BRANCH   7  18
HETATM   18  N4  UNL     1     -27.097  23.005 153.298  1.00  0.00    -0.226 N 
ATOM     19  H4  UNL     1     -27.473  23.273 152.389  1.00  0.00     0.177 HD
BRANCH  18  20
HETATM   20  C4  UNL     1     -27.949  22.426 154.315  1.00  0.00     0.140 C 
BRANCH  20  21
HETATM   21  C5  UNL     1     -27.668  20.927 154.385  1.00  0.00     0.046 C 
BRANCH  21  22
HETATM   22  C6  UNL     1     -28.226  20.421 155.712  1.00  0.00     0.165 C 
BRANCH  22  23
HETATM   23  O1  UNL     1     -29.434  19.767 155.512  1.00  0.00    -0.401 OA
ATOM     24  H1  UNL     1     -30.112  20.146 156.060  1.00  0.00     0.209 HD
ENDBRANCH  22  23
ENDBRANCH  21  22
ENDBRANCH  20  21
ENDBRANCH  18  20
ENDBRANCH   7  18
BRANCH  11  25
HETATM   25  C8  UNL     1     -22.608  24.085 157.057  1.00  0.00     0.160 C 
BRANCH  25  26
HETATM   26  C9  UNL     1     -22.363  25.568 157.184  1.00  0.00     0.270 C 
HETATM   27  N7  UNL     1     -21.841  26.298 156.076  1.00  0.00    -0.057 NA
HETATM   28  O2  UNL     1     -22.597  26.212 158.235  1.00  0.00    -0.270 OA
ENDBRANCH  25  26
ENDBRANCH  11  25
BRANCH   1  29
HETATM   29  N1  UNL     1     -20.501  23.249 151.110  1.00  0.00    -0.233 N 
ATOM     30  H12 UNL     1     -20.461  23.954 150.373  1.00  0.00     0.174 HD
ATOM     31  H11 UNL     1     -19.826  22.485 151.087  1.00  0.00     0.174 HD
ENDBRANCH   1  29
TORSDOF 8
ENDMDL
MODEL 4
REMARK VINA RESULT: -7.209416369      2.066      4.946
REMARK  8 active torsions:
REMARK  status: ('A' for Active; 'I' for Inactive)
REMARK    1  A    between atoms: N1_1  and  C1_4 
REMARK    2  A    between atoms: C3_10  and  N4_11 
REMARK    3  A    between atoms: N4_11  and  C4_13 
REMARK    4  A    between atoms: C4_13  and  C5_14 
REMARK    5  A    between atoms: C5_14  and  C6_15 
REMARK    6  A    between atoms: C6_15  and  O1_16 
REMARK    7  A    between atoms: N6_21  and  C8_23 
REMARK    8  A    between atoms: C8_23  and  C9_24 
ROOT
HETATM    1  C1  UNL     1     -23.455  22.594 151.631  1.00  0.00     0.692 A 
HETATM    2  N2  UNL     1     -24.358  21.867 152.305  1.00  0.00    -0.173 N 
ATOM      3  H2  UNL     1     -24.919  21.163 151.825  1.00  0.00     0.186 HD
HETATM    4  C2  UNL     1     -24.514  22.081 153.627  1.00  0.00     0.168 A 
HETATM    5  N3  UNL     1     -25.406  21.378 154.351  1.00  0.00    -0.174 N 
ATOM      6  H3  UNL     1     -25.970  20.672 153.879  1.00  0.00     0.186 HD
HETATM    7  C3  UNL     1     -25.585  21.567 155.668  1.00  0.00     0.681 A 
HETATM    8  N5  UNL     1     -24.852  22.481 156.282  1.00  0.00    -0.174 N 
ATOM      9  H5  UNL     1     -25.000  22.613 157.283  1.00  0.00     0.186 HD
HETATM   10  C7  UNL     1     -23.911  23.263 155.670  1.00  0.00     0.153 A 
HETATM   11  N6  UNL     1     -23.257  24.113 156.337  1.00  0.00    -0.345 N 
ATOM     12  H6  UNL     1     -23.524  24.120 157.321  1.00  0.00     0.167 HD
HETATM   13  C10 UNL     1     -23.760  23.039 154.324  1.00  0.00     0.138 A 
HETATM   14  N8  UNL     1     -22.885  23.722 153.599  1.00  0.00    -0.280 N 
ATOM     15  H8  UNL     1     -22.310  24.432 154.053  1.00  0.00     0.188 HD
HETATM   16  N9  UNL     1     -22.738  23.509 152.307  1.00  0.00    -0.132 N 
ATOM     17  H9  UNL     1     -22.050  24.063 151.797  1.00  0.00     0.205 HD
ENDROOT
BRANCH   7  18
HETATM   18  N4  UNL     1     -26.475  20.844 156.306  1.00  0.00    -0.226 N 
ATOM     19  H4  UNL     1     -26.202  20.004 156.816  1.00  0.00     0.177 HD
BRANCH  18  20
HETATM   20  C4  UNL     1     -27.857  21.273 156.264  1.00  0.00     0.140 C 
BRANCH  20  21
HETATM   21  C5  UNL     1     -28.184  21.977 157.578  1.00  0.00     0.046 C 
BRANCH  21  22
HETATM   22  C6  UNL     1     -28.261  23.473 157.286  1.00  0.00     0.165 C 
BRANCH  22  23
HETATM   23  O1  UNL     1     -28.280  23.699 155.917  1.00  0.00    -0.401 OA
ATOM     24  H1  UNL     1     -27.874  24.533 155.712  1.00  0.00     0.209 HD
ENDBRANCH  22  23
ENDBRANCH  21  22
ENDBRANCH  20  21
ENDBRANCH  18  20
ENDBRANCH   7  18
BRANCH  11  25
HETATM   25  C8  UNL     1     -22.262  25.042 156.052  1.00  0.00     0.160 C 
BRANCH  25  26
HETATM   26  C9  UNL     1     -21.831  25.745 157.315  1.00  0.00     0.270 C 
HETATM   27  N7  UNL     1     -20.442  25.922 157.590  1.00  0.00    -0.057 NA
HETATM   28  O2  UNL     1     -22.643  26.196 158.159  1.00  0.00    -0.270 OA
ENDBRANCH  25  26
ENDBRANCH  11  25
BRANCH   1  29
HETATM   29  N1  UNL     1     -23.269  22.421 150.341  1.00  0.00    -0.233 N 
ATOM     30  H12 UNL     1     -24.041  22.543 149.685  1.00  0.00     0.174 HD
ATOM     31  H11 UNL     1     -22.354  22.163 149.971  1.00  0.00     0.174 HD
ENDBRANCH   1  29
TORSDOF 8
ENDMDL
MODEL 5
REMARK VINA RESULT: -7.168065763      2.347      4.368
REMARK  8 active torsions:
REMARK  status: ('A' for Active; 'I' for Inactive)
REMARK    1  A    between atoms: N1_1  and  C1_4 
REMARK    2  A    between atoms: C3_10  and  N4_11 
REMARK    3  A    between atoms: N4_11  and  C4_13 
REMARK    4  A    between atoms: C4_13  and  C5_14 
REMARK    5  A    between atoms: C5_14  and  C6_15 
REMARK    6  A    between atoms: C6_15  and  O1_16 
REMARK    7  A    between atoms: N6_21  and  C8_23 
REMARK    8  A    between atoms: C8_23  and  C9_24 
ROOT
HETATM    1  C1  UNL     1     -24.691  23.826 157.178  1.00  0.00     0.692 A 
HETATM    2  N2  UNL     1     -24.144  24.140 155.994  1.00  0.00    -0.173 N 
ATOM      3  H2  UNL     1     -23.569  24.976 155.894  1.00  0.00     0.186 HD
HETATM    4  C2  UNL     1     -24.367  23.332 154.937  1.00  0.00     0.168 A 
HETATM    5  N3  UNL     1     -23.842  23.601 153.726  1.00  0.00    -0.174 N 
ATOM      6  H3  UNL     1     -23.266  24.435 153.618  1.00  0.00     0.186 HD
HETATM    7  C3  UNL     1     -24.045  22.817 152.655  1.00  0.00     0.681 A 
HETATM    8  N5  UNL     1     -24.791  21.735 152.795  1.00  0.00    -0.174 N 
ATOM      9  H5  UNL     1     -24.936  21.150 151.971  1.00  0.00     0.186 HD
HETATM   10  C7  UNL     1     -25.383  21.343 153.965  1.00  0.00     0.153 A 
HETATM   11  N6  UNL     1     -26.081  20.292 154.005  1.00  0.00    -0.345 N 
ATOM     12  H6  UNL     1     -26.127  19.823 153.101  1.00  0.00     0.167 HD
HETATM   13  C10 UNL     1     -25.151  22.172 155.035  1.00  0.00     0.138 A 
HETATM   14  N8  UNL     1     -25.661  21.919 156.233  1.00  0.00    -0.280 N 
ATOM     15  H8  UNL     1     -26.239  21.089 156.362  1.00  0.00     0.188 HD
HETATM   16  N9  UNL     1     -25.440  22.713 157.261  1.00  0.00    -0.132 N 
ATOM     17  H9  UNL     1     -25.856  22.471 158.161  1.00  0.00     0.205 HD
ENDROOT
BRANCH   7  18
HETATM   18  N4  UNL     1     -23.501  23.146 151.506  1.00  0.00    -0.226 N 
ATOM     19  H4  UNL     1     -23.697  24.046 151.070  1.00  0.00     0.177 HD
BRANCH  18  20
HETATM   20  C4  UNL     1     -22.613  22.191 150.877  1.00  0.00     0.140 C 
BRANCH  20  21
HETATM   21  C5  UNL     1     -21.332  22.105 151.703  1.00  0.00     0.046 C 
BRANCH  21  22
HETATM   22  C6  UNL     1     -20.527  23.372 151.426  1.00  0.00     0.165 C 
BRANCH  22  23
HETATM   23  O1  UNL     1     -21.002  24.426 152.194  1.00  0.00    -0.401 OA
ATOM     24  H1  UNL     1     -21.842  24.205 152.578  1.00  0.00     0.209 HD
ENDBRANCH  22  23
ENDBRANCH  21  22
ENDBRANCH  20  21
ENDBRANCH  18  20
ENDBRANCH   7  18
BRANCH  11  25
HETATM   25  C8  UNL     1     -26.802  19.619 154.986  1.00  0.00     0.160 C 
BRANCH  25  26
HETATM   26  C9  UNL     1     -28.215  20.141 155.043  1.00  0.00     0.270 C 
HETATM   27  N7  UNL     1     -29.281  19.266 155.409  1.00  0.00    -0.057 NA
HETATM   28  O2  UNL     1     -28.517  21.331 154.781  1.00  0.00    -0.270 OA
ENDBRANCH  25  26
ENDBRANCH  11  25
BRANCH   1  29
HETATM   29  N1  UNL     1     -24.501  24.583 158.236  1.00  0.00    -0.233 N 
ATOM     30  H12 UNL     1     -23.562  24.893 158.490  1.00  0.00     0.174 HD
ATOM     31  H11 UNL     1     -25.283  24.876 158.821  1.00  0.00     0.174 HD
ENDBRANCH   1  29
TORSDOF 8
ENDMDL
