MODEL 1
REMARK VINA RESULT: -7.615747119      0.000      0.000
REMARK  7 active torsions:
REMARK  status: ('A' for Active; 'I' for Inactive)
REMARK    1  A    between atoms: N1_1  and  C1_4 
REMARK    2  A    between atoms: C4_9  and  N3_10 
REMARK    3  A    between atoms: C5_12  and  O1_13 
REMARK    4  A    between atoms: O1_13  and  C6_14 
REMARK    5  A    between atoms: C6_14  and  C7_15 
REMARK    6  A    between atoms: C7_15  and  N4_16 
REMARK    7  A    between atoms: N4_16  and  C8_18 
ROOT
HETATM    1  O1  UNL     1     -22.863  23.425 155.530  1.00  0.00    -0.345 OA
ENDROOT
BRANCH   1   2
HETATM    2  C5  UNL     1     -24.214  23.596 155.821  1.00  0.00     0.227 C 
HETATM    3  N3  UNL     1     -24.757  22.705 156.578  1.00  0.00    -0.333 N 
ATOM      4  H3  UNL     1     -24.210  21.922 156.936  1.00  0.00     0.168 HD
BRANCH   3   5
HETATM    5  C4  UNL     1     -26.130  22.838 156.900  1.00  0.00     0.123 A 
HETATM    6  C3  UNL     1     -26.780  21.787 157.549  1.00  0.00     0.066 A 
HETATM    7  C2  UNL     1     -28.103  21.869 157.879  1.00  0.00     0.110 A 
HETATM    8  N2  UNL     1     -28.789  22.985 157.572  1.00  0.00    -0.202 N 
HETATM    9  C1  UNL     1     -28.177  24.023 156.938  1.00  0.00     0.677 A 
ATOM     10  H2  UNL     1     -29.777  23.054 157.816  1.00  0.00     0.183 HD
HETATM   11  N8  UNL     1     -26.869  23.914 156.625  1.00  0.00    -0.177 N 
ATOM     12  H8  UNL     1     -26.420  24.697 156.151  1.00  0.00     0.185 HD
BRANCH   9  13
HETATM   13  N1  UNL     1     -28.851  25.089 156.650  1.00  0.00    -0.234 N 
ATOM     14  H12 UNL     1     -29.727  25.308 157.125  1.00  0.00     0.174 HD
ATOM     15  H11 UNL     1     -28.507  25.729 155.934  1.00  0.00     0.174 HD
ENDBRANCH   9  13
ENDBRANCH   3   5
ENDBRANCH   1   2
BRANCH   1  16
HETATM   16  C6  UNL     1     -22.509  22.610 154.453  1.00  0.00     0.196 C 
BRANCH  16  17
HETATM   17  C7  UNL     1     -23.385  23.027 153.266  1.00  0.00     0.164 C 
BRANCH  17  18
HETATM   18  N4  UNL     1     -24.222  21.949 152.832  1.00  0.00    -0.224 N 
ATOM     19  H4  UNL     1     -23.848  21.309 152.131  1.00  0.00     0.177 HD
BRANCH  18  20
HETATM   20  C8  UNL     1     -25.412  21.737 153.266  1.00  0.00     0.686 A 
HETATM   21  N5  UNL     1     -25.686  20.567 153.906  1.00  0.00    -0.141 N 
HETATM   22  C9  UNL     1     -26.919  20.320 154.370  1.00  0.00     0.342 A 
ATOM     23  H5  UNL     1     -24.948  19.874 154.032  1.00  0.00     0.189 HD
HETATM   24  O2  UNL     1     -27.149  19.219 154.964  1.00  0.00    -0.246 OA
HETATM   25  N6  UNL     1     -27.936  21.190 154.236  1.00  0.00    -0.260 N 
HETATM   26  C10 UNL     1     -27.676  22.349 153.606  1.00  0.00     0.342 A 
ATOM     27  H6  UNL     1     -28.866  20.979 154.597  1.00  0.00     0.175 HD
HETATM   28  O3  UNL     1     -28.605  23.186 153.463  1.00  0.00    -0.246 OA
HETATM   29  N7  UNL     1     -26.430  22.608 153.133  1.00  0.00    -0.141 N 
ATOM     30  H7  UNL     1     -26.258  23.494 152.658  1.00  0.00     0.189 HD
ENDBRANCH  18  20
ENDBRANCH  17  18
ENDBRANCH  16  17
ENDBRANCH   1  16
TORSDOF 7
ENDMDL
MODEL 2
REMARK VINA RESULT: -7.500176216      0.209      1.720
REMARK  7 active torsions:
REMARK  status: ('A' for Active; 'I' for Inactive)
REMARK    1  A    between atoms: N1_1  and  C1_4 
REMARK    2  A    between atoms: C4_9  and  N3_10 
REMARK    3  A    between atoms: C5_12  and  O1_13 
REMARK    4  A    between atoms: O1_13  and  C6_14 
REMARK    5  A    between atoms: C6_14  and  C7_15 
REMARK    6  A    between atoms: C7_15  and  N4_16 
REMARK    7  A    between atoms: N4_16  and  C8_18 
ROOT
HETATM    1  O1  UNL     1     -22.871  23.572 155.556  1.00  0.00    -0.345 OA
ENDROOT
BRANCH   1   2
HETATM    2  C5  UNL     1     -24.224  23.710 155.851  1.00  0.00     0.227 C 
HETATM    3  N3  UNL     1     -24.751  22.788 156.582  1.00  0.00    -0.333 N 
ATOM      4  H3  UNL     1     -24.190  22.005 156.918  1.00  0.00     0.168 HD
BRANCH   3   5
HETATM    5  C4  UNL     1     -26.126  22.885 156.908  1.00  0.00     0.123 A 
HETATM    6  C3  UNL     1     -26.755  21.808 157.533  1.00  0.00     0.066 A 
HETATM    7  C2  UNL     1     -28.079  21.856 157.865  1.00  0.00     0.110 A 
HETATM    8  N2  UNL     1     -28.787  22.965 157.583  1.00  0.00    -0.202 N 
HETATM    9  C1  UNL     1     -28.196  24.029 156.973  1.00  0.00     0.677 A 
ATOM     10  H2  UNL     1     -29.776  23.009 157.828  1.00  0.00     0.183 HD
HETATM   11  N8  UNL     1     -26.887  23.952 156.657  1.00  0.00    -0.177 N 
ATOM     12  H8  UNL     1     -26.453  24.755 156.200  1.00  0.00     0.185 HD
BRANCH   9  13
HETATM   13  N1  UNL     1     -28.891  25.087 156.708  1.00  0.00    -0.234 N 
ATOM     14  H12 UNL     1     -29.793  25.026 156.235  1.00  0.00     0.174 HD
ATOM     15  H11 UNL     1     -28.538  26.007 156.975  1.00  0.00     0.174 HD
ENDBRANCH   9  13
ENDBRANCH   3   5
ENDBRANCH   1   2
BRANCH   1  16
HETATM   16  C6  UNL     1     -22.507  22.911 154.381  1.00  0.00     0.196 C 
BRANCH  16  17
HETATM   17  C7  UNL     1     -23.422  23.434 153.268  1.00  0.00     0.164 C 
BRANCH  17  18
HETATM   18  N4  UNL     1     -24.213  22.381 152.706  1.00  0.00    -0.224 N 
ATOM     19  H4  UNL     1     -23.861  21.916 151.869  1.00  0.00     0.177 HD
BRANCH  18  20
HETATM   20  C8  UNL     1     -25.336  21.984 153.186  1.00  0.00     0.686 A 
HETATM   21  N5  UNL     1     -26.421  22.801 153.098  1.00  0.00    -0.141 N 
HETATM   22  C9  UNL     1     -27.606  22.412 153.590  1.00  0.00     0.342 A 
ATOM     23  H5  UNL     1     -26.332  23.716 152.655  1.00  0.00     0.189 HD
HETATM   24  O2  UNL     1     -28.604  23.194 153.495  1.00  0.00    -0.246 OA
HETATM   25  N6  UNL     1     -27.791  21.221 154.186  1.00  0.00    -0.260 N 
HETATM   26  C10 UNL     1     -26.727  20.405 154.277  1.00  0.00     0.342 A 
ATOM     27  H6  UNL     1     -28.703  20.947 154.553  1.00  0.00     0.175 HD
HETATM   28  O3  UNL     1     -26.864  19.282 154.829  1.00  0.00    -0.246 OA
HETATM   29  N7  UNL     1     -25.523  20.792 153.782  1.00  0.00    -0.141 N 
ATOM     30  H7  UNL     1     -24.730  20.155 153.864  1.00  0.00     0.189 HD
ENDBRANCH  18  20
ENDBRANCH  17  18
ENDBRANCH  16  17
ENDBRANCH   1  16
TORSDOF 7
ENDMDL
MODEL 3
REMARK VINA RESULT: -7.208092422      2.300      3.681
REMARK  7 active torsions:
REMARK  status: ('A' for Active; 'I' for Inactive)
REMARK    1  A    between atoms: N1_1  and  C1_4 
REMARK    2  A    between atoms: C4_9  and  N3_10 
REMARK    3  A    between atoms: C5_12  and  O1_13 
REMARK    4  A    between atoms: O1_13  and  C6_14 
REMARK    5  A    between atoms: C6_14  and  C7_15 
REMARK    6  A    between atoms: C7_15  and  N4_16 
REMARK    7  A    between atoms: N4_16  and  C8_18 
ROOT
HETATM    1  O1  UNL     1     -24.104  24.901 158.270  1.00  0.00    -0.345 OA
ENDROOT
BRANCH   1   2
HETATM    2  C5  UNL     1     -24.906  23.891 157.744  1.00  0.00     0.227 C 
HETATM    3  N3  UNL     1     -25.965  24.268 157.112  1.00  0.00    -0.333 N 
ATOM      4  H3  UNL     1     -26.188  25.259 157.013  1.00  0.00     0.168 HD
BRANCH   3   5
HETATM    5  C4  UNL     1     -26.811  23.276 156.559  1.00  0.00     0.123 A 
HETATM    6  C3  UNL     1     -27.415  22.347 157.408  1.00  0.00     0.066 A 
HETATM    7  C2  UNL     1     -28.238  21.372 156.920  1.00  0.00     0.110 A 
HETATM    8  N2  UNL     1     -28.469  21.310 155.596  1.00  0.00    -0.202 N 
HETATM    9  C1  UNL     1     -27.892  22.205 154.748  1.00  0.00     0.677 A 
ATOM     10  H2  UNL     1     -29.083  20.585 155.224  1.00  0.00     0.183 HD
HETATM   11  N8  UNL     1     -27.084  23.157 155.259  1.00  0.00    -0.177 N 
ATOM     12  H8  UNL     1     -26.657  23.823 154.615  1.00  0.00     0.185 HD
BRANCH   9  13
HETATM   13  N1  UNL     1     -28.125  22.131 153.478  1.00  0.00    -0.234 N 
ATOM     14  H12 UNL     1     -29.064  21.950 153.119  1.00  0.00     0.174 HD
ATOM     15  H11 UNL     1     -27.361  22.254 152.813  1.00  0.00     0.174 HD
ENDBRANCH   9  13
ENDBRANCH   3   5
ENDBRANCH   1   2
BRANCH   1  16
HETATM   16  C6  UNL     1     -22.763  24.959 157.883  1.00  0.00     0.196 C 
BRANCH  16  17
HETATM   17  C7  UNL     1     -22.609  24.054 156.656  1.00  0.00     0.164 C 
BRANCH  17  18
HETATM   18  N4  UNL     1     -22.728  24.801 155.440  1.00  0.00    -0.224 N 
ATOM     19  H4  UNL     1     -22.515  25.798 155.470  1.00  0.00     0.177 HD
BRANCH  18  20
HETATM   20  C8  UNL     1     -23.084  24.297 154.313  1.00  0.00     0.686 A 
HETATM   21  N5  UNL     1     -22.142  23.729 153.513  1.00  0.00    -0.141 N 
HETATM   22  C9  UNL     1     -22.486  23.195 152.332  1.00  0.00     0.342 A 
ATOM     23  H5  UNL     1     -21.167  23.709 153.813  1.00  0.00     0.189 HD
HETATM   24  O2  UNL     1     -21.586  22.669 151.603  1.00  0.00    -0.246 OA
HETATM   25  N6  UNL     1     -23.751  23.188 151.877  1.00  0.00    -0.260 N 
HETATM   26  C10 UNL     1     -24.691  23.747 152.660  1.00  0.00     0.342 A 
ATOM     27  H6  UNL     1     -23.989  22.777 150.974  1.00  0.00     0.175 HD
HETATM   28  O3  UNL     1     -25.885  23.759 152.265  1.00  0.00    -0.246 OA
HETATM   29  N7  UNL     1     -24.350  24.290 153.857  1.00  0.00    -0.141 N 
ATOM     30  H7  UNL     1     -25.081  24.709 154.432  1.00  0.00     0.189 HD
ENDBRANCH  18  20
ENDBRANCH  17  18
ENDBRANCH  16  17
ENDBRANCH   1  16
TORSDOF 7
ENDMDL
MODEL 4
REMARK VINA RESULT: -7.206242801      1.752      4.636
REMARK  7 active torsions:
REMARK  status: ('A' for Active; 'I' for Inactive)
REMARK    1  A    between atoms: N1_1  and  C1_4 
REMARK    2  A    between atoms: C4_9  and  N3_10 
REMARK    3  A    between atoms: C5_12  and  O1_13 
REMARK    4  A    between atoms: O1_13  and  C6_14 
REMARK    5  A    between atoms: C6_14  and  C7_15 
REMARK    6  A    between atoms: C7_15  and  N4_16 
REMARK    7  A    between atoms: N4_16  and  C8_18 
ROOT
HETATM    1  O1  UNL     1     -23.715  24.544 157.171  1.00  0.00    -0.345 OA
ENDROOT
BRANCH   1   2
HETATM    2  C5  UNL     1     -23.768  23.900 155.938  1.00  0.00     0.227 C 
HETATM    3  N3  UNL     1     -24.056  24.634 154.918  1.00  0.00    -0.333 N 
ATOM      4  H3  UNL     1     -24.234  25.632 155.027  1.00  0.00     0.168 HD
BRANCH   3   5
HETATM    5  C4  UNL     1     -24.122  24.022 153.642  1.00  0.00     0.123 A 
HETATM    6  C3  UNL     1     -22.947  23.557 153.049  1.00  0.00     0.066 A 
HETATM    7  C2  UNL     1     -22.961  22.962 151.820  1.00  0.00     0.110 A 
HETATM    8  N2  UNL     1     -24.131  22.822 151.171  1.00  0.00    -0.202 N 
HETATM    9  C1  UNL     1     -25.291  23.268 151.728  1.00  0.00     0.677 A 
ATOM     10  H2  UNL     1     -24.150  22.379 150.253  1.00  0.00     0.183 HD
HETATM   11  N8  UNL     1     -25.246  23.852 152.944  1.00  0.00    -0.177 N 
ATOM     12  H8  UNL     1     -26.120  24.182 153.352  1.00  0.00     0.185 HD
BRANCH   9  13
HETATM   13  N1  UNL     1     -26.407  23.126 151.090  1.00  0.00    -0.234 N 
ATOM     14  H12 UNL     1     -26.430  23.015 150.076  1.00  0.00     0.174 HD
ATOM     15  H11 UNL     1     -27.289  23.124 151.605  1.00  0.00     0.174 HD
ENDBRANCH   9  13
ENDBRANCH   3   5
ENDBRANCH   1   2
BRANCH   1  16
HETATM   16  C6  UNL     1     -24.521  24.069 158.208  1.00  0.00     0.196 C 
BRANCH  16  17
HETATM   17  C7  UNL     1     -25.917  23.834 157.621  1.00  0.00     0.164 C 
BRANCH  17  18
HETATM   18  N4  UNL     1     -26.255  22.443 157.622  1.00  0.00    -0.224 N 
ATOM     19  H4  UNL     1     -26.240  21.949 158.514  1.00  0.00     0.177 HD
BRANCH  18  20
HETATM   20  C8  UNL     1     -26.576  21.776 156.571  1.00  0.00     0.686 A 
HETATM   21  N5  UNL     1     -27.236  22.406 155.562  1.00  0.00    -0.141 N 
HETATM   22  C9  UNL     1     -27.582  21.734 154.454  1.00  0.00     0.342 A 
ATOM     23  H5  UNL     1     -27.469  23.395 155.648  1.00  0.00     0.189 HD
HETATM   24  O2  UNL     1     -28.198  22.346 153.524  1.00  0.00    -0.246 OA
HETATM   25  N6  UNL     1     -27.306  20.430 154.277  1.00  0.00    -0.260 N 
HETATM   26  C10 UNL     1     -26.654  19.798 155.268  1.00  0.00     0.342 A 
ATOM     27  H6  UNL     1     -27.580  19.940 153.425  1.00  0.00     0.175 HD
HETATM   28  O3  UNL     1     -26.379  18.577 155.136  1.00  0.00    -0.246 OA
HETATM   29  N7  UNL     1     -26.300  20.471 156.393  1.00  0.00    -0.141 N 
ATOM     30  H7  UNL     1     -25.806  19.969 157.131  1.00  0.00     0.189 HD
ENDBRANCH  18  20
ENDBRANCH  17  18
ENDBRANCH  16  17
ENDBRANCH   1  16
TORSDOF 7
ENDMDL
MODEL 5
REMARK VINA RESULT: -7.200581026      2.305      3.869
REMARK  7 active torsions:
REMARK  status: ('A' for Active; 'I' for Inactive)
REMARK    1  A    between atoms: N1_1  and  C1_4 
REMARK    2  A    between atoms: C4_9  and  N3_10 
REMARK    3  A    between atoms: C5_12  and  O1_13 
REMARK    4  A    between atoms: O1_13  and  C6_14 
REMARK    5  A    between atoms: C6_14  and  C7_15 
REMARK    6  A    between atoms: C7_15  and  N4_16 
REMARK    7  A    between atoms: N4_16  and  C8_18 
ROOT
HETATM    1  O1  UNL     1     -24.098  24.905 158.275  1.00  0.00    -0.345 OA
ENDROOT
BRANCH   1   2
HETATM    2  C5  UNL     1     -24.903  23.898 157.750  1.00  0.00     0.227 C 
HETATM    3  N3  UNL     1     -25.952  24.277 157.103  1.00  0.00    -0.333 N 
ATOM      4  H3  UNL     1     -26.165  25.269 156.991  1.00  0.00     0.168 HD
BRANCH   3   5
HETATM    5  C4  UNL     1     -26.800  23.288 156.550  1.00  0.00     0.123 A 
HETATM    6  C3  UNL     1     -27.406  22.360 157.399  1.00  0.00     0.066 A 
HETATM    7  C2  UNL     1     -28.232  21.387 156.911  1.00  0.00     0.110 A 
HETATM    8  N2  UNL     1     -28.463  21.325 155.587  1.00  0.00    -0.202 N 
HETATM    9  C1  UNL     1     -27.884  22.218 154.738  1.00  0.00     0.677 A 
ATOM     10  H2  UNL     1     -29.079  20.602 155.215  1.00  0.00     0.183 HD
HETATM   11  N8  UNL     1     -27.073  23.168 155.249  1.00  0.00    -0.177 N 
ATOM     12  H8  UNL     1     -26.644  23.833 154.605  1.00  0.00     0.185 HD
BRANCH   9  13
HETATM   13  N1  UNL     1     -28.117  22.144 153.468  1.00  0.00    -0.234 N 
ATOM     14  H12 UNL     1     -29.060  22.251 153.094  1.00  0.00     0.174 HD
ATOM     15  H11 UNL     1     -27.347  21.975 152.820  1.00  0.00     0.174 HD
ENDBRANCH   9  13
ENDBRANCH   3   5
ENDBRANCH   1   2
BRANCH   1  16
HETATM   16  C6  UNL     1     -22.763  24.972 157.872  1.00  0.00     0.196 C 
BRANCH  16  17
HETATM   17  C7  UNL     1     -22.618  24.070 156.642  1.00  0.00     0.164 C 
BRANCH  17  18
HETATM   18  N4  UNL     1     -22.797  24.809 155.429  1.00  0.00    -0.224 N 
ATOM     19  H4  UNL     1     -22.707  25.824 155.473  1.00  0.00     0.177 HD
BRANCH  18  20
HETATM   20  C8  UNL     1     -23.064  24.278 154.290  1.00  0.00     0.686 A 
HETATM   21  N5  UNL     1     -24.347  24.289 153.838  1.00  0.00    -0.141 N 
HETATM   22  C9  UNL     1     -24.654  23.742 152.652  1.00  0.00     0.342 A 
ATOM     23  H5  UNL     1     -25.081  24.715 154.405  1.00  0.00     0.189 HD
HETATM   24  O2  UNL     1     -25.861  23.765 152.253  1.00  0.00    -0.246 OA
HETATM   25  N6  UNL     1     -23.736  23.165 151.857  1.00  0.00    -0.260 N 
HETATM   26  C10 UNL     1     -22.464  23.150 152.294  1.00  0.00     0.342 A 
ATOM     27  H6  UNL     1     -23.993  22.755 150.959  1.00  0.00     0.175 HD
HETATM   28  O3  UNL     1     -21.579  22.618 151.575  1.00  0.00    -0.246 OA
HETATM   29  N7  UNL     1     -22.145  23.701 153.493  1.00  0.00    -0.141 N 
ATOM     30  H7  UNL     1     -21.173  23.676 153.803  1.00  0.00     0.189 HD
ENDBRANCH  18  20
ENDBRANCH  17  18
ENDBRANCH  16  17
ENDBRANCH   1  16
TORSDOF 7
ENDMDL
