MODEL 1
REMARK VINA RESULT: -7.366051891      0.000      0.000
REMARK  5 active torsions:
REMARK  status: ('A' for Active; 'I' for Inactive)
REMARK    1  A    between atoms: N1_1  and  C1_4 
REMARK    2  A    between atoms: C4_12  and  S1_13 
REMARK    3  A    between atoms: S1_13  and  C5_14 
REMARK    4  A    between atoms: C5_14  and  C6_15 
REMARK    5  A    between atoms: C6_15  and  C7_16 
ROOT
HETATM    1  C1  UNL     1     -27.819  22.684 157.040  1.00  0.00     0.680 A 
HETATM    2  N2  UNL     1     -27.568  21.387 156.840  1.00  0.00    -0.154 N 
ATOM      3  H2  UNL     1     -28.269  20.697 157.112  1.00  0.00     0.187 HD
HETATM    4  C2  UNL     1     -26.420  20.969 156.291  1.00  0.00     0.290 A 
HETATM    5  O1  UNL     1     -26.193  19.751 156.110  1.00  0.00    -0.265 OA
HETATM    6  C3  UNL     1     -25.460  21.921 155.918  1.00  0.00     0.148 A 
HETATM    7  N3  UNL     1     -24.256  21.787 155.387  1.00  0.00    -0.329 N 
ATOM      8  H3  UNL     1     -23.811  20.904 155.136  1.00  0.00     0.168 HD
HETATM    9  C4  UNL     1     -23.698  23.044 155.229  1.00  0.00     0.146 A 
HETATM   10  N6  UNL     1     -24.605  23.895 155.679  1.00  0.00    -0.320 N 
ATOM     11  H6  UNL     1     -24.484  24.908 155.693  1.00  0.00     0.169 HD
HETATM   12  C9  UNL     1     -25.720  23.250 156.120  1.00  0.00     0.155 A 
HETATM   13  N7  UNL     1     -26.879  23.619 156.669  1.00  0.00    -0.174 N 
ATOM     14  H7  UNL     1     -27.071  24.609 156.817  1.00  0.00     0.186 HD
ENDROOT
BRANCH   9  15
HETATM   15  S1  UNL     1     -22.068  23.211 154.563  1.00  0.00    -0.091 SA
BRANCH  15  16
HETATM   16  C5  UNL     1     -20.769  23.422 155.782  1.00  0.00     0.133 C 
BRANCH  16  17
HETATM   17  C6  UNL     1     -20.638  24.901 156.232  1.00  0.00     0.235 A 
HETATM   18  C8  UNL     1     -19.380  25.100 157.113  1.00  0.00     0.283 A 
HETATM   19  N5  UNL     1     -19.511  25.623 155.798  1.00  0.00    -0.052 N 
ATOM     20  H52 UNL     1     -18.923  25.524 154.970  1.00  0.00     0.278 HD
ATOM     21  H51 UNL     1     -19.416  26.572 155.437  1.00  0.00     0.278 HD
BRANCH  17  22
HETATM   22  C7  UNL     1     -21.805  25.546 156.837  1.00  0.00     0.270 C 
HETATM   23  N4  UNL     1     -22.451  25.050 157.992  1.00  0.00    -0.060 NA
HETATM   24  O2  UNL     1     -22.260  26.598 156.319  1.00  0.00    -0.274 OA
ENDBRANCH  17  22
ENDBRANCH  16  17
ENDBRANCH  15  16
ENDBRANCH   9  15
BRANCH   1  25
HETATM   25  N1  UNL     1     -28.911  23.066 157.600  1.00  0.00    -0.234 N 
ATOM     26  H12 UNL     1     -29.583  22.371 157.925  1.00  0.00     0.174 HD
ATOM     27  H11 UNL     1     -29.127  24.058 157.704  1.00  0.00     0.174 HD
ENDBRANCH   1  25
TORSDOF 5
ENDMDL
MODEL 2
REMARK VINA RESULT: -7.302085916      1.446      1.496
REMARK  5 active torsions:
REMARK  status: ('A' for Active; 'I' for Inactive)
REMARK    1  A    between atoms: N1_1  and  C1_4 
REMARK    2  A    between atoms: C4_12  and  S1_13 
REMARK    3  A    between atoms: S1_13  and  C5_14 
REMARK    4  A    between atoms: C5_14  and  C6_15 
REMARK    5  A    between atoms: C6_15  and  C7_16 
ROOT
HETATM    1  C1  UNL     1     -28.064  21.938 157.003  1.00  0.00     0.680 A 
HETATM    2  N2  UNL     1     -28.509  22.082 155.751  1.00  0.00    -0.154 N 
ATOM      3  H2  UNL     1     -29.495  21.910 155.551  1.00  0.00     0.187 HD
HETATM    4  C2  UNL     1     -27.695  22.448 154.753  1.00  0.00     0.290 A 
HETATM    5  O1  UNL     1     -28.122  22.577 153.583  1.00  0.00    -0.265 OA
HETATM    6  C3  UNL     1     -26.341  22.684 155.032  1.00  0.00     0.148 A 
HETATM    7  N3  UNL     1     -25.333  23.027 154.248  1.00  0.00    -0.329 N 
ATOM      8  H3  UNL     1     -25.392  23.197 153.244  1.00  0.00     0.168 HD
HETATM    9  C4  UNL     1     -24.184  23.116 155.014  1.00  0.00     0.146 A 
HETATM   10  N6  UNL     1     -24.555  22.818 156.249  1.00  0.00    -0.320 N 
ATOM     11  H6  UNL     1     -23.923  22.798 157.049  1.00  0.00     0.169 HD
HETATM   12  C9  UNL     1     -25.887  22.540 156.316  1.00  0.00     0.155 A 
HETATM   13  N7  UNL     1     -26.736  22.175 157.278  1.00  0.00    -0.174 N 
ATOM     14  H7  UNL     1     -26.395  22.071 158.234  1.00  0.00     0.186 HD
ENDROOT
BRANCH   9  15
HETATM   15  S1  UNL     1     -22.643  23.532 154.253  1.00  0.00    -0.091 SA
BRANCH  15  16
HETATM   16  C5  UNL     1     -21.209  23.408 155.325  1.00  0.00     0.133 C 
BRANCH  16  17
HETATM   17  C6  UNL     1     -20.892  24.758 156.020  1.00  0.00     0.235 A 
HETATM   18  C8  UNL     1     -19.665  24.623 156.954  1.00  0.00     0.283 A 
HETATM   19  N5  UNL     1     -19.654  25.365 155.743  1.00  0.00    -0.052 N 
ATOM     20  H52 UNL     1     -19.045  25.315 154.926  1.00  0.00     0.278 HD
ATOM     21  H51 UNL     1     -19.406  26.335 155.548  1.00  0.00     0.278 HD
BRANCH  17  22
HETATM   22  C7  UNL     1     -21.985  25.464 156.693  1.00  0.00     0.270 C 
HETATM   23  N4  UNL     1     -22.716  24.910 157.769  1.00  0.00    -0.060 NA
HETATM   24  O2  UNL     1     -22.294  26.621 156.311  1.00  0.00    -0.274 OA
ENDBRANCH  17  22
ENDBRANCH  16  17
ENDBRANCH  15  16
ENDBRANCH   9  15
BRANCH   1  25
HETATM   25  N1  UNL     1     -28.851  21.553 157.943  1.00  0.00    -0.234 N 
ATOM     26  H12 UNL     1     -29.804  21.269 157.720  1.00  0.00     0.174 HD
ATOM     27  H11 UNL     1     -28.542  21.550 158.916  1.00  0.00     0.174 HD
ENDBRANCH   1  25
TORSDOF 5
ENDMDL
MODEL 3
REMARK VINA RESULT: -6.986119986      2.535      3.588
REMARK  5 active torsions:
REMARK  status: ('A' for Active; 'I' for Inactive)
REMARK    1  A    between atoms: N1_1  and  C1_4 
REMARK    2  A    between atoms: C4_12  and  S1_13 
REMARK    3  A    between atoms: S1_13  and  C5_14 
REMARK    4  A    between atoms: C5_14  and  C6_15 
REMARK    5  A    between atoms: C6_15  and  C7_16 
ROOT
HETATM    1  C1  UNL     1     -27.905  22.713 157.030  1.00  0.00     0.680 A 
HETATM    2  N2  UNL     1     -27.707  21.416 156.782  1.00  0.00    -0.154 N 
ATOM      3  H2  UNL     1     -28.445  20.748 157.005  1.00  0.00     0.187 HD
HETATM    4  C2  UNL     1     -26.563  20.968 156.247  1.00  0.00     0.290 A 
HETATM    5  O1  UNL     1     -26.386  19.749 156.022  1.00  0.00    -0.265 OA
HETATM    6  C3  UNL     1     -25.551  21.889 155.942  1.00  0.00     0.148 A 
HETATM    7  N3  UNL     1     -24.339  21.722 155.439  1.00  0.00    -0.329 N 
ATOM      8  H3  UNL     1     -23.927  20.830 155.163  1.00  0.00     0.168 HD
HETATM    9  C4  UNL     1     -23.721  22.957 155.349  1.00  0.00     0.146 A 
HETATM   10  N6  UNL     1     -24.601  23.830 155.810  1.00  0.00    -0.320 N 
ATOM     11  H6  UNL     1     -24.435  24.835 155.870  1.00  0.00     0.169 HD
HETATM   12  C9  UNL     1     -25.757  23.219 156.193  1.00  0.00     0.155 A 
HETATM   13  N7  UNL     1     -26.913  23.618 156.725  1.00  0.00    -0.174 N 
ATOM     14  H7  UNL     1     -27.064  24.610 156.909  1.00  0.00     0.186 HD
ENDROOT
BRANCH   9  15
HETATM   15  S1  UNL     1     -22.066  23.075 154.736  1.00  0.00    -0.091 SA
BRANCH  15  16
HETATM   16  C5  UNL     1     -21.926  23.225 152.953  1.00  0.00     0.133 C 
BRANCH  16  17
HETATM   17  C6  UNL     1     -23.251  22.852 152.239  1.00  0.00     0.235 A 
HETATM   18  C8  UNL     1     -22.981  22.370 150.792  1.00  0.00     0.283 A 
HETATM   19  N5  UNL     1     -23.427  21.515 151.836  1.00  0.00    -0.052 N 
ATOM     20  H52 UNL     1     -23.046  20.644 152.204  1.00  0.00     0.278 HD
ATOM     21  H51 UNL     1     -24.232  20.892 151.900  1.00  0.00     0.278 HD
BRANCH  17  22
HETATM   22  C7  UNL     1     -24.350  23.820 152.269  1.00  0.00     0.270 C 
HETATM   23  N4  UNL     1     -25.676  23.496 151.900  1.00  0.00    -0.060 NA
HETATM   24  O2  UNL     1     -24.119  24.996 152.648  1.00  0.00    -0.274 OA
ENDBRANCH  17  22
ENDBRANCH  16  17
ENDBRANCH  15  16
ENDBRANCH   9  15
BRANCH   1  25
HETATM   25  N1  UNL     1     -28.994  23.123 157.576  1.00  0.00    -0.234 N 
ATOM     26  H12 UNL     1     -29.092  23.097 158.591  1.00  0.00     0.174 HD
ATOM     27  H11 UNL     1     -29.774  23.451 157.006  1.00  0.00     0.174 HD
ENDBRANCH   1  25
TORSDOF 5
ENDMDL
MODEL 4
REMARK VINA RESULT: -6.985770269      1.435      1.911
REMARK  5 active torsions:
REMARK  status: ('A' for Active; 'I' for Inactive)
REMARK    1  A    between atoms: N1_1  and  C1_4 
REMARK    2  A    between atoms: C4_12  and  S1_13 
REMARK    3  A    between atoms: S1_13  and  C5_14 
REMARK    4  A    between atoms: C5_14  and  C6_15 
REMARK    5  A    between atoms: C6_15  and  C7_16 
ROOT
HETATM    1  C1  UNL     1     -28.098  20.543 155.883  1.00  0.00     0.680 A 
HETATM    2  N2  UNL     1     -28.028  21.347 156.949  1.00  0.00    -0.154 N 
ATOM      3  H2  UNL     1     -28.802  21.359 157.614  1.00  0.00     0.187 HD
HETATM    4  C2  UNL     1     -26.969  22.137 157.165  1.00  0.00     0.290 A 
HETATM    5  O1  UNL     1     -26.915  22.888 158.166  1.00  0.00    -0.265 OA
HETATM    6  C3  UNL     1     -25.908  22.116 156.249  1.00  0.00     0.148 A 
HETATM    7  N3  UNL     1     -24.774  22.797 156.208  1.00  0.00    -0.329 N 
ATOM      8  H3  UNL     1     -24.468  23.484 156.896  1.00  0.00     0.168 HD
HETATM    9  C4  UNL     1     -24.072  22.422 155.076  1.00  0.00     0.146 A 
HETATM   10  N6  UNL     1     -24.825  21.517 154.472  1.00  0.00    -0.320 N 
ATOM     11  H6  UNL     1     -24.573  21.048 153.602  1.00  0.00     0.169 HD
HETATM   12  C9  UNL     1     -25.979  21.290 155.160  1.00  0.00     0.155 A 
HETATM   13  N7  UNL     1     -27.055  20.520 154.986  1.00  0.00    -0.174 N 
ATOM     14  H7  UNL     1     -27.104  19.903 154.175  1.00  0.00     0.186 HD
ENDROOT
BRANCH   9  15
HETATM   15  S1  UNL     1     -22.514  23.175 154.712  1.00  0.00    -0.091 SA
BRANCH  15  16
HETATM   16  C5  UNL     1     -21.304  23.094 156.035  1.00  0.00     0.133 C 
BRANCH  16  17
HETATM   17  C6  UNL     1     -21.009  24.495 156.631  1.00  0.00     0.235 A 
HETATM   18  C8  UNL     1     -20.069  24.386 157.857  1.00  0.00     0.283 A 
HETATM   19  N5  UNL     1     -19.678  24.950 156.612  1.00  0.00    -0.052 N 
ATOM     20  H52 UNL     1     -18.899  24.735 155.989  1.00  0.00     0.278 HD
ATOM     21  H51 UNL     1     -19.278  25.859 156.379  1.00  0.00     0.278 HD
BRANCH  17  22
HETATM   22  C7  UNL     1     -22.142  25.378 156.919  1.00  0.00     0.270 C 
HETATM   23  N4  UNL     1     -23.144  25.066 157.865  1.00  0.00    -0.060 NA
HETATM   24  O2  UNL     1     -22.235  26.473 156.308  1.00  0.00    -0.274 OA
ENDBRANCH  17  22
ENDBRANCH  16  17
ENDBRANCH  15  16
ENDBRANCH   9  15
BRANCH   1  25
HETATM   25  N1  UNL     1     -29.138  19.817 155.671  1.00  0.00    -0.234 N 
ATOM     26  H12 UNL     1     -29.040  18.805 155.596  1.00  0.00     0.174 HD
ATOM     27  H11 UNL     1     -30.058  20.242 155.552  1.00  0.00     0.174 HD
ENDBRANCH   1  25
TORSDOF 5
ENDMDL
MODEL 5
REMARK VINA RESULT: -6.892673480      2.639      3.031
REMARK  5 active torsions:
REMARK  status: ('A' for Active; 'I' for Inactive)
REMARK    1  A    between atoms: N1_1  and  C1_4 
REMARK    2  A    between atoms: C4_12  and  S1_13 
REMARK    3  A    between atoms: S1_13  and  C5_14 
REMARK    4  A    between atoms: C5_14  and  C6_15 
REMARK    5  A    between atoms: C6_15  and  C7_16 
ROOT
HETATM    1  C1  UNL     1     -27.911  22.403 156.665  1.00  0.00     0.680 A 
HETATM    2  N2  UNL     1     -27.258  21.254 156.862  1.00  0.00    -0.154 N 
ATOM      3  H2  UNL     1     -27.471  20.696 157.690  1.00  0.00     0.187 HD
HETATM    4  C2  UNL     1     -26.332  20.815 156.000  1.00  0.00     0.290 A 
HETATM    5  O1  UNL     1     -25.723  19.739 156.196  1.00  0.00    -0.265 OA
HETATM    6  C3  UNL     1     -26.043  21.585 154.864  1.00  0.00     0.148 A 
HETATM    7  N3  UNL     1     -25.176  21.403 153.882  1.00  0.00    -0.329 N 
ATOM      8  H3  UNL     1     -24.543  20.608 153.786  1.00  0.00     0.168 HD
HETATM    9  C4  UNL     1     -25.267  22.470 153.006  1.00  0.00     0.146 A 
HETATM   10  N6  UNL     1     -26.200  23.263 153.506  1.00  0.00    -0.320 N 
ATOM     11  H6  UNL     1     -26.497  24.140 153.079  1.00  0.00     0.169 HD
HETATM   12  C9  UNL     1     -26.716  22.760 154.662  1.00  0.00     0.155 A 
HETATM   13  N7  UNL     1     -27.632  23.156 155.547  1.00  0.00    -0.174 N 
ATOM     14  H7  UNL     1     -28.133  24.030 155.393  1.00  0.00     0.186 HD
ENDROOT
BRANCH   9  15
HETATM   15  S1  UNL     1     -24.211  22.544 151.589  1.00  0.00    -0.091 SA
BRANCH  15  16
HETATM   16  C5  UNL     1     -22.536  21.961 151.859  1.00  0.00     0.133 C 
BRANCH  16  17
HETATM   17  C6  UNL     1     -21.680  23.004 152.623  1.00  0.00     0.235 A 
HETATM   18  C8  UNL     1     -20.172  22.793 152.344  1.00  0.00     0.283 A 
HETATM   19  N5  UNL     1     -20.912  23.908 151.866  1.00  0.00    -0.052 N 
ATOM     20  H52 UNL     1     -21.042  24.279 150.924  1.00  0.00     0.278 HD
ATOM     21  H51 UNL     1     -20.760  24.911 151.964  1.00  0.00     0.278 HD
BRANCH  17  22
HETATM   22  C7  UNL     1     -21.924  23.183 154.057  1.00  0.00     0.270 C 
HETATM   23  N4  UNL     1     -21.841  24.437 154.705  1.00  0.00    -0.060 NA
HETATM   24  O2  UNL     1     -22.231  22.183 154.755  1.00  0.00    -0.274 OA
ENDBRANCH  17  22
ENDBRANCH  16  17
ENDBRANCH  15  16
ENDBRANCH   9  15
BRANCH   1  25
HETATM   25  N1  UNL     1     -28.773  22.827 157.520  1.00  0.00    -0.234 N 
ATOM     26  H12 UNL     1     -29.084  22.213 158.272  1.00  0.00     0.174 HD
ATOM     27  H11 UNL     1     -29.170  23.764 157.442  1.00  0.00     0.174 HD
ENDBRANCH   1  25
TORSDOF 5
ENDMDL
