MODEL 1
REMARK VINA RESULT: -5.817247613      0.000      0.000
REMARK  13 active torsions:
REMARK  status: ('A' for Active; 'I' for Inactive)
REMARK    1  A    between atoms: C2_2  and  C3_3 
REMARK    2  A    between atoms: C3_3  and  N1_4 
REMARK    3  A    between atoms: N1_4  and  C4_7 
REMARK    4  A    between atoms: C4_7  and  C5_8 
REMARK    5  A    between atoms: C5_8  and  O1_9 
REMARK    6  A    between atoms: C5_8  and  N2_11 
REMARK    7  A    between atoms: C6_12  and  C7_13 
REMARK    8  A    between atoms: C7_13  and  C8_14 
REMARK       I    between atoms: C8_14  and  N3_16 
REMARK    9  A    between atoms: N3_16  and  C9_18 
REMARK   10  A    between atoms: C9_18  and  C10_19 
REMARK   11  A    between atoms: C9_18  and  C13_24 
REMARK   12  A    between atoms: C10_19  and  C11_20 
REMARK   13  A    between atoms: C11_20  and  C12_21 
REMARK       I    between atoms: N6_29  and  C16_30 
ROOT
HETATM    1  N2  UNL     1      32.892  11.747  28.242  1.00  0.00    -0.263 N 
HETATM    2  C6  UNL     1      32.382  11.691  29.566  1.00  0.00     0.121 C 
HETATM    3  C14 UNL     1      33.272  12.659  30.380  1.00  0.00     0.049 C 
HETATM    4  C15 UNL     1      33.785  13.618  29.314  1.00  0.00     0.154 C 
HETATM    5  N6  UNL     1      33.784  12.850  28.112  1.00  0.00    -0.261 N 
HETATM    6  C16 UNL     1      34.604  13.191  26.995  1.00  0.00     0.203 C 
HETATM    7  N7  UNL     1      34.225  14.130  26.230  1.00  0.00    -0.372 N 
ATOM      8  H71 UNL     1      34.811  14.374  25.431  1.00  0.00     0.158 HD
ATOM      9  H72 UNL     1      33.369  14.674  26.341  1.00  0.00     0.158 HD
HETATM   10  N8  UNL     1      35.793  12.435  26.839  1.00  0.00    -0.062 NA
ENDROOT
BRANCH   2  11
HETATM   11  C7  UNL     1      30.983  12.222  29.773  1.00  0.00     0.130 C 
BRANCH  11  12
HETATM   12  C8  UNL     1      30.075  11.100  30.058  1.00  0.00     0.220 C 
HETATM   13  O2  UNL     1      30.236  10.362  31.040  1.00  0.00    -0.274 OA
HETATM   14  N3  UNL     1      28.956  10.790  29.210  1.00  0.00    -0.348 N 
ATOM     15  H3  UNL     1      28.781  11.351  28.376  1.00  0.00     0.163 HD
BRANCH  14  16
HETATM   16  C9  UNL     1      28.061   9.669  29.537  1.00  0.00     0.174 C 
BRANCH  16  17
HETATM   17  C10 UNL     1      28.282   8.602  28.482  1.00  0.00     0.043 C 
BRANCH  17  18
HETATM   18  C11 UNL     1      29.140   7.458  28.886  1.00  0.00     0.102 C 
BRANCH  18  19
HETATM   19  C12 UNL     1      30.526   7.703  28.344  1.00  0.00     0.231 C 
HETATM   20  N4  UNL     1      30.757   7.675  26.951  1.00  0.00    -0.062 NA
HETATM   21  O3  UNL     1      31.446   7.923  29.144  1.00  0.00    -0.277 OA
ENDBRANCH  18  19
ENDBRANCH  17  18
ENDBRANCH  16  17
BRANCH  16  22
HETATM   22  C13 UNL     1      26.708  10.149  29.679  1.00  0.00     0.254 C 
HETATM   23  N5  UNL     1      25.608   9.520  29.036  1.00  0.00    -0.060 NA
HETATM   24  O4  UNL     1      26.503  11.181  30.420  1.00  0.00    -0.275 OA
ENDBRANCH  16  22
ENDBRANCH  14  16
ENDBRANCH  11  12
ENDBRANCH   2  11
BRANCH   1  25
HETATM   25  C5  UNL     1      32.668  10.873  27.178  1.00  0.00     0.170 C 
BRANCH  25  26
HETATM   26  C4  UNL     1      31.914  11.058  25.927  1.00  0.00     0.191 A 
HETATM   27  C17 UNL     1      31.187  12.295  25.609  1.00  0.00     0.050 A 
HETATM   28  C18 UNL     1      30.430  11.109  26.119  1.00  0.00     0.050 A 
BRANCH  26  29
HETATM   29  N1  UNL     1      32.418  10.329  24.768  1.00  0.00    -0.056 N 
ATOM     30  H12 UNL     1      31.666   9.880  24.246  1.00  0.00     0.279 HD
ATOM     31  H11 UNL     1      32.933   9.492  25.041  1.00  0.00     0.279 HD
BRANCH  29  32
HETATM   32  C3  UNL     1      33.216  11.209  23.923  1.00  0.00     0.260 C 
BRANCH  32  33
HETATM   33  C2  UNL     1      32.827  10.951  22.509  1.00  0.00    -0.010 C 
HETATM   34  C1  UNL     1      31.591  10.681  22.142  1.00  0.00     0.008 C 
ENDBRANCH  32  33
ENDBRANCH  29  32
ENDBRANCH  26  29
ENDBRANCH  25  26
BRANCH  25  35
HETATM   35  O1  UNL     1      33.184   9.669  27.248  1.00  0.00    -0.346 OA
ATOM     36  H1  UNL     1      32.507   9.010  27.351  1.00  0.00     0.219 HD
ENDBRANCH  25  35
ENDBRANCH   1  25
TORSDOF 13
ENDMDL
MODEL 2
REMARK VINA RESULT: -5.770891785      1.830      2.247
REMARK  13 active torsions:
REMARK  status: ('A' for Active; 'I' for Inactive)
REMARK    1  A    between atoms: C2_2  and  C3_3 
REMARK    2  A    between atoms: C3_3  and  N1_4 
REMARK    3  A    between atoms: N1_4  and  C4_7 
REMARK    4  A    between atoms: C4_7  and  C5_8 
REMARK    5  A    between atoms: C5_8  and  O1_9 
REMARK    6  A    between atoms: C5_8  and  N2_11 
REMARK    7  A    between atoms: C6_12  and  C7_13 
REMARK    8  A    between atoms: C7_13  and  C8_14 
REMARK       I    between atoms: C8_14  and  N3_16 
REMARK    9  A    between atoms: N3_16  and  C9_18 
REMARK   10  A    between atoms: C9_18  and  C10_19 
REMARK   11  A    between atoms: C9_18  and  C13_24 
REMARK   12  A    between atoms: C10_19  and  C11_20 
REMARK   13  A    between atoms: C11_20  and  C12_21 
REMARK       I    between atoms: N6_29  and  C16_30 
ROOT
HETATM    1  N2  UNL     1      31.935  11.285  29.633  1.00  0.00    -0.263 N 
HETATM    2  C6  UNL     1      31.608  10.419  30.711  1.00  0.00     0.121 C 
HETATM    3  C14 UNL     1      32.715  10.656  31.765  1.00  0.00     0.049 C 
HETATM    4  C15 UNL     1      33.192  12.065  31.438  1.00  0.00     0.154 C 
HETATM    5  N6  UNL     1      32.930  12.217  30.045  1.00  0.00    -0.261 N 
HETATM    6  C16 UNL     1      33.624  13.173  29.243  1.00  0.00     0.203 C 
HETATM    7  N7  UNL     1      33.263  14.388  29.301  1.00  0.00    -0.372 N 
ATOM      8  H71 UNL     1      33.759  15.070  28.728  1.00  0.00     0.158 HD
ATOM      9  H72 UNL     1      32.505  14.752  29.878  1.00  0.00     0.158 HD
HETATM   10  N8  UNL     1      34.677  12.667  28.440  1.00  0.00    -0.062 NA
ENDROOT
BRANCH   2  11
HETATM   11  C7  UNL     1      30.328  10.719  31.455  1.00  0.00     0.130 C 
BRANCH  11  12
HETATM   12  C8  UNL     1      29.237   9.911  30.889  1.00  0.00     0.220 C 
HETATM   13  O2  UNL     1      28.152   9.778  31.472  1.00  0.00    -0.274 OA
HETATM   14  N3  UNL     1      29.370   9.223  29.634  1.00  0.00    -0.348 N 
ATOM     15  H3  UNL     1      30.246   9.279  29.115  1.00  0.00     0.163 HD
BRANCH  14  16
HETATM   16  C9  UNL     1      28.250   8.437  29.093  1.00  0.00     0.174 C 
BRANCH  16  17
HETATM   17  C10 UNL     1      28.846   7.207  28.437  1.00  0.00     0.043 C 
BRANCH  17  18
HETATM   18  C11 UNL     1      29.324   6.146  29.361  1.00  0.00     0.102 C 
BRANCH  18  19
HETATM   19  C12 UNL     1      30.541   5.503  28.742  1.00  0.00     0.231 C 
HETATM   20  N4  UNL     1      30.416   4.287  28.034  1.00  0.00    -0.062 NA
HETATM   21  O3  UNL     1      31.639   6.062  28.872  1.00  0.00    -0.277 OA
ENDBRANCH  18  19
ENDBRANCH  17  18
ENDBRANCH  16  17
BRANCH  16  22
HETATM   22  C13 UNL     1      27.430   9.271  28.247  1.00  0.00     0.254 C 
HETATM   23  N5  UNL     1      26.072   8.964  27.967  1.00  0.00    -0.060 NA
HETATM   24  O4  UNL     1      27.959  10.328  27.739  1.00  0.00    -0.275 OA
ENDBRANCH  16  22
ENDBRANCH  14  16
ENDBRANCH  11  12
ENDBRANCH   2  11
BRANCH   1  25
HETATM   25  C5  UNL     1      31.459  11.270  28.322  1.00  0.00     0.170 C 
BRANCH  25  26
HETATM   26  C4  UNL     1      31.950  10.557  27.132  1.00  0.00     0.191 A 
HETATM   27  C17 UNL     1      31.067   9.795  26.238  1.00  0.00     0.050 A 
HETATM   28  C18 UNL     1      31.890   9.067  27.254  1.00  0.00     0.050 A 
BRANCH  26  29
HETATM   29  N1  UNL     1      33.125  11.133  26.486  1.00  0.00    -0.056 N 
ATOM     30  H12 UNL     1      33.798  10.417  26.214  1.00  0.00     0.279 HD
ATOM     31  H11 UNL     1      33.708  11.646  27.147  1.00  0.00     0.279 HD
BRANCH  29  32
HETATM   32  C3  UNL     1      32.727  11.963  25.356  1.00  0.00     0.260 C 
BRANCH  32  33
HETATM   33  C2  UNL     1      33.598  11.604  24.203  1.00  0.00    -0.010 C 
HETATM   34  C1  UNL     1      33.289  10.660  23.336  1.00  0.00     0.008 C 
ENDBRANCH  32  33
ENDBRANCH  29  32
ENDBRANCH  26  29
ENDBRANCH  25  26
BRANCH  25  35
HETATM   35  O1  UNL     1      30.406  11.999  28.040  1.00  0.00    -0.346 OA
ATOM     36  H1  UNL     1      30.481  12.394  27.178  1.00  0.00     0.219 HD
ENDBRANCH  25  35
ENDBRANCH   1  25
TORSDOF 13
ENDMDL
MODEL 3
REMARK VINA RESULT: -5.678854155      2.020      4.423
REMARK  13 active torsions:
REMARK  status: ('A' for Active; 'I' for Inactive)
REMARK    1  A    between atoms: C2_2  and  C3_3 
REMARK    2  A    between atoms: C3_3  and  N1_4 
REMARK    3  A    between atoms: N1_4  and  C4_7 
REMARK    4  A    between atoms: C4_7  and  C5_8 
REMARK    5  A    between atoms: C5_8  and  O1_9 
REMARK    6  A    between atoms: C5_8  and  N2_11 
REMARK    7  A    between atoms: C6_12  and  C7_13 
REMARK    8  A    between atoms: C7_13  and  C8_14 
REMARK       I    between atoms: C8_14  and  N3_16 
REMARK    9  A    between atoms: N3_16  and  C9_18 
REMARK   10  A    between atoms: C9_18  and  C10_19 
REMARK   11  A    between atoms: C9_18  and  C13_24 
REMARK   12  A    between atoms: C10_19  and  C11_20 
REMARK   13  A    between atoms: C11_20  and  C12_21 
REMARK       I    between atoms: N6_29  and  C16_30 
ROOT
HETATM    1  N2  UNL     1      32.305  11.687  26.558  1.00  0.00    -0.263 N 
HETATM    2  C6  UNL     1      31.436  10.568  26.438  1.00  0.00     0.121 C 
HETATM    3  C14 UNL     1      31.269  10.352  24.916  1.00  0.00     0.049 C 
HETATM    4  C15 UNL     1      32.539  10.972  24.348  1.00  0.00     0.154 C 
HETATM    5  N6  UNL     1      32.904  11.972  25.297  1.00  0.00    -0.261 N 
HETATM    6  C16 UNL     1      33.735  13.079  24.950  1.00  0.00     0.203 C 
HETATM    7  N7  UNL     1      34.988  12.894  24.872  1.00  0.00    -0.372 N 
ATOM      8  H71 UNL     1      35.582  13.685  24.623  1.00  0.00     0.158 HD
ATOM      9  H72 UNL     1      35.466  12.009  25.039  1.00  0.00     0.158 HD
HETATM   10  N8  UNL     1      33.071  14.310  24.717  1.00  0.00    -0.062 NA
ENDROOT
BRANCH   2  11
HETATM   11  C7  UNL     1      31.967   9.245  26.937  1.00  0.00     0.130 C 
BRANCH  11  12
HETATM   12  C8  UNL     1      31.140   8.784  28.063  1.00  0.00     0.220 C 
HETATM   13  O2  UNL     1      31.603   8.661  29.206  1.00  0.00    -0.274 OA
HETATM   14  N3  UNL     1      29.753   8.441  27.901  1.00  0.00    -0.348 N 
ATOM     15  H3  UNL     1      29.320   8.505  26.980  1.00  0.00     0.163 HD
BRANCH  14  16
HETATM   16  C9  UNL     1      28.955   7.999  29.055  1.00  0.00     0.174 C 
BRANCH  16  17
HETATM   17  C10 UNL     1      28.762   6.502  28.914  1.00  0.00     0.043 C 
BRANCH  17  18
HETATM   18  C11 UNL     1      29.751   5.650  29.624  1.00  0.00     0.102 C 
BRANCH  18  19
HETATM   19  C12 UNL     1      30.604   4.963  28.587  1.00  0.00     0.231 C 
HETATM   20  N4  UNL     1      31.967   5.308  28.451  1.00  0.00    -0.062 NA
HETATM   21  O3  UNL     1      30.083   4.101  27.865  1.00  0.00    -0.277 OA
ENDBRANCH  18  19
ENDBRANCH  17  18
ENDBRANCH  16  17
BRANCH  16  22
HETATM   22  C13 UNL     1      27.750   8.788  29.147  1.00  0.00     0.254 C 
HETATM   23  N5  UNL     1      26.884   8.981  28.037  1.00  0.00    -0.060 NA
HETATM   24  O4  UNL     1      27.459   9.326  30.278  1.00  0.00    -0.275 OA
ENDBRANCH  16  22
ENDBRANCH  14  16
ENDBRANCH  11  12
ENDBRANCH   2  11
BRANCH   1  25
HETATM   25  C5  UNL     1      32.555  12.487  27.672  1.00  0.00     0.170 C 
BRANCH  25  26
HETATM   26  C4  UNL     1      33.419  12.260  28.842  1.00  0.00     0.191 A 
HETATM   27  C17 UNL     1      34.265  13.310  29.425  1.00  0.00     0.050 A 
HETATM   28  C18 UNL     1      34.882  12.285  28.525  1.00  0.00     0.050 A 
BRANCH  26  29
HETATM   29  N1  UNL     1      32.952  11.255  29.790  1.00  0.00    -0.056 N 
ATOM     30  H12 UNL     1      33.703  10.627  30.078  1.00  0.00     0.279 HD
ATOM     31  H11 UNL     1      32.342  10.568  29.347  1.00  0.00     0.279 HD
BRANCH  29  32
HETATM   32  C3  UNL     1      32.310  11.894  30.933  1.00  0.00     0.260 C 
BRANCH  32  33
HETATM   33  C2  UNL     1      32.828  11.239  32.166  1.00  0.00    -0.010 C 
HETATM   34  C1  UNL     1      34.033  10.710  32.247  1.00  0.00     0.008 C 
ENDBRANCH  32  33
ENDBRANCH  29  32
ENDBRANCH  26  29
ENDBRANCH  25  26
BRANCH  25  35
HETATM   35  O1  UNL     1      31.942  13.644  27.751  1.00  0.00    -0.346 OA
ATOM     36  H1  UNL     1      31.498  13.743  28.586  1.00  0.00     0.219 HD
ENDBRANCH  25  35
ENDBRANCH   1  25
TORSDOF 13
ENDMDL
MODEL 4
REMARK VINA RESULT: -5.669460506      1.824      2.266
REMARK  13 active torsions:
REMARK  status: ('A' for Active; 'I' for Inactive)
REMARK    1  A    between atoms: C2_2  and  C3_3 
REMARK    2  A    between atoms: C3_3  and  N1_4 
REMARK    3  A    between atoms: N1_4  and  C4_7 
REMARK    4  A    between atoms: C4_7  and  C5_8 
REMARK    5  A    between atoms: C5_8  and  O1_9 
REMARK    6  A    between atoms: C5_8  and  N2_11 
REMARK    7  A    between atoms: C6_12  and  C7_13 
REMARK    8  A    between atoms: C7_13  and  C8_14 
REMARK       I    between atoms: C8_14  and  N3_16 
REMARK    9  A    between atoms: N3_16  and  C9_18 
REMARK   10  A    between atoms: C9_18  and  C10_19 
REMARK   11  A    between atoms: C9_18  and  C13_24 
REMARK   12  A    between atoms: C10_19  and  C11_20 
REMARK   13  A    between atoms: C11_20  and  C12_21 
REMARK       I    between atoms: N6_29  and  C16_30 
ROOT
HETATM    1  N2  UNL     1      32.333  11.382  29.986  1.00  0.00    -0.263 N 
HETATM    2  C6  UNL     1      31.623  10.618  30.950  1.00  0.00     0.121 C 
HETATM    3  C14 UNL     1      32.453  10.740  32.249  1.00  0.00     0.049 C 
HETATM    4  C15 UNL     1      33.200  12.052  32.047  1.00  0.00     0.154 C 
HETATM    5  N6  UNL     1      33.321  12.180  30.632  1.00  0.00    -0.261 N 
HETATM    6  C16 UNL     1      34.327  12.992  30.028  1.00  0.00     0.203 C 
HETATM    7  N7  UNL     1      34.147  14.248  29.986  1.00  0.00    -0.372 N 
ATOM      8  H71 UNL     1      34.866  14.828  29.555  1.00  0.00     0.158 HD
ATOM      9  H72 UNL     1      33.332  14.740  30.351  1.00  0.00     0.158 HD
HETATM   10  N8  UNL     1      35.460  12.308  29.520  1.00  0.00    -0.062 NA
ENDROOT
BRANCH   2  11
HETATM   11  C7  UNL     1      30.256  11.129  31.343  1.00  0.00     0.130 C 
BRANCH  11  12
HETATM   12  C8  UNL     1      29.230  10.198  30.850  1.00  0.00     0.220 C 
HETATM   13  O2  UNL     1      28.230   9.912  31.523  1.00  0.00    -0.274 OA
HETATM   14  N3  UNL     1      29.332   9.560  29.566  1.00  0.00    -0.348 N 
ATOM     15  H3  UNL     1      30.142   9.742  28.973  1.00  0.00     0.163 HD
BRANCH  14  16
HETATM   16  C9  UNL     1      28.276   8.647  29.101  1.00  0.00     0.174 C 
BRANCH  16  17
HETATM   17  C10 UNL     1      28.967   7.454  28.469  1.00  0.00     0.043 C 
BRANCH  17  18
HETATM   18  C11 UNL     1      30.122   6.900  29.222  1.00  0.00     0.102 C 
BRANCH  18  19
HETATM   19  C12 UNL     1      31.353   7.049  28.363  1.00  0.00     0.231 C 
HETATM   20  N4  UNL     1      31.461   8.134  27.464  1.00  0.00    -0.062 NA
HETATM   21  O3  UNL     1      32.255   6.206  28.464  1.00  0.00    -0.277 OA
ENDBRANCH  18  19
ENDBRANCH  17  18
ENDBRANCH  16  17
BRANCH  16  22
HETATM   22  C13 UNL     1      27.348   9.361  28.258  1.00  0.00     0.254 C 
HETATM   23  N5  UNL     1      26.042   8.874  27.986  1.00  0.00    -0.060 NA
HETATM   24  O4  UNL     1      27.728  10.477  27.743  1.00  0.00    -0.275 OA
ENDBRANCH  16  22
ENDBRANCH  14  16
ENDBRANCH  11  12
ENDBRANCH   2  11
BRANCH   1  25
HETATM   25  C5  UNL     1      32.203  11.380  28.597  1.00  0.00     0.170 C 
BRANCH  25  26
HETATM   26  C4  UNL     1      31.235  12.062  27.723  1.00  0.00     0.191 A 
HETATM   27  C17 UNL     1      31.436  13.427  27.220  1.00  0.00     0.050 A 
HETATM   28  C18 UNL     1      30.522  13.200  28.384  1.00  0.00     0.050 A 
BRANCH  26  29
HETATM   29  N1  UNL     1      30.454  11.196  26.846  1.00  0.00    -0.056 N 
ATOM     30  H12 UNL     1      29.472  11.164  27.121  1.00  0.00     0.279 HD
ATOM     31  H11 UNL     1      30.682  10.211  26.982  1.00  0.00     0.279 HD
BRANCH  29  32
HETATM   32  C3  UNL     1      30.615  11.604  25.456  1.00  0.00     0.260 C 
BRANCH  32  33
HETATM   33  C2  UNL     1      31.364  10.526  24.753  1.00  0.00    -0.010 C 
HETATM   34  C1  UNL     1      32.633  10.637  24.413  1.00  0.00     0.008 C 
ENDBRANCH  32  33
ENDBRANCH  29  32
ENDBRANCH  26  29
ENDBRANCH  25  26
BRANCH  25  35
HETATM   35  O1  UNL     1      33.053  10.665  27.899  1.00  0.00    -0.346 OA
ATOM     36  H1  UNL     1      33.949  10.837  28.166  1.00  0.00     0.219 HD
ENDBRANCH  25  35
ENDBRANCH   1  25
TORSDOF 13
ENDMDL
MODEL 5
REMARK VINA RESULT: -5.619155382      2.462      5.681
REMARK  13 active torsions:
REMARK  status: ('A' for Active; 'I' for Inactive)
REMARK    1  A    between atoms: C2_2  and  C3_3 
REMARK    2  A    between atoms: C3_3  and  N1_4 
REMARK    3  A    between atoms: N1_4  and  C4_7 
REMARK    4  A    between atoms: C4_7  and  C5_8 
REMARK    5  A    between atoms: C5_8  and  O1_9 
REMARK    6  A    between atoms: C5_8  and  N2_11 
REMARK    7  A    between atoms: C6_12  and  C7_13 
REMARK    8  A    between atoms: C7_13  and  C8_14 
REMARK       I    between atoms: C8_14  and  N3_16 
REMARK    9  A    between atoms: N3_16  and  C9_18 
REMARK   10  A    between atoms: C9_18  and  C10_19 
REMARK   11  A    between atoms: C9_18  and  C13_24 
REMARK   12  A    between atoms: C10_19  and  C11_20 
REMARK   13  A    between atoms: C11_20  and  C12_21 
REMARK       I    between atoms: N6_29  and  C16_30 
ROOT
HETATM    1  N2  UNL     1      32.397  11.892  28.519  1.00  0.00    -0.263 N 
HETATM    2  C6  UNL     1      31.607  10.830  28.003  1.00  0.00     0.121 C 
HETATM    3  C14 UNL     1      30.603  11.507  27.041  1.00  0.00     0.049 C 
HETATM    4  C15 UNL     1      31.330  12.785  26.645  1.00  0.00     0.154 C 
HETATM    5  N6  UNL     1      32.176  13.075  27.756  1.00  0.00    -0.261 N 
HETATM    6  C16 UNL     1      32.670  14.389  28.010  1.00  0.00     0.203 C 
HETATM    7  N7  UNL     1      33.655  14.809  27.329  1.00  0.00    -0.372 N 
ATOM      8  H71 UNL     1      34.008  15.748  27.511  1.00  0.00     0.158 HD
ATOM      9  H72 UNL     1      34.138  14.280  26.603  1.00  0.00     0.158 HD
HETATM   10  N8  UNL     1      31.999  15.124  29.021  1.00  0.00    -0.062 NA
ENDROOT
BRANCH   2  11
HETATM   11  C7  UNL     1      32.319   9.820  27.133  1.00  0.00     0.130 C 
BRANCH  11  12
HETATM   12  C8  UNL     1      31.581   8.548  27.163  1.00  0.00     0.220 C 
HETATM   13  O2  UNL     1      30.756   8.251  26.288  1.00  0.00    -0.274 OA
HETATM   14  N3  UNL     1      31.766   7.582  28.212  1.00  0.00    -0.348 N 
ATOM     15  H3  UNL     1      32.419   7.777  28.971  1.00  0.00     0.163 HD
BRANCH  14  16
HETATM   16  C9  UNL     1      31.021   6.314  28.198  1.00  0.00     0.174 C 
BRANCH  16  17
HETATM   17  C10 UNL     1      29.935   6.425  29.250  1.00  0.00     0.043 C 
BRANCH  17  18
HETATM   18  C11 UNL     1      28.756   7.251  28.882  1.00  0.00     0.102 C 
BRANCH  18  19
HETATM   19  C12 UNL     1      28.737   8.463  29.780  1.00  0.00     0.231 C 
HETATM   20  N4  UNL     1      27.517   9.120  30.055  1.00  0.00    -0.062 NA
HETATM   21  O3  UNL     1      29.806   8.862  30.262  1.00  0.00    -0.277 OA
ENDBRANCH  18  19
ENDBRANCH  17  18
ENDBRANCH  16  17
BRANCH  16  22
HETATM   22  C13 UNL     1      31.935   5.207  28.345  1.00  0.00     0.254 C 
HETATM   23  N5  UNL     1      31.505   3.918  28.757  1.00  0.00    -0.060 NA
HETATM   24  O4  UNL     1      33.180   5.408  28.088  1.00  0.00    -0.275 OA
ENDBRANCH  16  22
ENDBRANCH  14  16
ENDBRANCH  11  12
ENDBRANCH   2  11
BRANCH   1  25
HETATM   25  C5  UNL     1      33.241  11.898  29.629  1.00  0.00     0.170 C 
BRANCH  25  26
HETATM   26  C4  UNL     1      32.935  11.984  31.066  1.00  0.00     0.191 A 
HETATM   27  C17 UNL     1      33.767  11.351  32.098  1.00  0.00     0.050 A 
HETATM   28  C18 UNL     1      32.497  10.685  31.668  1.00  0.00     0.050 A 
BRANCH  26  29
HETATM   29  N1  UNL     1      32.242  13.193  31.497  1.00  0.00    -0.056 N 
ATOM     30  H12 UNL     1      31.441  12.980  32.091  1.00  0.00     0.279 HD
ATOM     31  H11 UNL     1      31.744  13.640  30.726  1.00  0.00     0.279 HD
BRANCH  29  32
HETATM   32  C3  UNL     1      33.173  14.108  32.145  1.00  0.00     0.260 C 
BRANCH  32  33
HETATM   33  C2  UNL     1      32.373  15.062  32.963  1.00  0.00    -0.010 C 
HETATM   34  C1  UNL     1      31.921  14.773  34.167  1.00  0.00     0.008 C 
ENDBRANCH  32  33
ENDBRANCH  29  32
ENDBRANCH  26  29
ENDBRANCH  25  26
BRANCH  25  35
HETATM   35  O1  UNL     1      34.535  11.825  29.421  1.00  0.00    -0.346 OA
ATOM     36  H1  UNL     1      34.779  12.257  28.611  1.00  0.00     0.219 HD
ENDBRANCH  25  35
ENDBRANCH   1  25
TORSDOF 13
ENDMDL
