MODEL 1
REMARK VINA RESULT: -6.288623027      0.000      0.000
REMARK  13 active torsions:
REMARK  status: ('A' for Active; 'I' for Inactive)
REMARK    1  A    between atoms: N1_1  and  C1_5 
REMARK    2  A    between atoms: C1_5  and  C2_6 
REMARK    3  A    between atoms: C2_6  and  C3_7 
REMARK    4  A    between atoms: C3_7  and  C4_8 
REMARK    5  A    between atoms: C4_8  and  N2_9 
REMARK    6  A    between atoms: N2_9  and  C5_10 
REMARK    7  A    between atoms: C5_10  and  C6_11 
REMARK    8  A    between atoms: C6_11  and  N3_12 
REMARK       I    between atoms: N3_12  and  C7_14 
REMARK    9  A    between atoms: C7_14  and  C8_16 
REMARK   10  A    between atoms: C8_16  and  C9_17 
REMARK   11  A    between atoms: C12_20  and  C13_21 
REMARK   12  A    between atoms: C13_21  and  C14_22 
REMARK   13  A    between atoms: C14_22  and  C15_23 
ROOT
HETATM    1  C9  UNL     1      28.752  10.264  28.295  1.00  0.00     0.087 C 
HETATM    2  C10 UNL     1      29.929   9.459  27.723  1.00  0.00     0.024 C 
HETATM    3  C11 UNL     1      29.733   7.999  27.914  1.00  0.00     0.041 C 
HETATM    4  C12 UNL     1      30.717   7.376  28.869  1.00  0.00     0.091 C 
HETATM    5  N4  UNL     1      30.031   6.175  29.342  1.00  0.00    -0.354 N 
ATOM      6  H4  UNL     1      30.463   5.433  29.892  1.00  0.00     0.162 HD
HETATM    7  C16 UNL     1      28.671   6.193  28.922  1.00  0.00     0.241 C 
HETATM    8  O4  UNL     1      27.834   5.269  28.859  1.00  0.00    -0.271 OA
HETATM    9  C17 UNL     1      28.410   7.614  28.545  1.00  0.00     0.182 C 
HETATM   10  N5  UNL     1      28.219   8.379  29.762  1.00  0.00    -0.347 N 
ATOM     11  H5  UNL     1      27.839   7.965  30.613  1.00  0.00     0.163 HD
HETATM   12  C18 UNL     1      28.601   9.750  29.682  1.00  0.00     0.223 C 
HETATM   13  O5  UNL     1      28.797  10.472  30.687  1.00  0.00    -0.273 OA
ENDROOT
BRANCH   1  14
HETATM   14  C8  UNL     1      29.018  11.731  28.224  1.00  0.00     0.117 C 
BRANCH  14  15
HETATM   15  C7  UNL     1      27.810  12.559  28.211  1.00  0.00     0.218 C 
HETATM   16  N3  UNL     1      27.182  12.975  29.417  1.00  0.00    -0.359 N 
ATOM     17  H3  UNL     1      27.598  12.679  30.300  1.00  0.00     0.162 HD
HETATM   18  O1  UNL     1      27.333  12.900  27.083  1.00  0.00    -0.274 OA
BRANCH  16  19
HETATM   19  C6  UNL     1      26.002  13.783  29.468  1.00  0.00     0.150 C 
BRANCH  19  20
HETATM   20  C5  UNL     1      24.859  13.151  30.221  1.00  0.00     0.257 C 
BRANCH  20  21
HETATM   21  N2  UNL     1      23.952  12.550  29.283  1.00  0.00    -0.062 N 
HETATM   22  C19 UNL     1      22.764  13.269  28.877  1.00  0.00     0.265 A 
HETATM   23  C20 UNL     1      23.938  13.095  27.938  1.00  0.00     0.265 A 
BRANCH  21  24
HETATM   24  C4  UNL     1      23.760  11.129  29.426  1.00  0.00     0.237 C 
BRANCH  24  25
HETATM   25  C3  UNL     1      24.970  10.316  28.992  1.00  0.00     0.029 C 
BRANCH  25  26
HETATM   26  C2  UNL     1      24.658   9.495  27.771  1.00  0.00     0.029 C 
BRANCH  26  27
HETATM   27  C1  UNL     1      23.180   9.102  27.879  1.00  0.00     0.229 C 
BRANCH  27  28
HETATM   28  N1  UNL     1      22.598   9.347  26.579  1.00  0.00    -0.079 N 
ATOM     29  H13 UNL     1      22.598  10.332  26.314  1.00  0.00     0.274 HD
ATOM     30  H12 UNL     1      23.174   9.010  25.808  1.00  0.00     0.274 HD
ATOM     31  H11 UNL     1      21.665   8.934  26.599  1.00  0.00     0.274 HD
ENDBRANCH  27  28
ENDBRANCH  26  27
ENDBRANCH  25  26
ENDBRANCH  24  25
ENDBRANCH  21  24
ENDBRANCH  20  21
ENDBRANCH  19  20
ENDBRANCH  16  19
ENDBRANCH  14  15
ENDBRANCH   1  14
BRANCH   4  32
HETATM   32  C13 UNL     1      31.984   6.916  28.205  1.00  0.00     0.036 C 
BRANCH  32  33
HETATM   33  C14 UNL     1      31.858   5.631  27.466  1.00  0.00     0.115 C 
BRANCH  33  34
HETATM   34  C15 UNL     1      32.610   4.587  28.211  1.00  0.00     0.172 C 
HETATM   35  O2  UNL     1      33.865   4.516  28.160  1.00  0.00    -0.648 OA
HETATM   36  O3  UNL     1      31.974   3.637  29.002  1.00  0.00    -0.648 OA
ENDBRANCH  33  34
ENDBRANCH  32  33
ENDBRANCH   4  32
TORSDOF 13
ENDMDL
MODEL 2
REMARK VINA RESULT: -6.283569485      4.307      6.425
REMARK  13 active torsions:
REMARK  status: ('A' for Active; 'I' for Inactive)
REMARK    1  A    between atoms: N1_1  and  C1_5 
REMARK    2  A    between atoms: C1_5  and  C2_6 
REMARK    3  A    between atoms: C2_6  and  C3_7 
REMARK    4  A    between atoms: C3_7  and  C4_8 
REMARK    5  A    between atoms: C4_8  and  N2_9 
REMARK    6  A    between atoms: N2_9  and  C5_10 
REMARK    7  A    between atoms: C5_10  and  C6_11 
REMARK    8  A    between atoms: C6_11  and  N3_12 
REMARK       I    between atoms: N3_12  and  C7_14 
REMARK    9  A    between atoms: C7_14  and  C8_16 
REMARK   10  A    between atoms: C8_16  and  C9_17 
REMARK   11  A    between atoms: C12_20  and  C13_21 
REMARK   12  A    between atoms: C13_21  and  C14_22 
REMARK   13  A    between atoms: C14_22  and  C15_23 
ROOT
HETATM    1  C9  UNL     1      31.520  11.214  29.621  1.00  0.00     0.087 C 
HETATM    2  C10 UNL     1      31.383  10.008  28.678  1.00  0.00     0.024 C 
HETATM    3  C11 UNL     1      30.023   9.417  28.747  1.00  0.00     0.041 C 
HETATM    4  C12 UNL     1      29.993   8.033  29.341  1.00  0.00     0.091 C 
HETATM    5  N4  UNL     1      28.624   7.894  29.835  1.00  0.00    -0.354 N 
ATOM      6  H4  UNL     1      28.208   7.025  30.168  1.00  0.00     0.162 HD
HETATM    7  C16 UNL     1      27.958   9.150  29.783  1.00  0.00     0.241 C 
HETATM    8  O4  UNL     1      26.740   9.420  29.833  1.00  0.00    -0.271 OA
HETATM    9  C17 UNL     1      29.055  10.156  29.649  1.00  0.00     0.182 C 
HETATM   10  N5  UNL     1      29.661  10.342  30.952  1.00  0.00    -0.347 N 
ATOM     11  H5  UNL     1      29.139  10.222  31.821  1.00  0.00     0.163 HD
HETATM   12  C18 UNL     1      31.040  10.706  30.933  1.00  0.00     0.223 C 
HETATM   13  O5  UNL     1      31.794  10.609  31.929  1.00  0.00    -0.273 OA
ENDROOT
BRANCH   1  14
HETATM   14  C8  UNL     1      32.925  11.717  29.651  1.00  0.00     0.117 C 
BRANCH  14  15
HETATM   15  C7  UNL     1      33.385  12.287  28.382  1.00  0.00     0.218 C 
HETATM   16  N3  UNL     1      32.772  13.441  27.821  1.00  0.00    -0.359 N 
ATOM     17  H3  UNL     1      31.997  13.867  28.330  1.00  0.00     0.162 HD
HETATM   18  O1  UNL     1      34.354  11.718  27.789  1.00  0.00    -0.274 OA
BRANCH  16  19
HETATM   19  C6  UNL     1      33.175  14.042  26.587  1.00  0.00     0.150 C 
BRANCH  19  20
HETATM   20  C5  UNL     1      32.526  13.437  25.369  1.00  0.00     0.257 C 
BRANCH  20  21
HETATM   21  N2  UNL     1      33.539  12.846  24.540  1.00  0.00    -0.062 N 
HETATM   22  C19 UNL     1      34.095  13.604  23.440  1.00  0.00     0.265 A 
HETATM   23  C20 UNL     1      34.893  13.343  24.699  1.00  0.00     0.265 A 
BRANCH  21  24
HETATM   24  C4  UNL     1      33.375  11.441  24.262  1.00  0.00     0.237 C 
BRANCH  24  25
HETATM   25  C3  UNL     1      32.123  10.850  24.890  1.00  0.00     0.029 C 
BRANCH  25  26
HETATM   26  C2  UNL     1      31.135  10.436  23.833  1.00  0.00     0.029 C 
BRANCH  26  27
HETATM   27  C1  UNL     1      31.906  10.401  22.509  1.00  0.00     0.229 C 
BRANCH  27  28
HETATM   28  N1  UNL     1      30.988  10.862  21.492  1.00  0.00    -0.079 N 
ATOM     29  H13 UNL     1      30.140  11.282  21.872  1.00  0.00     0.274 HD
ATOM     30  H12 UNL     1      31.322  11.684  20.989  1.00  0.00     0.274 HD
ATOM     31  H11 UNL     1      30.806  10.062  20.885  1.00  0.00     0.274 HD
ENDBRANCH  27  28
ENDBRANCH  26  27
ENDBRANCH  25  26
ENDBRANCH  24  25
ENDBRANCH  21  24
ENDBRANCH  20  21
ENDBRANCH  19  20
ENDBRANCH  16  19
ENDBRANCH  14  15
ENDBRANCH   1  14
BRANCH   4  32
HETATM   32  C13 UNL     1      30.198   6.943  28.326  1.00  0.00     0.036 C 
BRANCH  32  33
HETATM   33  C14 UNL     1      31.476   6.197  28.476  1.00  0.00     0.115 C 
BRANCH  33  34
HETATM   34  C15 UNL     1      31.196   4.749  28.284  1.00  0.00     0.172 C 
HETATM   35  O2  UNL     1      30.049   4.334  27.975  1.00  0.00    -0.648 OA
HETATM   36  O3  UNL     1      32.180   3.777  28.435  1.00  0.00    -0.648 OA
ENDBRANCH  33  34
ENDBRANCH  32  33
ENDBRANCH   4  32
TORSDOF 13
ENDMDL
MODEL 3
REMARK VINA RESULT: -6.254871057      3.783      6.363
REMARK  13 active torsions:
REMARK  status: ('A' for Active; 'I' for Inactive)
REMARK    1  A    between atoms: N1_1  and  C1_5 
REMARK    2  A    between atoms: C1_5  and  C2_6 
REMARK    3  A    between atoms: C2_6  and  C3_7 
REMARK    4  A    between atoms: C3_7  and  C4_8 
REMARK    5  A    between atoms: C4_8  and  N2_9 
REMARK    6  A    between atoms: N2_9  and  C5_10 
REMARK    7  A    between atoms: C5_10  and  C6_11 
REMARK    8  A    between atoms: C6_11  and  N3_12 
REMARK       I    between atoms: N3_12  and  C7_14 
REMARK    9  A    between atoms: C7_14  and  C8_16 
REMARK   10  A    between atoms: C8_16  and  C9_17 
REMARK   11  A    between atoms: C12_20  and  C13_21 
REMARK   12  A    between atoms: C13_21  and  C14_22 
REMARK   13  A    between atoms: C14_22  and  C15_23 
ROOT
HETATM    1  C9  UNL     1      30.372  10.781  30.770  1.00  0.00     0.087 C 
HETATM    2  C10 UNL     1      30.738   9.752  29.690  1.00  0.00     0.024 C 
HETATM    3  C11 UNL     1      29.569   9.423  28.835  1.00  0.00     0.041 C 
HETATM    4  C12 UNL     1      29.084   8.006  28.991  1.00  0.00     0.091 C 
HETATM    5  N4  UNL     1      27.687   8.066  28.564  1.00  0.00    -0.354 N 
ATOM      6  H4  UNL     1      27.090   7.255  28.402  1.00  0.00     0.162 HD
HETATM    7  C16 UNL     1      27.283   9.421  28.409  1.00  0.00     0.241 C 
HETATM    8  O4  UNL     1      26.304   9.907  27.805  1.00  0.00    -0.271 OA
HETATM    9  C17 UNL     1      28.313  10.211  29.148  1.00  0.00     0.182 C 
HETATM   10  N5  UNL     1      28.027  10.113  30.566  1.00  0.00    -0.347 N 
ATOM     11  H5  UNL     1      27.081   9.984  30.926  1.00  0.00     0.163 HD
HETATM   12  C18 UNL     1      29.164  10.210  31.421  1.00  0.00     0.223 C 
HETATM   13  O5  UNL     1      29.159   9.848  32.621  1.00  0.00    -0.273 OA
ENDROOT
BRANCH   1  14
HETATM   14  C8  UNL     1      31.511  11.003  31.710  1.00  0.00     0.117 C 
BRANCH  14  15
HETATM   15  C7  UNL     1      32.527  11.933  31.211  1.00  0.00     0.218 C 
HETATM   16  N3  UNL     1      33.821  11.484  30.830  1.00  0.00    -0.359 N 
ATOM     17  H3  UNL     1      34.026  10.488  30.912  1.00  0.00     0.162 HD
HETATM   18  O1  UNL     1      32.219  13.164  31.128  1.00  0.00    -0.274 OA
BRANCH  16  19
HETATM   19  C6  UNL     1      34.853  12.344  30.337  1.00  0.00     0.150 C 
BRANCH  19  20
HETATM   20  C5  UNL     1      35.085  12.235  28.851  1.00  0.00     0.257 C 
BRANCH  20  21
HETATM   21  N2  UNL     1      34.420  13.324  28.191  1.00  0.00    -0.062 N 
HETATM   22  C19 UNL     1      34.436  14.641  28.791  1.00  0.00     0.265 A 
HETATM   23  C20 UNL     1      35.261  14.327  27.563  1.00  0.00     0.265 A 
BRANCH  21  24
HETATM   24  C4  UNL     1      33.181  12.992  27.534  1.00  0.00     0.237 C 
BRANCH  24  25
HETATM   25  C3  UNL     1      33.012  11.499  27.299  1.00  0.00     0.029 C 
BRANCH  25  26
HETATM   26  C2  UNL     1      31.837  11.225  26.399  1.00  0.00     0.029 C 
BRANCH  26  27
HETATM   27  C1  UNL     1      31.945   9.754  25.982  1.00  0.00     0.229 C 
BRANCH  27  28
HETATM   28  N1  UNL     1      32.699   9.091  27.021  1.00  0.00    -0.079 N 
ATOM     29  H13 UNL     1      33.492   9.637  27.357  1.00  0.00     0.274 HD
ATOM     30  H12 UNL     1      32.200   9.033  27.908  1.00  0.00     0.274 HD
ATOM     31  H11 UNL     1      32.965   8.180  26.646  1.00  0.00     0.274 HD
ENDBRANCH  27  28
ENDBRANCH  26  27
ENDBRANCH  25  26
ENDBRANCH  24  25
ENDBRANCH  21  24
ENDBRANCH  20  21
ENDBRANCH  19  20
ENDBRANCH  16  19
ENDBRANCH  14  15
ENDBRANCH   1  14
BRANCH   4  32
HETATM   32  C13 UNL     1      29.774   7.035  28.074  1.00  0.00     0.036 C 
BRANCH  32  33
HETATM   33  C14 UNL     1      30.024   5.696  28.673  1.00  0.00     0.115 C 
BRANCH  33  34
HETATM   34  C15 UNL     1      31.454   5.349  28.460  1.00  0.00     0.172 C 
HETATM   35  O2  UNL     1      32.347   6.234  28.411  1.00  0.00    -0.648 OA
HETATM   36  O3  UNL     1      31.883   4.035  28.304  1.00  0.00    -0.648 OA
ENDBRANCH  33  34
ENDBRANCH  32  33
ENDBRANCH   4  32
TORSDOF 13
ENDMDL
MODEL 4
REMARK VINA RESULT: -6.213286034      3.422      6.073
REMARK  13 active torsions:
REMARK  status: ('A' for Active; 'I' for Inactive)
REMARK    1  A    between atoms: N1_1  and  C1_5 
REMARK    2  A    between atoms: C1_5  and  C2_6 
REMARK    3  A    between atoms: C2_6  and  C3_7 
REMARK    4  A    between atoms: C3_7  and  C4_8 
REMARK    5  A    between atoms: C4_8  and  N2_9 
REMARK    6  A    between atoms: N2_9  and  C5_10 
REMARK    7  A    between atoms: C5_10  and  C6_11 
REMARK    8  A    between atoms: C6_11  and  N3_12 
REMARK       I    between atoms: N3_12  and  C7_14 
REMARK    9  A    between atoms: C7_14  and  C8_16 
REMARK   10  A    between atoms: C8_16  and  C9_17 
REMARK   11  A    between atoms: C12_20  and  C13_21 
REMARK   12  A    between atoms: C13_21  and  C14_22 
REMARK   13  A    between atoms: C14_22  and  C15_23 
ROOT
HETATM    1  C9  UNL     1      28.761  10.217  28.426  1.00  0.00     0.087 C 
HETATM    2  C10 UNL     1      29.937   9.434  27.824  1.00  0.00     0.024 C 
HETATM    3  C11 UNL     1      29.738   7.968  27.955  1.00  0.00     0.041 C 
HETATM    4  C12 UNL     1      30.719   7.304  28.885  1.00  0.00     0.091 C 
HETATM    5  N4  UNL     1      30.029   6.086  29.308  1.00  0.00    -0.354 N 
ATOM      6  H4  UNL     1      30.459   5.322  29.828  1.00  0.00     0.162 HD
HETATM    7  C16 UNL     1      28.671   6.124  28.887  1.00  0.00     0.241 C 
HETATM    8  O4  UNL     1      27.832   5.205  28.785  1.00  0.00    -0.271 OA
HETATM    9  C17 UNL     1      28.413   7.560  28.568  1.00  0.00     0.182 C 
HETATM   10  N5  UNL     1      28.222   8.275  29.814  1.00  0.00    -0.347 N 
ATOM     11  H5  UNL     1      27.839   7.828  30.647  1.00  0.00     0.163 HD
HETATM   12  C18 UNL     1      28.607   9.648  29.791  1.00  0.00     0.223 C 
HETATM   13  O5  UNL     1      28.802  10.328  30.825  1.00  0.00    -0.273 OA
ENDROOT
BRANCH   1  14
HETATM   14  C8  UNL     1      29.030  11.685  28.416  1.00  0.00     0.117 C 
BRANCH  14  15
HETATM   15  C7  UNL     1      30.186  12.077  27.606  1.00  0.00     0.218 C 
HETATM   16  N3  UNL     1      31.441  12.379  28.201  1.00  0.00    -0.359 N 
ATOM     17  H3  UNL     1      31.517  12.316  29.216  1.00  0.00     0.162 HD
HETATM   18  O1  UNL     1      30.037  12.141  26.345  1.00  0.00    -0.274 OA
BRANCH  16  19
HETATM   19  C6  UNL     1      32.604  12.768  27.463  1.00  0.00     0.150 C 
BRANCH  19  20
HETATM   20  C5  UNL     1      33.850  12.006  27.838  1.00  0.00     0.257 C 
BRANCH  20  21
HETATM   21  N2  UNL     1      34.649  12.813  28.717  1.00  0.00    -0.062 N 
HETATM   22  C19 UNL     1      35.665  13.682  28.165  1.00  0.00     0.265 A 
HETATM   23  C20 UNL     1      34.377  14.239  28.733  1.00  0.00     0.265 A 
BRANCH  21  24
HETATM   24  C4  UNL     1      35.019  12.194  29.966  1.00  0.00     0.237 C 
BRANCH  24  25
HETATM   25  C3  UNL     1      34.053  12.507  31.097  1.00  0.00     0.029 C 
BRANCH  25  26
HETATM   26  C2  UNL     1      33.768  11.278  31.917  1.00  0.00     0.029 C 
BRANCH  26  27
HETATM   27  C1  UNL     1      32.250  11.068  31.870  1.00  0.00     0.229 C 
BRANCH  27  28
HETATM   28  N1  UNL     1      32.003  10.137  30.792  1.00  0.00    -0.079 N 
ATOM     29  H13 UNL     1      32.799  10.021  30.166  1.00  0.00     0.274 HD
ATOM     30  H12 UNL     1      31.943   9.167  31.101  1.00  0.00     0.274 HD
ATOM     31  H11 UNL     1      31.160  10.464  30.318  1.00  0.00     0.274 HD
ENDBRANCH  27  28
ENDBRANCH  26  27
ENDBRANCH  25  26
ENDBRANCH  24  25
ENDBRANCH  21  24
ENDBRANCH  20  21
ENDBRANCH  19  20
ENDBRANCH  16  19
ENDBRANCH  14  15
ENDBRANCH   1  14
BRANCH   4  32
HETATM   32  C13 UNL     1      31.986   6.869  28.205  1.00  0.00     0.036 C 
BRANCH  32  33
HETATM   33  C14 UNL     1      31.876   5.582  27.467  1.00  0.00     0.115 C 
BRANCH  33  34
HETATM   34  C15 UNL     1      32.671   4.557  28.193  1.00  0.00     0.172 C 
HETATM   35  O2  UNL     1      32.121   3.680  28.908  1.00  0.00    -0.648 OA
HETATM   36  O3  UNL     1      34.059   4.509  28.123  1.00  0.00    -0.648 OA
ENDBRANCH  33  34
ENDBRANCH  32  33
ENDBRANCH   4  32
TORSDOF 13
ENDMDL
MODEL 5
REMARK VINA RESULT: -6.173821138      3.817      6.174
REMARK  13 active torsions:
REMARK  status: ('A' for Active; 'I' for Inactive)
REMARK    1  A    between atoms: N1_1  and  C1_5 
REMARK    2  A    between atoms: C1_5  and  C2_6 
REMARK    3  A    between atoms: C2_6  and  C3_7 
REMARK    4  A    between atoms: C3_7  and  C4_8 
REMARK    5  A    between atoms: C4_8  and  N2_9 
REMARK    6  A    between atoms: N2_9  and  C5_10 
REMARK    7  A    between atoms: C5_10  and  C6_11 
REMARK    8  A    between atoms: C6_11  and  N3_12 
REMARK       I    between atoms: N3_12  and  C7_14 
REMARK    9  A    between atoms: C7_14  and  C8_16 
REMARK   10  A    between atoms: C8_16  and  C9_17 
REMARK   11  A    between atoms: C12_20  and  C13_21 
REMARK   12  A    between atoms: C13_21  and  C14_22 
REMARK   13  A    between atoms: C14_22  and  C15_23 
ROOT
HETATM    1  C9  UNL     1      30.232  10.948  30.254  1.00  0.00     0.087 C 
HETATM    2  C10 UNL     1      30.742   9.955  29.198  1.00  0.00     0.024 C 
HETATM    3  C11 UNL     1      29.619   9.272  28.507  1.00  0.00     0.041 C 
HETATM    4  C12 UNL     1      29.534   7.797  28.799  1.00  0.00     0.091 C 
HETATM    5  N4  UNL     1      28.134   7.469  28.536  1.00  0.00    -0.354 N 
ATOM      6  H4  UNL     1      27.753   6.525  28.491  1.00  0.00     0.162 HD
HETATM    7  C16 UNL     1      27.380   8.663  28.352  1.00  0.00     0.241 C 
HETATM    8  O4  UNL     1      26.254   8.835  27.841  1.00  0.00    -0.271 OA
HETATM    9  C17 UNL     1      28.240   9.744  28.920  1.00  0.00     0.182 C 
HETATM   10  N5  UNL     1      28.131   9.699  30.364  1.00  0.00    -0.347 N 
ATOM     11  H5  UNL     1      27.290   9.369  30.839  1.00  0.00     0.163 HD
HETATM   12  C18 UNL     1      29.282  10.150  31.073  1.00  0.00     0.223 C 
HETATM   13  O5  UNL     1      29.490   9.901  32.284  1.00  0.00    -0.273 OA
ENDROOT
BRANCH   1  14
HETATM   14  C8  UNL     1      31.363  11.526  31.039  1.00  0.00     0.117 C 
BRANCH  14  15
HETATM   15  C7  UNL     1      32.294  12.330  30.245  1.00  0.00     0.218 C 
HETATM   16  N3  UNL     1      33.677  12.006  30.170  1.00  0.00    -0.359 N 
ATOM     17  H3  UNL     1      34.006  11.191  30.688  1.00  0.00     0.162 HD
HETATM   18  O1  UNL     1      31.831  13.335  29.618  1.00  0.00    -0.274 OA
BRANCH  16  19
HETATM   19  C6  UNL     1      34.634  12.753  29.413  1.00  0.00     0.150 C 
BRANCH  19  20
HETATM   20  C5  UNL     1      35.017  12.110  28.104  1.00  0.00     0.257 C 
BRANCH  20  21
HETATM   21  N2  UNL     1      34.611  12.964  27.023  1.00  0.00    -0.062 N 
HETATM   22  C19 UNL     1      34.172  14.314  27.306  1.00  0.00     0.265 A 
HETATM   23  C20 UNL     1      35.513  14.042  26.660  1.00  0.00     0.265 A 
BRANCH  21  24
HETATM   24  C4  UNL     1      33.884  12.320  25.959  1.00  0.00     0.237 C 
BRANCH  24  25
HETATM   25  C3  UNL     1      32.573  11.703  26.419  1.00  0.00     0.029 C 
BRANCH  25  26
HETATM   26  C2  UNL     1      32.444  10.285  25.933  1.00  0.00     0.029 C 
BRANCH  26  27
HETATM   27  C1  UNL     1      31.112  10.204  25.179  1.00  0.00     0.229 C 
BRANCH  27  28
HETATM   28  N1  UNL     1      30.367  11.388  25.542  1.00  0.00    -0.079 N 
ATOM     29  H13 UNL     1      30.288  12.065  24.783  1.00  0.00     0.274 HD
ATOM     30  H12 UNL     1      29.369  11.216  25.662  1.00  0.00     0.274 HD
ATOM     31  H11 UNL     1      30.816  11.766  26.377  1.00  0.00     0.274 HD
ENDBRANCH  27  28
ENDBRANCH  26  27
ENDBRANCH  25  26
ENDBRANCH  24  25
ENDBRANCH  21  24
ENDBRANCH  20  21
ENDBRANCH  19  20
ENDBRANCH  16  19
ENDBRANCH  14  15
ENDBRANCH   1  14
BRANCH   4  32
HETATM   32  C13 UNL     1      30.357   6.955  27.864  1.00  0.00     0.036 C 
BRANCH  32  33
HETATM   33  C14 UNL     1      31.431   6.170  28.530  1.00  0.00     0.115 C 
BRANCH  33  34
HETATM   34  C15 UNL     1      31.180   4.727  28.277  1.00  0.00     0.172 C 
HETATM   35  O2  UNL     1      30.037   4.301  27.968  1.00  0.00    -0.648 OA
HETATM   36  O3  UNL     1      32.186   3.772  28.367  1.00  0.00    -0.648 OA
ENDBRANCH  33  34
ENDBRANCH  32  33
ENDBRANCH   4  32
TORSDOF 13
ENDMDL
