MODEL 1
REMARK VINA RESULT: -7.518512322      0.000      0.000
REMARK  13 active torsions:
REMARK  status: ('A' for Active; 'I' for Inactive)
REMARK       I    between atoms: C1_4  and  N3_6 
REMARK    1  A    between atoms: N3_6  and  C2_8 
REMARK    2  A    between atoms: C2_8  and  C3_9 
REMARK    3  A    between atoms: C3_9  and  C4_10 
REMARK    4  A    between atoms: C4_10  and  C5_11 
REMARK    5  A    between atoms: C5_11  and  N4_12 
REMARK    6  A    between atoms: C8_15  and  O1_16 
REMARK    7  A    between atoms: O1_16  and  C9_17 
REMARK    8  A    between atoms: C9_17  and  C10_19 
REMARK    9  A    between atoms: C10_19  and  C11_20 
REMARK   10  A    between atoms: C11_20  and  C12_21 
REMARK   11  A    between atoms: C15_26  and  C16_27 
REMARK       I    between atoms: C16_27  and  N6_29 
REMARK   12  A    between atoms: N6_29  and  C17_31 
REMARK   13  A    between atoms: C17_31  and  C18_32 
ROOT
HETATM    1  N4  UNL     1      29.560   9.106  29.045  1.00  0.00    -0.047 N 
HETATM    2  C6  UNL     1      29.410   9.005  30.444  1.00  0.00     0.241 C 
HETATM    3  C7  UNL     1      28.203   9.806  30.867  1.00  0.00     0.062 C 
HETATM    4  C8  UNL     1      27.526  10.232  29.591  1.00  0.00     0.164 C 
HETATM    5  C13 UNL     1      28.305   9.570  28.486  1.00  0.00     0.223 A 
HETATM    6  C14 UNL     1      29.070  10.572  27.669  1.00  0.00     0.079 A 
HETATM    7  C15 UNL     1      30.329  10.073  28.397  1.00  0.00     0.284 A 
ENDROOT
BRANCH   1   8
HETATM    8  C5  UNL     1      29.828   7.776  28.410  1.00  0.00     0.239 C 
BRANCH   8   9
HETATM    9  C4  UNL     1      29.068   6.708  29.085  1.00  0.00     0.030 C 
BRANCH   9  10
HETATM   10  C3  UNL     1      29.769   5.432  29.330  1.00  0.00     0.021 C 
BRANCH  10  11
HETATM   11  C2  UNL     1      30.232   4.623  28.188  1.00  0.00     0.122 C 
BRANCH  11  12
HETATM   12  N3  UNL     1      31.463   3.892  28.366  1.00  0.00    -0.365 N 
HETATM   13  C1  UNL     1      32.735   4.482  28.081  1.00  0.00     0.181 C 
HETATM   14  N1  UNL     1      33.757   3.789  27.724  1.00  0.00    -0.374 N 
HETATM   15  N2  UNL     1      32.845   5.889  28.205  1.00  0.00    -0.064 NA
ATOM     16  H12 UNL     1      34.664   4.210  27.520  1.00  0.00     0.158 HD
ATOM     17  H11 UNL     1      33.678   2.776  27.635  1.00  0.00     0.158 HD
ATOM     18  H3  UNL     1      31.426   2.931  28.703  1.00  0.00     0.162 HD
ENDBRANCH  11  12
ENDBRANCH  10  11
ENDBRANCH   9  10
ENDBRANCH   8   9
ENDBRANCH   1   8
BRANCH   7  19
HETATM   19  C16 UNL     1      30.997  11.161  29.096  1.00  0.00     0.249 C 
HETATM   20  O4  UNL     1      30.450  12.263  29.293  1.00  0.00    -0.271 OA
HETATM   21  N6  UNL     1      32.323  10.997  29.582  1.00  0.00    -0.351 N 
ATOM     22  H6  UNL     1      32.780  10.098  29.428  1.00  0.00     0.163 HD
BRANCH  21  23
HETATM   23  C17 UNL     1      33.060  12.014  30.276  1.00  0.00     0.222 C 
BRANCH  23  24
HETATM   24  C18 UNL     1      33.212  11.721  31.711  1.00  0.00     0.248 C 
HETATM   25  N7  UNL     1      32.272  12.251  32.639  1.00  0.00    -0.061 NA
HETATM   26  O5  UNL     1      34.141  11.020  32.161  1.00  0.00    -0.275 OA
ENDBRANCH  23  24
ENDBRANCH  21  23
ENDBRANCH   7  19
BRANCH   4  27
HETATM   27  O1  UNL     1      26.160   9.876  29.561  1.00  0.00    -0.314 OA
BRANCH  27  28
HETATM   28  C9  UNL     1      25.423   9.822  28.384  1.00  0.00     0.259 C 
HETATM   29  O2  UNL     1      25.150   8.716  27.912  1.00  0.00    -0.265 OA
BRANCH  28  30
HETATM   30  C10 UNL     1      25.022  11.112  27.791  1.00  0.00     0.120 C 
BRANCH  30  31
HETATM   31  C11 UNL     1      23.527  11.267  27.721  1.00  0.00     0.109 C 
BRANCH  31  32
HETATM   32  C12 UNL     1      22.974  10.877  26.416  1.00  0.00     0.231 C 
HETATM   33  N5  UNL     1      23.115  11.769  25.292  1.00  0.00    -0.062 NA
HETATM   34  O3  UNL     1      22.389   9.792  26.266  1.00  0.00    -0.277 OA
ENDBRANCH  31  32
ENDBRANCH  30  31
ENDBRANCH  28  30
ENDBRANCH  27  28
ENDBRANCH   4  27
TORSDOF 13
ENDMDL
MODEL 2
REMARK VINA RESULT: -7.426406765      2.385      6.127
REMARK  13 active torsions:
REMARK  status: ('A' for Active; 'I' for Inactive)
REMARK       I    between atoms: C1_4  and  N3_6 
REMARK    1  A    between atoms: N3_6  and  C2_8 
REMARK    2  A    between atoms: C2_8  and  C3_9 
REMARK    3  A    between atoms: C3_9  and  C4_10 
REMARK    4  A    between atoms: C4_10  and  C5_11 
REMARK    5  A    between atoms: C5_11  and  N4_12 
REMARK    6  A    between atoms: C8_15  and  O1_16 
REMARK    7  A    between atoms: O1_16  and  C9_17 
REMARK    8  A    between atoms: C9_17  and  C10_19 
REMARK    9  A    between atoms: C10_19  and  C11_20 
REMARK   10  A    between atoms: C11_20  and  C12_21 
REMARK   11  A    between atoms: C15_26  and  C16_27 
REMARK       I    between atoms: C16_27  and  N6_29 
REMARK   12  A    between atoms: N6_29  and  C17_31 
REMARK   13  A    between atoms: C17_31  and  C18_32 
ROOT
HETATM    1  N4  UNL     1      30.002  10.127  29.775  1.00  0.00    -0.047 N 
HETATM    2  C6  UNL     1      30.648  10.758  28.693  1.00  0.00     0.241 C 
HETATM    3  C7  UNL     1      29.608  11.224  27.704  1.00  0.00     0.062 C 
HETATM    4  C8  UNL     1      28.278  11.000  28.372  1.00  0.00     0.164 C 
HETATM    5  C13 UNL     1      28.606  10.517  29.761  1.00  0.00     0.223 A 
HETATM    6  C14 UNL     1      28.229   9.075  29.950  1.00  0.00     0.079 A 
HETATM    7  C15 UNL     1      29.731   8.760  29.851  1.00  0.00     0.284 A 
ENDROOT
BRANCH   1   8
HETATM    8  C5  UNL     1      30.543  10.581  31.096  1.00  0.00     0.239 C 
BRANCH   8   9
HETATM    9  C4  UNL     1      32.013  10.479  31.126  1.00  0.00     0.030 C 
BRANCH   9  10
HETATM   10  C3  UNL     1      32.709  11.077  32.283  1.00  0.00     0.021 C 
BRANCH  10  11
HETATM   11  C2  UNL     1      33.112  12.494  32.240  1.00  0.00     0.122 C 
BRANCH  11  12
HETATM   12  N3  UNL     1      33.079  13.217  33.488  1.00  0.00    -0.365 N 
HETATM   13  C1  UNL     1      32.132  14.261  33.727  1.00  0.00     0.181 C 
HETATM   14  N1  UNL     1      32.363  15.238  34.531  1.00  0.00    -0.374 N 
HETATM   15  N2  UNL     1      30.896  14.194  33.037  1.00  0.00    -0.064 NA
ATOM     16  H12 UNL     1      31.687  15.983  34.702  1.00  0.00     0.158 HD
ATOM     17  H11 UNL     1      33.252  15.287  35.029  1.00  0.00     0.158 HD
ATOM     18  H3  UNL     1      33.749  12.977  34.219  1.00  0.00     0.162 HD
ENDBRANCH  11  12
ENDBRANCH  10  11
ENDBRANCH   9  10
ENDBRANCH   8   9
ENDBRANCH   1   8
BRANCH   7  19
HETATM   19  C16 UNL     1      30.002   7.832  28.763  1.00  0.00     0.249 C 
HETATM   20  O4  UNL     1      29.213   7.669  27.813  1.00  0.00    -0.271 OA
HETATM   21  N6  UNL     1      31.200   7.065  28.754  1.00  0.00    -0.351 N 
ATOM     22  H6  UNL     1      31.853   7.192  29.527  1.00  0.00     0.163 HD
BRANCH  21  23
HETATM   23  C17 UNL     1      31.547   6.124  27.729  1.00  0.00     0.222 C 
BRANCH  23  24
HETATM   24  C18 UNL     1      31.204   4.738  28.094  1.00  0.00     0.248 C 
HETATM   25  N7  UNL     1      32.219   3.867  28.578  1.00  0.00    -0.061 NA
HETATM   26  O5  UNL     1      30.046   4.284  27.998  1.00  0.00    -0.275 OA
ENDBRANCH  23  24
ENDBRANCH  21  23
ENDBRANCH   7  19
BRANCH   4  27
HETATM   27  O1  UNL     1      27.482  12.165  28.393  1.00  0.00    -0.314 OA
BRANCH  27  28
HETATM   28  C9  UNL     1      26.165  12.185  27.949  1.00  0.00     0.259 C 
HETATM   29  O2  UNL     1      25.902  12.808  26.917  1.00  0.00    -0.265 OA
BRANCH  28  30
HETATM   30  C10 UNL     1      25.178  11.448  28.761  1.00  0.00     0.120 C 
BRANCH  30  31
HETATM   31  C11 UNL     1      23.949  11.086  27.973  1.00  0.00     0.109 C 
BRANCH  31  32
HETATM   32  C12 UNL     1      24.065   9.782  27.303  1.00  0.00     0.231 C 
HETATM   33  N5  UNL     1      24.964   8.789  27.835  1.00  0.00    -0.062 NA
HETATM   34  O3  UNL     1      23.399   9.523  26.287  1.00  0.00    -0.277 OA
ENDBRANCH  31  32
ENDBRANCH  30  31
ENDBRANCH  28  30
ENDBRANCH  27  28
ENDBRANCH   4  27
TORSDOF 13
ENDMDL
MODEL 3
REMARK VINA RESULT: -7.331255403      2.033      5.900
REMARK  13 active torsions:
REMARK  status: ('A' for Active; 'I' for Inactive)
REMARK       I    between atoms: C1_4  and  N3_6 
REMARK    1  A    between atoms: N3_6  and  C2_8 
REMARK    2  A    between atoms: C2_8  and  C3_9 
REMARK    3  A    between atoms: C3_9  and  C4_10 
REMARK    4  A    between atoms: C4_10  and  C5_11 
REMARK    5  A    between atoms: C5_11  and  N4_12 
REMARK    6  A    between atoms: C8_15  and  O1_16 
REMARK    7  A    between atoms: O1_16  and  C9_17 
REMARK    8  A    between atoms: C9_17  and  C10_19 
REMARK    9  A    between atoms: C10_19  and  C11_20 
REMARK   10  A    between atoms: C11_20  and  C12_21 
REMARK   11  A    between atoms: C15_26  and  C16_27 
REMARK       I    between atoms: C16_27  and  N6_29 
REMARK   12  A    between atoms: N6_29  and  C17_31 
REMARK   13  A    between atoms: C17_31  and  C18_32 
ROOT
HETATM    1  N4  UNL     1      29.759  10.085  29.606  1.00  0.00    -0.047 N 
HETATM    2  C6  UNL     1      29.972  10.744  28.378  1.00  0.00     0.241 C 
HETATM    3  C7  UNL     1      28.665  10.820  27.628  1.00  0.00     0.062 C 
HETATM    4  C8  UNL     1      27.613  10.331  28.588  1.00  0.00     0.164 C 
HETATM    5  C13 UNL     1      28.337  10.097  29.888  1.00  0.00     0.223 A 
HETATM    6  C14 UNL     1      28.417   8.634  30.222  1.00  0.00     0.079 A 
HETATM    7  C15 UNL     1      29.895   8.710  29.803  1.00  0.00     0.284 A 
ENDROOT
BRANCH   1   8
HETATM    8  C5  UNL     1      30.412  10.799  30.749  1.00  0.00     0.239 C 
BRANCH   8   9
HETATM    9  C4  UNL     1      31.864  10.546  30.766  1.00  0.00     0.030 C 
BRANCH   9  10
HETATM   10  C3  UNL     1      32.611  10.973  31.968  1.00  0.00     0.021 C 
BRANCH  10  11
HETATM   11  C2  UNL     1      33.177  12.332  32.030  1.00  0.00     0.122 C 
BRANCH  11  12
HETATM   12  N3  UNL     1      33.144  12.991  33.312  1.00  0.00    -0.365 N 
HETATM   13  C1  UNL     1      32.221  14.048  33.590  1.00  0.00     0.181 C 
HETATM   14  N1  UNL     1      32.466  14.977  34.446  1.00  0.00    -0.374 N 
HETATM   15  N2  UNL     1      30.996  14.051  32.879  1.00  0.00    -0.064 NA
ATOM     16  H12 UNL     1      31.808  15.731  34.644  1.00  0.00     0.158 HD
ATOM     17  H11 UNL     1      33.348  14.975  34.959  1.00  0.00     0.158 HD
ATOM     18  H3  UNL     1      33.794  12.696  34.040  1.00  0.00     0.162 HD
ENDBRANCH  11  12
ENDBRANCH  10  11
ENDBRANCH   9  10
ENDBRANCH   8   9
ENDBRANCH   1   8
BRANCH   7  19
HETATM   19  C16 UNL     1      30.182   7.774  28.726  1.00  0.00     0.249 C 
HETATM   20  O4  UNL     1      29.389   7.572  27.787  1.00  0.00    -0.271 OA
HETATM   21  N6  UNL     1      31.403   7.044  28.714  1.00  0.00    -0.351 N 
ATOM     22  H6  UNL     1      32.062   7.204  29.477  1.00  0.00     0.163 HD
BRANCH  21  23
HETATM   23  C17 UNL     1      31.769   6.099  27.699  1.00  0.00     0.222 C 
BRANCH  23  24
HETATM   24  C18 UNL     1      31.402   4.718  28.055  1.00  0.00     0.248 C 
HETATM   25  N7  UNL     1      32.412   3.811  28.482  1.00  0.00    -0.061 NA
HETATM   26  O5  UNL     1      30.229   4.297  28.000  1.00  0.00    -0.275 OA
ENDBRANCH  23  24
ENDBRANCH  21  23
ENDBRANCH   7  19
BRANCH   4  27
HETATM   27  O1  UNL     1      26.549  11.247  28.733  1.00  0.00    -0.314 OA
BRANCH  27  28
HETATM   28  C9  UNL     1      25.226  10.847  28.877  1.00  0.00     0.259 C 
HETATM   29  O2  UNL     1      24.997   9.722  29.328  1.00  0.00    -0.265 OA
BRANCH  28  30
HETATM   30  C10 UNL     1      24.190  11.817  28.471  1.00  0.00     0.120 C 
BRANCH  30  31
HETATM   31  C11 UNL     1      22.977  11.145  27.890  1.00  0.00     0.109 C 
BRANCH  31  32
HETATM   32  C12 UNL     1      23.187  10.682  26.510  1.00  0.00     0.231 C 
HETATM   33  N5  UNL     1      23.213  11.644  25.437  1.00  0.00    -0.062 NA
HETATM   34  O3  UNL     1      23.343   9.477  26.256  1.00  0.00    -0.277 OA
ENDBRANCH  31  32
ENDBRANCH  30  31
ENDBRANCH  28  30
ENDBRANCH  27  28
ENDBRANCH   4  27
TORSDOF 13
ENDMDL
MODEL 4
REMARK VINA RESULT: -7.267973641      1.688      6.653
REMARK  13 active torsions:
REMARK  status: ('A' for Active; 'I' for Inactive)
REMARK       I    between atoms: C1_4  and  N3_6 
REMARK    1  A    between atoms: N3_6  and  C2_8 
REMARK    2  A    between atoms: C2_8  and  C3_9 
REMARK    3  A    between atoms: C3_9  and  C4_10 
REMARK    4  A    between atoms: C4_10  and  C5_11 
REMARK    5  A    between atoms: C5_11  and  N4_12 
REMARK    6  A    between atoms: C8_15  and  O1_16 
REMARK    7  A    between atoms: O1_16  and  C9_17 
REMARK    8  A    between atoms: C9_17  and  C10_19 
REMARK    9  A    between atoms: C10_19  and  C11_20 
REMARK   10  A    between atoms: C11_20  and  C12_21 
REMARK   11  A    between atoms: C15_26  and  C16_27 
REMARK       I    between atoms: C16_27  and  N6_29 
REMARK   12  A    between atoms: N6_29  and  C17_31 
REMARK   13  A    between atoms: C17_31  and  C18_32 
ROOT
HETATM    1  N4  UNL     1      29.752   9.164  28.728  1.00  0.00    -0.047 N 
HETATM    2  C6  UNL     1      29.476   9.914  27.567  1.00  0.00     0.241 C 
HETATM    3  C7  UNL     1      30.073  11.292  27.719  1.00  0.00     0.062 C 
HETATM    4  C8  UNL     1      30.897  11.245  28.978  1.00  0.00     0.164 C 
HETATM    5  C13 UNL     1      30.833   9.814  29.443  1.00  0.00     0.223 A 
HETATM    6  C14 UNL     1      30.041   9.678  30.713  1.00  0.00     0.079 A 
HETATM    7  C15 UNL     1      28.916   9.091  29.844  1.00  0.00     0.284 A 
ENDROOT
BRANCH   1   8
HETATM    8  C5  UNL     1      30.241   7.785  28.406  1.00  0.00     0.239 C 
BRANCH   8   9
HETATM    9  C4  UNL     1      29.133   6.814  28.438  1.00  0.00     0.030 C 
BRANCH   9  10
HETATM   10  C3  UNL     1      29.490   5.384  28.545  1.00  0.00     0.021 C 
BRANCH  10  11
HETATM   11  C2  UNL     1      30.372   4.933  29.635  1.00  0.00     0.122 C 
BRANCH  11  12
HETATM   12  N3  UNL     1      31.349   3.924  29.304  1.00  0.00    -0.365 N 
HETATM   13  C1  UNL     1      32.450   4.200  28.434  1.00  0.00     0.181 C 
HETATM   14  N1  UNL     1      33.013   3.294  27.716  1.00  0.00    -0.374 N 
HETATM   15  N2  UNL     1      32.920   5.536  28.379  1.00  0.00    -0.064 NA
ATOM     16  H12 UNL     1      33.799   3.492  27.095  1.00  0.00     0.158 HD
ATOM     17  H11 UNL     1      32.675   2.332  27.756  1.00  0.00     0.158 HD
ATOM     18  H3  UNL     1      31.252   2.989  29.700  1.00  0.00     0.162 HD
ENDBRANCH  11  12
ENDBRANCH  10  11
ENDBRANCH   9  10
ENDBRANCH   8   9
ENDBRANCH   1   8
BRANCH   7  19
HETATM   19  C16 UNL     1      27.692   9.868  29.976  1.00  0.00     0.249 C 
HETATM   20  O4  UNL     1      27.521  10.692  30.894  1.00  0.00    -0.271 OA
HETATM   21  N6  UNL     1      26.632   9.704  29.042  1.00  0.00    -0.351 N 
ATOM     22  H6  UNL     1      26.763   9.034  28.285  1.00  0.00     0.163 HD
BRANCH  21  23
HETATM   23  C17 UNL     1      25.391  10.422  29.096  1.00  0.00     0.222 C 
BRANCH  23  24
HETATM   24  C18 UNL     1      24.225   9.552  28.864  1.00  0.00     0.248 C 
HETATM   25  N7  UNL     1      24.229   8.653  27.760  1.00  0.00    -0.061 NA
HETATM   26  O5  UNL     1      23.218   9.564  29.600  1.00  0.00    -0.275 OA
ENDBRANCH  23  24
ENDBRANCH  21  23
ENDBRANCH   7  19
BRANCH   4  27
HETATM   27  O1  UNL     1      32.226  11.673  28.768  1.00  0.00    -0.314 OA
BRANCH  27  28
HETATM   28  C9  UNL     1      32.644  12.976  29.015  1.00  0.00     0.259 C 
HETATM   29  O2  UNL     1      32.540  13.807  28.110  1.00  0.00    -0.265 OA
BRANCH  28  30
HETATM   30  C10 UNL     1      33.183  13.258  30.359  1.00  0.00     0.120 C 
BRANCH  30  31
HETATM   31  C11 UNL     1      33.975  12.103  30.909  1.00  0.00     0.109 C 
BRANCH  31  32
HETATM   32  C12 UNL     1      33.248  11.354  31.944  1.00  0.00     0.231 C 
HETATM   33  N5  UNL     1      32.141  11.979  32.624  1.00  0.00    -0.062 NA
HETATM   34  O3  UNL     1      33.570  10.192  32.240  1.00  0.00    -0.277 OA
ENDBRANCH  31  32
ENDBRANCH  30  31
ENDBRANCH  28  30
ENDBRANCH  27  28
ENDBRANCH   4  27
TORSDOF 13
ENDMDL
MODEL 5
REMARK VINA RESULT: -7.219349495      1.574      6.885
REMARK  13 active torsions:
REMARK  status: ('A' for Active; 'I' for Inactive)
REMARK       I    between atoms: C1_4  and  N3_6 
REMARK    1  A    between atoms: N3_6  and  C2_8 
REMARK    2  A    between atoms: C2_8  and  C3_9 
REMARK    3  A    between atoms: C3_9  and  C4_10 
REMARK    4  A    between atoms: C4_10  and  C5_11 
REMARK    5  A    between atoms: C5_11  and  N4_12 
REMARK    6  A    between atoms: C8_15  and  O1_16 
REMARK    7  A    between atoms: O1_16  and  C9_17 
REMARK    8  A    between atoms: C9_17  and  C10_19 
REMARK    9  A    between atoms: C10_19  and  C11_20 
REMARK   10  A    between atoms: C11_20  and  C12_21 
REMARK   11  A    between atoms: C15_26  and  C16_27 
REMARK       I    between atoms: C16_27  and  N6_29 
REMARK   12  A    between atoms: N6_29  and  C17_31 
REMARK   13  A    between atoms: C17_31  and  C18_32 
ROOT
HETATM    1  N4  UNL     1      29.310   8.873  29.191  1.00  0.00    -0.047 N 
HETATM    2  C6  UNL     1      29.454   9.149  27.816  1.00  0.00     0.241 C 
HETATM    3  C7  UNL     1      30.173  10.466  27.652  1.00  0.00     0.062 C 
HETATM    4  C8  UNL     1      30.623  10.862  29.033  1.00  0.00     0.164 C 
HETATM    5  C13 UNL     1      30.244   9.706  29.922  1.00  0.00     0.223 A 
HETATM    6  C14 UNL     1      29.136  10.074  30.867  1.00  0.00     0.079 A 
HETATM    7  C15 UNL     1      28.208   9.244  29.964  1.00  0.00     0.284 A 
ENDROOT
BRANCH   1   8
HETATM    8  C5  UNL     1      29.672   7.458  29.523  1.00  0.00     0.239 C 
BRANCH   8   9
HETATM    9  C4  UNL     1      29.060   6.520  28.564  1.00  0.00     0.030 C 
BRANCH   9  10
HETATM   10  C3  UNL     1      29.540   5.123  28.585  1.00  0.00     0.021 C 
BRANCH  10  11
HETATM   11  C2  UNL     1      30.410   4.667  29.683  1.00  0.00     0.122 C 
BRANCH  11  12
HETATM   12  N3  UNL     1      31.499   3.790  29.329  1.00  0.00    -0.365 N 
HETATM   13  C1  UNL     1      32.523   4.195  28.415  1.00  0.00     0.181 C 
HETATM   14  N1  UNL     1      33.175   3.359  27.688  1.00  0.00    -0.374 N 
HETATM   15  N2  UNL     1      32.810   5.579  28.327  1.00  0.00    -0.064 NA
ATOM     16  H12 UNL     1      33.905   3.648  27.036  1.00  0.00     0.158 HD
ATOM     17  H11 UNL     1      32.968   2.361  27.752  1.00  0.00     0.158 HD
ATOM     18  H3  UNL     1      31.540   2.858  29.739  1.00  0.00     0.162 HD
ENDBRANCH  11  12
ENDBRANCH  10  11
ENDBRANCH   9  10
ENDBRANCH   8   9
ENDBRANCH   1   8
BRANCH   7  19
HETATM   19  C16 UNL     1      27.112  10.054  29.453  1.00  0.00     0.249 C 
HETATM   20  O4  UNL     1      27.116  11.298  29.514  1.00  0.00    -0.271 OA
HETATM   21  N6  UNL     1      25.977   9.435  28.859  1.00  0.00    -0.351 N 
ATOM     22  H6  UNL     1      25.965   8.416  28.802  1.00  0.00     0.163 HD
BRANCH  21  23
HETATM   23  C17 UNL     1      24.850  10.150  28.335  1.00  0.00     0.222 C 
BRANCH  23  24
HETATM   24  C18 UNL     1      23.948   9.289  27.551  1.00  0.00     0.248 C 
HETATM   25  N7  UNL     1      23.420   9.762  26.318  1.00  0.00    -0.061 NA
HETATM   26  O5  UNL     1      23.620   8.143  27.922  1.00  0.00    -0.275 OA
ENDBRANCH  23  24
ENDBRANCH  21  23
ENDBRANCH   7  19
BRANCH   4  27
HETATM   27  O1  UNL     1      32.006  11.139  29.090  1.00  0.00    -0.314 OA
BRANCH  27  28
HETATM   28  C9  UNL     1      32.523  12.261  29.728  1.00  0.00     0.259 C 
HETATM   29  O2  UNL     1      32.246  13.374  29.274  1.00  0.00    -0.265 OA
BRANCH  28  30
HETATM   30  C10 UNL     1      33.370  12.022  30.911  1.00  0.00     0.120 C 
BRANCH  30  31
HETATM   31  C11 UNL     1      32.600  12.144  32.198  1.00  0.00     0.109 C 
BRANCH  31  32
HETATM   32  C12 UNL     1      32.809  13.436  32.867  1.00  0.00     0.231 C 
HETATM   33  N5  UNL     1      32.324  13.623  34.212  1.00  0.00    -0.062 NA
HETATM   34  O3  UNL     1      33.398  14.366  32.294  1.00  0.00    -0.277 OA
ENDBRANCH  31  32
ENDBRANCH  30  31
ENDBRANCH  28  30
ENDBRANCH  27  28
ENDBRANCH   4  27
TORSDOF 13
ENDMDL
