MODEL 1
REMARK VINA RESULT: -6.812785931      0.000      0.000
REMARK  14 active torsions:
REMARK  status: ('A' for Active; 'I' for Inactive)
REMARK    1  A    between atoms: C2_2  and  C3_3 
REMARK    2  A    between atoms: C5_9  and  N3_10 
REMARK    3  A    between atoms: C8_18  and  C9_19 
REMARK    4  A    between atoms: C9_19  and  O2_20 
REMARK    5  A    between atoms: O2_20  and  C10_21 
REMARK    6  A    between atoms: C10_21  and  C11_22 
REMARK    7  A    between atoms: C11_22  and  C12_23 
REMARK    8  A    between atoms: C12_23  and  C13_24 
REMARK    9  A    between atoms: C13_24  and  C14_25 
REMARK   10  A    between atoms: C14_25  and  N5_26 
REMARK   11  A    between atoms: C15_30  and  C16_31 
REMARK       I    between atoms: C16_31  and  N6_33 
REMARK   12  A    between atoms: N6_33  and  C17_35 
REMARK   13  A    between atoms: C17_35  and  C18_36 
REMARK   14  A    between atoms: C18_36  and  N7_37 
ROOT
HETATM    1  C3  UNL     1      30.657  11.118  30.586  1.00  0.00     0.122 A 
HETATM    2  N1  UNL     1      31.539  11.555  29.546  1.00  0.00    -0.366 N 
ATOM      3  H1  UNL     1      32.101  12.386  29.731  1.00  0.00     0.161 HD
HETATM    4  C4  UNL     1      31.682  11.001  28.419  1.00  0.00     0.133 A 
HETATM    5  N2  UNL     1      32.550  11.496  27.495  1.00  0.00    -0.176 N 
ATOM      6  H2  UNL     1      33.089  12.326  27.742  1.00  0.00     0.186 HD
HETATM    7  C5  UNL     1      32.742  10.965  26.284  1.00  0.00     0.680 A 
HETATM    8  N4  UNL     1      32.050   9.881  25.934  1.00  0.00    -0.155 N 
ATOM      9  H4  UNL     1      32.184   9.463  25.013  1.00  0.00     0.187 HD
HETATM   10  C6  UNL     1      31.170   9.337  26.805  1.00  0.00     0.274 A 
HETATM   11  O1  UNL     1      30.509   8.335  26.514  1.00  0.00    -0.267 OA
HETATM   12  C7  UNL     1      30.952   9.875  28.083  1.00  0.00     0.082 A 
HETATM   13  C8  UNL     1      30.072   9.305  28.888  1.00  0.00    -0.022 A 
HETATM   14  C15 UNL     1      29.830   9.963  30.199  1.00  0.00     0.136 A 
ENDROOT
BRANCH  13  15
HETATM   15  C9  UNL     1      29.280   8.088  28.549  1.00  0.00     0.204 C 
BRANCH  15  16
HETATM   16  O2  UNL     1      29.092   7.214  29.589  1.00  0.00    -0.387 OA
BRANCH  16  17
HETATM   17  C10 UNL     1      28.979   5.924  29.131  1.00  0.00     0.168 C 
BRANCH  17  18
HETATM   18  C11 UNL     1      30.201   5.095  29.362  1.00  0.00     0.026 C 
BRANCH  18  19
HETATM   19  C12 UNL     1      30.962   4.821  28.102  1.00  0.00     0.004 C 
BRANCH  19  20
HETATM   20  C13 UNL     1      32.283   5.524  28.084  1.00  0.00     0.027 C 
BRANCH  20  21
HETATM   21  C14 UNL     1      33.449   4.567  28.119  1.00  0.00     0.229 C 
BRANCH  21  22
HETATM   22  N5  UNL     1      32.975   3.214  27.826  1.00  0.00    -0.079 N 
ATOM     23  H53 UNL     1      33.496   2.502  28.339  1.00  0.00     0.274 HD
ATOM     24  H52 UNL     1      32.053   3.033  28.224  1.00  0.00     0.274 HD
ATOM     25  H51 UNL     1      32.999   3.058  26.818  1.00  0.00     0.274 HD
ENDBRANCH  21  22
ENDBRANCH  20  21
ENDBRANCH  19  20
ENDBRANCH  18  19
ENDBRANCH  17  18
ENDBRANCH  16  17
ENDBRANCH  15  16
ENDBRANCH  13  15
BRANCH  14  26
HETATM   26  C16 UNL     1      28.363  10.234  30.373  1.00  0.00     0.228 C 
HETATM   27  O3  UNL     1      27.834   9.943  31.473  1.00  0.00    -0.273 OA
HETATM   28  N6  UNL     1      27.557  10.792  29.368  1.00  0.00    -0.359 N 
ATOM     29  H6  UNL     1      28.011  11.023  28.485  1.00  0.00     0.162 HD
BRANCH  28  30
HETATM   30  C17 UNL     1      26.154  11.067  29.470  1.00  0.00     0.150 C 
BRANCH  30  31
HETATM   31  C18 UNL     1      25.254  10.073  28.833  1.00  0.00     0.255 C 
BRANCH  31  32
HETATM   32  N7  UNL     1      23.993  10.539  28.362  1.00  0.00    -0.077 N 
HETATM   33  C19 UNL     1      23.351   9.393  27.680  1.00  0.00     0.271 C 
HETATM   34  C20 UNL     1      24.110  11.576  27.329  1.00  0.00     0.271 C 
HETATM   35  C21 UNL     1      23.078  10.995  29.364  1.00  0.00     0.271 C 
ENDBRANCH  31  32
ENDBRANCH  30  31
ENDBRANCH  28  30
ENDBRANCH  14  26
BRANCH   1  36
HETATM   36  C2  UNL     1      31.531  10.727  31.730  1.00  0.00    -0.011 C 
HETATM   37  C1  UNL     1      32.705  11.287  31.865  1.00  0.00     0.009 C 
ENDBRANCH   1  36
BRANCH   7  38
HETATM   38  N3  UNL     1      33.602  11.505  25.447  1.00  0.00    -0.234 N 
ATOM     39  H32 UNL     1      34.602  11.480  25.648  1.00  0.00     0.174 HD
ATOM     40  H31 UNL     1      33.279  11.953  24.589  1.00  0.00     0.174 HD
ENDBRANCH   7  38
TORSDOF 14
ENDMDL
MODEL 2
REMARK VINA RESULT: -6.705386536      1.237      1.555
REMARK  14 active torsions:
REMARK  status: ('A' for Active; 'I' for Inactive)
REMARK    1  A    between atoms: C2_2  and  C3_3 
REMARK    2  A    between atoms: C5_9  and  N3_10 
REMARK    3  A    between atoms: C8_18  and  C9_19 
REMARK    4  A    between atoms: C9_19  and  O2_20 
REMARK    5  A    between atoms: O2_20  and  C10_21 
REMARK    6  A    between atoms: C10_21  and  C11_22 
REMARK    7  A    between atoms: C11_22  and  C12_23 
REMARK    8  A    between atoms: C12_23  and  C13_24 
REMARK    9  A    between atoms: C13_24  and  C14_25 
REMARK   10  A    between atoms: C14_25  and  N5_26 
REMARK   11  A    between atoms: C15_30  and  C16_31 
REMARK       I    between atoms: C16_31  and  N6_33 
REMARK   12  A    between atoms: N6_33  and  C17_35 
REMARK   13  A    between atoms: C17_35  and  C18_36 
REMARK   14  A    between atoms: C18_36  and  N7_37 
ROOT
HETATM    1  C3  UNL     1      31.537  11.130  30.983  1.00  0.00     0.122 A 
HETATM    2  N1  UNL     1      32.214  11.509  29.781  1.00  0.00    -0.366 N 
ATOM      3  H1  UNL     1      32.896  12.265  29.850  1.00  0.00     0.161 HD
HETATM    4  C4  UNL     1      32.043  10.991  28.641  1.00  0.00     0.133 A 
HETATM    5  N2  UNL     1      32.740  11.427  27.555  1.00  0.00    -0.176 N 
ATOM      6  H2  UNL     1      33.413  12.181  27.691  1.00  0.00     0.186 HD
HETATM    7  C5  UNL     1      32.599  10.929  26.324  1.00  0.00     0.680 A 
HETATM    8  N4  UNL     1      31.726   9.943  26.117  1.00  0.00    -0.155 N 
ATOM      9  H4  UNL     1      31.606   9.551  25.183  1.00  0.00     0.187 HD
HETATM   10  C6  UNL     1      31.001   9.463  27.152  1.00  0.00     0.274 A 
HETATM   11  O1  UNL     1      30.180   8.553  26.998  1.00  0.00    -0.267 OA
HETATM   12  C7  UNL     1      31.131   9.967  28.456  1.00  0.00     0.082 A 
HETATM   13  C8  UNL     1      30.388   9.464  29.427  1.00  0.00    -0.022 A 
HETATM   14  C15 UNL     1      30.516  10.090  30.769  1.00  0.00     0.136 A 
ENDROOT
BRANCH  13  15
HETATM   15  C9  UNL     1      29.404   8.357  29.251  1.00  0.00     0.204 C 
BRANCH  15  16
HETATM   16  O2  UNL     1      29.789   7.154  29.787  1.00  0.00    -0.387 OA
BRANCH  16  17
HETATM   17  C10 UNL     1      29.048   6.125  29.260  1.00  0.00     0.168 C 
BRANCH  17  18
HETATM   18  C11 UNL     1      29.838   5.197  28.395  1.00  0.00     0.026 C 
BRANCH  18  19
HETATM   19  C12 UNL     1      31.195   4.900  28.953  1.00  0.00     0.004 C 
BRANCH  19  20
HETATM   20  C13 UNL     1      32.283   5.533  28.143  1.00  0.00     0.027 C 
BRANCH  20  21
HETATM   21  C14 UNL     1      33.467   4.618  27.947  1.00  0.00     0.229 C 
BRANCH  21  22
HETATM   22  N5  UNL     1      32.996   3.239  27.804  1.00  0.00    -0.079 N 
ATOM     23  H53 UNL     1      33.212   2.671  28.623  1.00  0.00     0.274 HD
ATOM     24  H52 UNL     1      31.979   3.172  27.846  1.00  0.00     0.274 HD
ATOM     25  H51 UNL     1      33.375   2.840  26.946  1.00  0.00     0.274 HD
ENDBRANCH  21  22
ENDBRANCH  20  21
ENDBRANCH  19  20
ENDBRANCH  18  19
ENDBRANCH  17  18
ENDBRANCH  16  17
ENDBRANCH  15  16
ENDBRANCH  13  15
BRANCH  14  26
HETATM   26  C16 UNL     1      29.164  10.512  31.268  1.00  0.00     0.228 C 
HETATM   27  O3  UNL     1      28.772  10.060  32.371  1.00  0.00    -0.273 OA
HETATM   28  N6  UNL     1      28.319  11.384  30.563  1.00  0.00    -0.359 N 
ATOM     29  H6  UNL     1      28.662  11.741  29.672  1.00  0.00     0.162 HD
BRANCH  28  30
HETATM   30  C17 UNL     1      27.019  11.818  30.981  1.00  0.00     0.150 C 
BRANCH  30  31
HETATM   31  C18 UNL     1      25.953  11.751  29.950  1.00  0.00     0.255 C 
BRANCH  31  32
HETATM   32  N7  UNL     1      24.797  12.556  30.150  1.00  0.00    -0.077 N 
HETATM   33  C19 UNL     1      24.861  13.641  29.144  1.00  0.00     0.271 C 
HETATM   34  C20 UNL     1      24.789  13.245  31.447  1.00  0.00     0.271 C 
HETATM   35  C21 UNL     1      23.536  11.900  29.976  1.00  0.00     0.271 C 
ENDBRANCH  31  32
ENDBRANCH  30  31
ENDBRANCH  28  30
ENDBRANCH  14  26
BRANCH   1  36
HETATM   36  C2  UNL     1      32.587  10.597  31.898  1.00  0.00    -0.011 C 
HETATM   37  C1  UNL     1      33.732  11.221  31.996  1.00  0.00     0.009 C 
ENDBRANCH   1  36
BRANCH   7  38
HETATM   38  N3  UNL     1      33.313  11.405  25.326  1.00  0.00    -0.234 N 
ATOM     39  H32 UNL     1      33.546  12.398  25.286  1.00  0.00     0.174 HD
ATOM     40  H31 UNL     1      33.641  10.788  24.582  1.00  0.00     0.174 HD
ENDBRANCH   7  38
TORSDOF 14
ENDMDL
MODEL 3
REMARK VINA RESULT: -6.470816465      2.583      6.411
REMARK  14 active torsions:
REMARK  status: ('A' for Active; 'I' for Inactive)
REMARK    1  A    between atoms: C2_2  and  C3_3 
REMARK    2  A    between atoms: C5_9  and  N3_10 
REMARK    3  A    between atoms: C8_18  and  C9_19 
REMARK    4  A    between atoms: C9_19  and  O2_20 
REMARK    5  A    between atoms: O2_20  and  C10_21 
REMARK    6  A    between atoms: C10_21  and  C11_22 
REMARK    7  A    between atoms: C11_22  and  C12_23 
REMARK    8  A    between atoms: C12_23  and  C13_24 
REMARK    9  A    between atoms: C13_24  and  C14_25 
REMARK   10  A    between atoms: C14_25  and  N5_26 
REMARK   11  A    between atoms: C15_30  and  C16_31 
REMARK       I    between atoms: C16_31  and  N6_33 
REMARK   12  A    between atoms: N6_33  and  C17_35 
REMARK   13  A    between atoms: C17_35  and  C18_36 
REMARK   14  A    between atoms: C18_36  and  N7_37 
ROOT
HETATM    1  C3  UNL     1      28.363   9.490  30.343  1.00  0.00     0.122 A 
HETATM    2  N1  UNL     1      28.492   8.092  30.065  1.00  0.00    -0.366 N 
ATOM      3  H1  UNL     1      27.797   7.470  30.478  1.00  0.00     0.161 HD
HETATM    4  C4  UNL     1      29.391   7.560  29.354  1.00  0.00     0.133 A 
HETATM    5  N2  UNL     1      29.426   6.214  29.151  1.00  0.00    -0.176 N 
ATOM      6  H2  UNL     1      28.698   5.646  29.584  1.00  0.00     0.186 HD
HETATM    7  C5  UNL     1      30.352   5.589  28.419  1.00  0.00     0.680 A 
HETATM    8  N4  UNL     1      31.316   6.306  27.840  1.00  0.00    -0.155 N 
ATOM      9  H4  UNL     1      32.031   5.844  27.278  1.00  0.00     0.187 HD
HETATM   10  C6  UNL     1      31.340   7.648  28.002  1.00  0.00     0.274 A 
HETATM   11  O1  UNL     1      32.220   8.344  27.484  1.00  0.00    -0.267 OA
HETATM   12  C7  UNL     1      30.378   8.329  28.764  1.00  0.00     0.082 A 
HETATM   13  C8  UNL     1      30.459   9.642  28.894  1.00  0.00    -0.022 A 
HETATM   14  C15 UNL     1      29.456  10.297  29.773  1.00  0.00     0.136 A 
ENDROOT
BRANCH  13  15
HETATM   15  C9  UNL     1      31.510  10.490  28.262  1.00  0.00     0.204 C 
BRANCH  15  16
HETATM   16  O2  UNL     1      31.079  11.722  27.838  1.00  0.00    -0.387 OA
BRANCH  16  17
HETATM   17  C10 UNL     1      31.380  11.916  26.513  1.00  0.00     0.168 C 
BRANCH  17  18
HETATM   18  C11 UNL     1      30.457  11.206  25.576  1.00  0.00     0.026 C 
BRANCH  18  19
HETATM   19  C12 UNL     1      31.185  10.357  24.581  1.00  0.00     0.004 C 
BRANCH  19  20
HETATM   20  C13 UNL     1      32.666  10.561  24.649  1.00  0.00     0.027 C 
BRANCH  20  21
HETATM   21  C14 UNL     1      33.308  10.613  23.284  1.00  0.00     0.229 C 
BRANCH  21  22
HETATM   22  N5  UNL     1      32.313  10.271  22.267  1.00  0.00    -0.079 N 
ATOM     23  H53 UNL     1      31.358  10.364  22.614  1.00  0.00     0.274 HD
ATOM     24  H52 UNL     1      32.265  10.968  21.524  1.00  0.00     0.274 HD
ATOM     25  H51 UNL     1      32.505   9.336  21.908  1.00  0.00     0.274 HD
ENDBRANCH  21  22
ENDBRANCH  20  21
ENDBRANCH  19  20
ENDBRANCH  18  19
ENDBRANCH  17  18
ENDBRANCH  16  17
ENDBRANCH  15  16
ENDBRANCH  13  15
BRANCH  14  26
HETATM   26  C16 UNL     1      30.152  11.124  30.817  1.00  0.00     0.228 C 
HETATM   27  O3  UNL     1      30.658  10.532  31.801  1.00  0.00    -0.273 OA
HETATM   28  N6  UNL     1      30.261  12.522  30.747  1.00  0.00    -0.359 N 
ATOM     29  H6  UNL     1      29.845  12.979  29.936  1.00  0.00     0.162 HD
BRANCH  28  30
HETATM   30  C17 UNL     1      30.904  13.366  31.710  1.00  0.00     0.150 C 
BRANCH  30  31
HETATM   31  C18 UNL     1      32.056  14.156  31.209  1.00  0.00     0.255 C 
BRANCH  31  32
HETATM   32  N7  UNL     1      33.351  13.578  31.335  1.00  0.00    -0.077 N 
HETATM   33  C19 UNL     1      33.369  12.868  32.634  1.00  0.00     0.271 C 
HETATM   34  C20 UNL     1      34.422  14.578  31.436  1.00  0.00     0.271 C 
HETATM   35  C21 UNL     1      33.713  12.623  30.332  1.00  0.00     0.271 C 
ENDBRANCH  31  32
ENDBRANCH  30  31
ENDBRANCH  28  30
ENDBRANCH  14  26
BRANCH   1  36
HETATM   36  C2  UNL     1      27.074   9.917  29.726  1.00  0.00    -0.011 C 
HETATM   37  C1  UNL     1      27.045  10.250  28.461  1.00  0.00     0.009 C 
ENDBRANCH   1  36
BRANCH   7  38
HETATM   38  N3  UNL     1      30.314   4.281  28.270  1.00  0.00    -0.234 N 
ATOM     39  H32 UNL     1      29.670   3.718  28.824  1.00  0.00     0.174 HD
ATOM     40  H31 UNL     1      30.929   3.819  27.599  1.00  0.00     0.174 HD
ENDBRANCH   7  38
TORSDOF 14
ENDMDL
MODEL 4
REMARK VINA RESULT: -6.393234403      2.621      6.584
REMARK  14 active torsions:
REMARK  status: ('A' for Active; 'I' for Inactive)
REMARK    1  A    between atoms: C2_2  and  C3_3 
REMARK    2  A    between atoms: C5_9  and  N3_10 
REMARK    3  A    between atoms: C8_18  and  C9_19 
REMARK    4  A    between atoms: C9_19  and  O2_20 
REMARK    5  A    between atoms: O2_20  and  C10_21 
REMARK    6  A    between atoms: C10_21  and  C11_22 
REMARK    7  A    between atoms: C11_22  and  C12_23 
REMARK    8  A    between atoms: C12_23  and  C13_24 
REMARK    9  A    between atoms: C13_24  and  C14_25 
REMARK   10  A    between atoms: C14_25  and  N5_26 
REMARK   11  A    between atoms: C15_30  and  C16_31 
REMARK       I    between atoms: C16_31  and  N6_33 
REMARK   12  A    between atoms: N6_33  and  C17_35 
REMARK   13  A    between atoms: C17_35  and  C18_36 
REMARK   14  A    between atoms: C18_36  and  N7_37 
ROOT
HETATM    1  C3  UNL     1      28.345   9.487  30.286  1.00  0.00     0.122 A 
HETATM    2  N1  UNL     1      28.473   8.084  30.037  1.00  0.00    -0.366 N 
ATOM      3  H1  UNL     1      27.781   7.470  30.468  1.00  0.00     0.161 HD
HETATM    4  C4  UNL     1      29.369   7.537  29.333  1.00  0.00     0.133 A 
HETATM    5  N2  UNL     1      29.403   6.187  29.158  1.00  0.00    -0.176 N 
ATOM      6  H2  UNL     1      28.679   5.628  29.608  1.00  0.00     0.186 HD
HETATM    7  C5  UNL     1      30.326   5.547  28.435  1.00  0.00     0.680 A 
HETATM    8  N4  UNL     1      31.286   6.252  27.836  1.00  0.00    -0.155 N 
ATOM      9  H4  UNL     1      31.998   5.778  27.280  1.00  0.00     0.187 HD
HETATM   10  C6  UNL     1      31.310   7.597  27.968  1.00  0.00     0.274 A 
HETATM   11  O1  UNL     1      32.186   8.282  27.431  1.00  0.00    -0.267 OA
HETATM   12  C7  UNL     1      30.352   8.294  28.721  1.00  0.00     0.082 A 
HETATM   13  C8  UNL     1      30.433   9.609  28.821  1.00  0.00    -0.022 A 
HETATM   14  C15 UNL     1      29.434  10.282  29.693  1.00  0.00     0.136 A 
ENDROOT
BRANCH  13  15
HETATM   15  C9  UNL     1      31.479  10.444  28.166  1.00  0.00     0.204 C 
BRANCH  15  16
HETATM   16  O2  UNL     1      31.008  11.562  27.525  1.00  0.00    -0.387 OA
BRANCH  16  17
HETATM   17  C10 UNL     1      31.071  11.408  26.162  1.00  0.00     0.168 C 
BRANCH  17  18
HETATM   18  C11 UNL     1      32.464  11.279  25.636  1.00  0.00     0.026 C 
BRANCH  18  19
HETATM   19  C12 UNL     1      32.512  10.652  24.277  1.00  0.00     0.004 C 
BRANCH  19  20
HETATM   20  C13 UNL     1      31.169  10.648  23.616  1.00  0.00     0.027 C 
BRANCH  20  21
HETATM   21  C14 UNL     1      31.257  10.429  22.125  1.00  0.00     0.229 C 
BRANCH  21  22
HETATM   22  N5  UNL     1      31.288  11.724  21.446  1.00  0.00    -0.079 N 
ATOM     23  H53 UNL     1      30.749  11.720  20.580  1.00  0.00     0.274 HD
ATOM     24  H52 UNL     1      30.754  12.436  21.945  1.00  0.00     0.274 HD
ATOM     25  H51 UNL     1      32.258  12.003  21.295  1.00  0.00     0.274 HD
ENDBRANCH  21  22
ENDBRANCH  20  21
ENDBRANCH  19  20
ENDBRANCH  18  19
ENDBRANCH  17  18
ENDBRANCH  16  17
ENDBRANCH  15  16
ENDBRANCH  13  15
BRANCH  14  26
HETATM   26  C16 UNL     1      30.136  11.132  30.714  1.00  0.00     0.228 C 
HETATM   27  O3  UNL     1      30.629  10.564  31.719  1.00  0.00    -0.273 OA
HETATM   28  N6  UNL     1      30.263  12.525  30.602  1.00  0.00    -0.359 N 
ATOM     29  H6  UNL     1      29.858  12.962  29.774  1.00  0.00     0.162 HD
BRANCH  28  30
HETATM   30  C17 UNL     1      30.912  13.390  31.542  1.00  0.00     0.150 C 
BRANCH  30  31
HETATM   31  C18 UNL     1      32.149  14.055  31.061  1.00  0.00     0.255 C 
BRANCH  31  32
HETATM   32  N7  UNL     1      33.385  13.394  31.305  1.00  0.00    -0.077 N 
HETATM   33  C19 UNL     1      34.419  14.451  31.382  1.00  0.00     0.271 C 
HETATM   34  C20 UNL     1      33.808  12.532  30.194  1.00  0.00     0.271 C 
HETATM   35  C21 UNL     1      33.467  12.641  32.520  1.00  0.00     0.271 C 
ENDBRANCH  31  32
ENDBRANCH  30  31
ENDBRANCH  28  30
ENDBRANCH  14  26
BRANCH   1  36
HETATM   36  C2  UNL     1      27.052   9.900  29.667  1.00  0.00    -0.011 C 
HETATM   37  C1  UNL     1      27.009  10.174  28.389  1.00  0.00     0.009 C 
ENDBRANCH   1  36
BRANCH   7  38
HETATM   38  N3  UNL     1      30.288   4.236  28.314  1.00  0.00    -0.234 N 
ATOM     39  H32 UNL     1      31.097   3.671  28.574  1.00  0.00     0.174 HD
ATOM     40  H31 UNL     1      29.451   3.772  27.960  1.00  0.00     0.174 HD
ENDBRANCH   7  38
TORSDOF 14
ENDMDL
MODEL 5
REMARK VINA RESULT: -6.382133265      1.587      1.928
REMARK  14 active torsions:
REMARK  status: ('A' for Active; 'I' for Inactive)
REMARK    1  A    between atoms: C2_2  and  C3_3 
REMARK    2  A    between atoms: C5_9  and  N3_10 
REMARK    3  A    between atoms: C8_18  and  C9_19 
REMARK    4  A    between atoms: C9_19  and  O2_20 
REMARK    5  A    between atoms: O2_20  and  C10_21 
REMARK    6  A    between atoms: C10_21  and  C11_22 
REMARK    7  A    between atoms: C11_22  and  C12_23 
REMARK    8  A    between atoms: C12_23  and  C13_24 
REMARK    9  A    between atoms: C13_24  and  C14_25 
REMARK   10  A    between atoms: C14_25  and  N5_26 
REMARK   11  A    between atoms: C15_30  and  C16_31 
REMARK       I    between atoms: C16_31  and  N6_33 
REMARK   12  A    between atoms: N6_33  and  C17_35 
REMARK   13  A    between atoms: C17_35  and  C18_36 
REMARK   14  A    between atoms: C18_36  and  N7_37 
ROOT
HETATM    1  C3  UNL     1      29.124  11.594  30.013  1.00  0.00     0.122 A 
HETATM    2  N1  UNL     1      30.395  12.163  29.685  1.00  0.00    -0.366 N 
ATOM      3  H1  UNL     1      30.629  13.058  30.115  1.00  0.00     0.161 HD
HETATM    4  C4  UNL     1      31.254  11.655  28.909  1.00  0.00     0.133 A 
HETATM    5  N2  UNL     1      32.439  12.278  28.661  1.00  0.00    -0.176 N 
ATOM      6  H2  UNL     1      32.617  13.167  29.128  1.00  0.00     0.186 HD
HETATM    7  C5  UNL     1      33.383  11.800  27.847  1.00  0.00     0.680 A 
HETATM    8  N4  UNL     1      33.176  10.640  27.223  1.00  0.00    -0.155 N 
ATOM      9  H4  UNL     1      33.887  10.261  26.597  1.00  0.00     0.187 HD
HETATM   10  C6  UNL     1      32.021   9.968  27.424  1.00  0.00     0.274 A 
HETATM   11  O1  UNL     1      31.793   8.893  26.860  1.00  0.00    -0.267 OA
HETATM   12  C7  UNL     1      31.013  10.448  28.276  1.00  0.00     0.082 A 
HETATM   13  C8  UNL     1      29.900   9.751  28.427  1.00  0.00    -0.022 A 
HETATM   14  C15 UNL     1      28.841  10.346  29.282  1.00  0.00     0.136 A 
ENDROOT
BRANCH  13  15
HETATM   15  C9  UNL     1      29.623   8.446  27.760  1.00  0.00     0.204 C 
BRANCH  15  16
HETATM   16  O2  UNL     1      29.010   7.512  28.554  1.00  0.00    -0.387 OA
BRANCH  16  17
HETATM   17  C10 UNL     1      29.935   6.789  29.266  1.00  0.00     0.168 C 
BRANCH  17  18
HETATM   18  C11 UNL     1      29.708   5.313  29.223  1.00  0.00     0.026 C 
BRANCH  18  19
HETATM   19  C12 UNL     1      30.647   4.609  28.295  1.00  0.00     0.004 C 
BRANCH  19  20
HETATM   20  C13 UNL     1      31.821   5.465  27.934  1.00  0.00     0.027 C 
BRANCH  20  21
HETATM   21  C14 UNL     1      33.139   4.756  28.131  1.00  0.00     0.229 C 
BRANCH  21  22
HETATM   22  N5  UNL     1      33.823   4.637  26.842  1.00  0.00    -0.079 N 
ATOM     23  H53 UNL     1      33.439   5.271  26.141  1.00  0.00     0.274 HD
ATOM     24  H52 UNL     1      34.771   5.011  26.873  1.00  0.00     0.274 HD
ATOM     25  H51 UNL     1      33.800   3.664  26.537  1.00  0.00     0.274 HD
ENDBRANCH  21  22
ENDBRANCH  20  21
ENDBRANCH  19  20
ENDBRANCH  18  19
ENDBRANCH  17  18
ENDBRANCH  16  17
ENDBRANCH  15  16
ENDBRANCH  13  15
BRANCH  14  26
HETATM   26  C16 UNL     1      27.548  10.416  28.522  1.00  0.00     0.228 C 
HETATM   27  O3  UNL     1      27.396  11.348  27.696  1.00  0.00    -0.273 OA
HETATM   28  N6  UNL     1      26.502   9.495  28.692  1.00  0.00    -0.359 N 
ATOM     29  H6  UNL     1      26.651   8.745  29.367  1.00  0.00     0.162 HD
BRANCH  28  30
HETATM   30  C17 UNL     1      25.244   9.512  28.005  1.00  0.00     0.150 C 
BRANCH  30  31
HETATM   31  C18 UNL     1      24.164  10.295  28.655  1.00  0.00     0.255 C 
BRANCH  31  32
HETATM   32  N7  UNL     1      23.029  10.628  27.863  1.00  0.00    -0.077 N 
HETATM   33  C19 UNL     1      23.292  11.969  27.295  1.00  0.00     0.271 C 
HETATM   34  C20 UNL     1      21.800  10.787  28.653  1.00  0.00     0.271 C 
HETATM   35  C21 UNL     1      22.752   9.755  26.763  1.00  0.00     0.271 C 
ENDBRANCH  31  32
ENDBRANCH  30  31
ENDBRANCH  28  30
ENDBRANCH  14  26
BRANCH   1  36
HETATM   36  C2  UNL     1      29.167  11.300  31.475  1.00  0.00    -0.011 C 
HETATM   37  C1  UNL     1      28.481  10.292  31.949  1.00  0.00     0.009 C 
ENDBRANCH   1  36
BRANCH   7  38
HETATM   38  N3  UNL     1      34.504  12.465  27.661  1.00  0.00    -0.234 N 
ATOM     39  H32 UNL     1      35.217  12.486  28.390  1.00  0.00     0.174 HD
ATOM     40  H31 UNL     1      34.670  12.966  26.788  1.00  0.00     0.174 HD
ENDBRANCH   7  38
TORSDOF 14
ENDMDL
