MODEL 1
REMARK VINA RESULT: -7.192740011      0.000      0.000
REMARK  12 active torsions:
REMARK  status: ('A' for Active; 'I' for Inactive)
REMARK    1  A    between atoms: C2_2  and  C3_3 
REMARK    2  A    between atoms: C3_3  and  C4_4 
REMARK    3  A    between atoms: C4_4  and  C5_5 
REMARK    4  A    between atoms: C5_5  and  C6_6 
REMARK    5  A    between atoms: C5_5  and  N5_19 
REMARK       I    between atoms: C6_6  and  N1_8 
REMARK    6  A    between atoms: N1_8  and  C7_10 
REMARK    7  A    between atoms: C7_10  and  C8_11 
REMARK    8  A    between atoms: C8_11  and  N2_12 
REMARK       I    between atoms: N2_12  and  C9_14 
REMARK    9  A    between atoms: C12_22  and  C13_23 
REMARK       I    between atoms: C13_23  and  N6_25 
REMARK   10  A    between atoms: N7_32  and  C19_34 
REMARK   11  A    between atoms: C19_34  and  C20_35 
REMARK   12  A    between atoms: C20_35  and  N8_36 
ROOT
HETATM    1  N5  UNL     1      29.509  10.444  28.340  1.00  0.00    -0.357 N 
HETATM    2  C10 UNL     1      28.333  11.240  27.966  1.00  0.00     0.126 C 
HETATM    3  C11 UNL     1      28.929  12.393  27.111  1.00  0.00     0.042 C 
HETATM    4  C12 UNL     1      29.991  11.541  26.389  1.00  0.00     0.146 C 
HETATM    5  C18 UNL     1      30.630  10.898  27.552  1.00  0.00     0.089 C 
HETATM    6  N7  UNL     1      31.840  10.771  27.814  1.00  0.00    -0.378 N 
ATOM      7  H7  UNL     1      31.987  10.285  28.699  1.00  0.00     0.160 HD
ENDROOT
BRANCH   1   8
HETATM    8  C5  UNL     1      29.462   9.441  29.331  1.00  0.00     0.177 C 
BRANCH   8   9
HETATM    9  C4  UNL     1      30.464   9.513  30.443  1.00  0.00     0.039 C 
BRANCH   9  10
HETATM   10  C3  UNL     1      30.318  10.715  31.311  1.00  0.00     0.029 C 
BRANCH  10  11
HETATM   11  C2  UNL     1      31.621  11.402  31.439  1.00  0.00    -0.037 C 
HETATM   12  C1  UNL     1      32.692  10.789  31.910  1.00  0.00     0.007 C 
ENDBRANCH  10  11
ENDBRANCH   9  10
ENDBRANCH   8   9
BRANCH   8  13
HETATM   13  C6  UNL     1      29.418   8.040  28.819  1.00  0.00     0.240 C 
HETATM   14  O1  UNL     1      29.729   7.754  27.636  1.00  0.00    -0.271 OA
HETATM   15  N1  UNL     1      29.018   6.956  29.650  1.00  0.00    -0.358 N 
ATOM     16  H1  UNL     1      28.757   7.154  30.616  1.00  0.00     0.162 HD
BRANCH  15  17
HETATM   17  C7  UNL     1      28.964   5.591  29.191  1.00  0.00     0.142 C 
BRANCH  17  18
HETATM   18  C8  UNL     1      30.172   4.805  29.594  1.00  0.00     0.142 C 
BRANCH  18  19
HETATM   19  N2  UNL     1      30.815   4.282  28.423  1.00  0.00    -0.363 N 
HETATM   20  C9  UNL     1      32.200   4.478  28.149  1.00  0.00     0.181 C 
HETATM   21  N3  UNL     1      32.922   3.487  27.802  1.00  0.00    -0.374 N 
HETATM   22  N4  UNL     1      32.710   5.785  28.278  1.00  0.00    -0.064 NA
ATOM     23  H32 UNL     1      32.553   2.541  27.709  1.00  0.00     0.158 HD
ATOM     24  H31 UNL     1      33.913   3.627  27.606  1.00  0.00     0.158 HD
ATOM     25  H2  UNL     1      30.257   3.747  27.757  1.00  0.00     0.162 HD
ENDBRANCH  18  19
ENDBRANCH  17  18
ENDBRANCH  15  17
ENDBRANCH   8  13
ENDBRANCH   1   8
BRANCH   4  26
HETATM   26  C13 UNL     1      30.774  12.223  25.416  1.00  0.00     0.231 C 
HETATM   27  O2  UNL     1      31.125  13.432  25.696  1.00  0.00    -0.273 OA
HETATM   28  N6  UNL     1      31.198  11.714  24.188  1.00  0.00    -0.347 N 
HETATM   29  C14 UNL     1      30.971  10.413  23.628  1.00  0.00     0.152 C 
HETATM   30  C17 UNL     1      31.999  12.611  23.311  1.00  0.00     0.152 C 
HETATM   31  C15 UNL     1      31.426  10.484  22.158  1.00  0.00     0.187 C 
HETATM   32  O3  UNL     1      30.859  11.548  21.499  1.00  0.00    -0.388 OA
HETATM   33  C16 UNL     1      31.220  12.778  22.049  1.00  0.00     0.187 C 
ENDBRANCH   4  26
BRANCH   6  34
HETATM   34  C19 UNL     1      33.049  11.123  27.208  1.00  0.00     0.148 C 
BRANCH  34  35
HETATM   35  C20 UNL     1      33.692  12.292  27.989  1.00  0.00     0.249 C 
BRANCH  35  36
HETATM   36  N8  UNL     1      34.599  11.734  28.940  1.00  0.00    -0.078 N 
ATOM     37  H83 UNL     1      34.201  11.670  29.877  1.00  0.00     0.274 HD
ATOM     38  H82 UNL     1      34.763  10.739  28.795  1.00  0.00     0.274 HD
ATOM     39  H81 UNL     1      35.458  12.285  28.912  1.00  0.00     0.274 HD
ENDBRANCH  35  36
ENDBRANCH  34  35
ENDBRANCH   6  34
TORSDOF 12
ENDMDL
MODEL 2
REMARK VINA RESULT: -7.095450892      3.383      5.180
REMARK  12 active torsions:
REMARK  status: ('A' for Active; 'I' for Inactive)
REMARK    1  A    between atoms: C2_2  and  C3_3 
REMARK    2  A    between atoms: C3_3  and  C4_4 
REMARK    3  A    between atoms: C4_4  and  C5_5 
REMARK    4  A    between atoms: C5_5  and  C6_6 
REMARK    5  A    between atoms: C5_5  and  N5_19 
REMARK       I    between atoms: C6_6  and  N1_8 
REMARK    6  A    between atoms: N1_8  and  C7_10 
REMARK    7  A    between atoms: C7_10  and  C8_11 
REMARK    8  A    between atoms: C8_11  and  N2_12 
REMARK       I    between atoms: N2_12  and  C9_14 
REMARK    9  A    between atoms: C12_22  and  C13_23 
REMARK       I    between atoms: C13_23  and  N6_25 
REMARK   10  A    between atoms: N7_32  and  C19_34 
REMARK   11  A    between atoms: C19_34  and  C20_35 
REMARK   12  A    between atoms: C20_35  and  N8_36 
ROOT
HETATM    1  N5  UNL     1      29.204  10.183  30.566  1.00  0.00    -0.357 N 
HETATM    2  C10 UNL     1      28.560  10.369  31.873  1.00  0.00     0.126 C 
HETATM    3  C11 UNL     1      27.467  11.438  31.592  1.00  0.00     0.042 C 
HETATM    4  C12 UNL     1      27.065  10.913  30.201  1.00  0.00     0.146 C 
HETATM    5  C18 UNL     1      28.393  10.839  29.567  1.00  0.00     0.089 C 
HETATM    6  N7  UNL     1      28.754  11.241  28.445  1.00  0.00    -0.378 N 
ATOM      7  H7  UNL     1      29.743  11.058  28.277  1.00  0.00     0.160 HD
ENDROOT
BRANCH   1   8
HETATM    8  C5  UNL     1      30.421   9.488  30.412  1.00  0.00     0.177 C 
BRANCH   8   9
HETATM    9  C4  UNL     1      31.640  10.285  30.060  1.00  0.00     0.039 C 
BRANCH   9  10
HETATM   10  C3  UNL     1      31.848  11.482  30.922  1.00  0.00     0.029 C 
BRANCH  10  11
HETATM   11  C2  UNL     1      32.556  11.092  32.159  1.00  0.00    -0.037 C 
HETATM   12  C1  UNL     1      33.834  10.759  32.159  1.00  0.00     0.007 C 
ENDBRANCH  10  11
ENDBRANCH   9  10
ENDBRANCH   8   9
BRANCH   8  13
HETATM   13  C6  UNL     1      30.363   8.289  29.525  1.00  0.00     0.240 C 
HETATM   14  O1  UNL     1      31.109   8.168  28.521  1.00  0.00    -0.271 OA
HETATM   15  N1  UNL     1      29.456   7.221  29.773  1.00  0.00    -0.358 N 
ATOM     16  H1  UNL     1      28.835   7.289  30.579  1.00  0.00     0.162 HD
BRANCH  15  17
HETATM   17  C7  UNL     1      29.373   6.048  28.939  1.00  0.00     0.142 C 
BRANCH  17  18
HETATM   18  C8  UNL     1      30.262   4.944  29.418  1.00  0.00     0.142 C 
BRANCH  18  19
HETATM   19  N2  UNL     1      30.921   4.341  28.295  1.00  0.00    -0.363 N 
HETATM   20  C9  UNL     1      32.339   4.311  28.156  1.00  0.00     0.181 C 
HETATM   21  N3  UNL     1      32.922   3.220  27.847  1.00  0.00    -0.374 N 
HETATM   22  N4  UNL     1      33.040   5.514  28.372  1.00  0.00    -0.064 NA
ATOM     23  H32 UNL     1      32.414   2.349  27.690  1.00  0.00     0.158 HD
ATOM     24  H31 UNL     1      33.936   3.199  27.747  1.00  0.00     0.158 HD
ATOM     25  H2  UNL     1      30.350   3.915  27.564  1.00  0.00     0.162 HD
ENDBRANCH  18  19
ENDBRANCH  17  18
ENDBRANCH  15  17
ENDBRANCH   8  13
ENDBRANCH   1   8
BRANCH   4  26
HETATM   26  C13 UNL     1      25.995  11.603  29.565  1.00  0.00     0.231 C 
HETATM   27  O2  UNL     1      25.874  12.860  29.831  1.00  0.00    -0.273 OA
HETATM   28  N6  UNL     1      25.062  11.056  28.683  1.00  0.00    -0.347 N 
HETATM   29  C14 UNL     1      24.965   9.708  28.201  1.00  0.00     0.152 C 
HETATM   30  C17 UNL     1      24.011  11.961  28.145  1.00  0.00     0.152 C 
HETATM   31  C15 UNL     1      23.610   9.600  27.476  1.00  0.00     0.187 C 
HETATM   32  O3  UNL     1      22.575  10.053  28.258  1.00  0.00    -0.388 OA
HETATM   33  C16 UNL     1      22.700  11.402  28.590  1.00  0.00     0.187 C 
ENDBRANCH   4  26
BRANCH   6  34
HETATM   34  C19 UNL     1      28.151  11.879  27.358  1.00  0.00     0.148 C 
BRANCH  34  35
HETATM   35  C20 UNL     1      28.454  13.393  27.420  1.00  0.00     0.249 C 
BRANCH  35  36
HETATM   36  N8  UNL     1      27.214  14.091  27.291  1.00  0.00    -0.078 N 
ATOM     37  H83 UNL     1      26.443  13.482  27.020  1.00  0.00     0.274 HD
ATOM     38  H82 UNL     1      26.836  14.396  28.188  1.00  0.00     0.274 HD
ATOM     39  H81 UNL     1      27.358  14.863  26.639  1.00  0.00     0.274 HD
ENDBRANCH  35  36
ENDBRANCH  34  35
ENDBRANCH   6  34
TORSDOF 12
ENDMDL
MODEL 3
REMARK VINA RESULT: -6.848150150      3.039      5.421
REMARK  12 active torsions:
REMARK  status: ('A' for Active; 'I' for Inactive)
REMARK    1  A    between atoms: C2_2  and  C3_3 
REMARK    2  A    between atoms: C3_3  and  C4_4 
REMARK    3  A    between atoms: C4_4  and  C5_5 
REMARK    4  A    between atoms: C5_5  and  C6_6 
REMARK    5  A    between atoms: C5_5  and  N5_19 
REMARK       I    between atoms: C6_6  and  N1_8 
REMARK    6  A    between atoms: N1_8  and  C7_10 
REMARK    7  A    between atoms: C7_10  and  C8_11 
REMARK    8  A    between atoms: C8_11  and  N2_12 
REMARK       I    between atoms: N2_12  and  C9_14 
REMARK    9  A    between atoms: C12_22  and  C13_23 
REMARK       I    between atoms: C13_23  and  N6_25 
REMARK   10  A    between atoms: N7_32  and  C19_34 
REMARK   11  A    between atoms: C19_34  and  C20_35 
REMARK   12  A    between atoms: C20_35  and  N8_36 
ROOT
HETATM    1  N5  UNL     1      29.712  10.817  30.452  1.00  0.00    -0.357 N 
HETATM    2  C10 UNL     1      29.192  10.350  31.744  1.00  0.00     0.126 C 
HETATM    3  C11 UNL     1      27.813  11.058  31.858  1.00  0.00     0.042 C 
HETATM    4  C12 UNL     1      27.427  10.927  30.372  1.00  0.00     0.146 C 
HETATM    5  C18 UNL     1      28.641  11.481  29.748  1.00  0.00     0.089 C 
HETATM    6  N7  UNL     1      28.743  12.323  28.837  1.00  0.00    -0.378 N 
ATOM      7  H7  UNL     1      29.718  12.522  28.612  1.00  0.00     0.160 HD
ENDROOT
BRANCH   1   8
HETATM    8  C5  UNL     1      31.053  10.624  30.061  1.00  0.00     0.177 C 
BRANCH   8   9
HETATM    9  C4  UNL     1      31.975  11.805  30.124  1.00  0.00     0.039 C 
BRANCH   9  10
HETATM   10  C3  UNL     1      32.397  12.167  31.506  1.00  0.00     0.029 C 
BRANCH  10  11
HETATM   11  C2  UNL     1      32.936  10.974  32.193  1.00  0.00    -0.037 C 
HETATM   12  C1  UNL     1      34.228  10.702  32.215  1.00  0.00     0.007 C 
ENDBRANCH  10  11
ENDBRANCH   9  10
ENDBRANCH   8   9
BRANCH   8  13
HETATM   13  C6  UNL     1      31.243   9.942  28.746  1.00  0.00     0.240 C 
HETATM   14  O1  UNL     1      31.143  10.559  27.656  1.00  0.00    -0.271 OA
HETATM   15  N1  UNL     1      31.546   8.555  28.665  1.00  0.00    -0.358 N 
ATOM     16  H1  UNL     1      31.632   8.024  29.531  1.00  0.00     0.162 HD
BRANCH  15  17
HETATM   17  C7  UNL     1      31.737   7.863  27.414  1.00  0.00     0.142 C 
BRANCH  17  18
HETATM   18  C8  UNL     1      31.314   6.429  27.483  1.00  0.00     0.142 C 
BRANCH  18  19
HETATM   19  N2  UNL     1      32.426   5.623  27.898  1.00  0.00    -0.363 N 
HETATM   20  C9  UNL     1      32.289   4.259  28.285  1.00  0.00     0.181 C 
HETATM   21  N3  UNL     1      33.081   3.383  27.806  1.00  0.00    -0.374 N 
HETATM   22  N4  UNL     1      31.263   3.941  29.198  1.00  0.00    -0.064 NA
ATOM     23  H32 UNL     1      33.823   3.613  27.145  1.00  0.00     0.158 HD
ATOM     24  H31 UNL     1      32.983   2.406  28.084  1.00  0.00     0.158 HD
ATOM     25  H2  UNL     1      33.355   6.045  27.916  1.00  0.00     0.162 HD
ENDBRANCH  18  19
ENDBRANCH  17  18
ENDBRANCH  15  17
ENDBRANCH   8  13
ENDBRANCH   1   8
BRANCH   4  26
HETATM   26  C13 UNL     1      26.139  11.422  30.022  1.00  0.00     0.231 C 
HETATM   27  O2  UNL     1      25.751  12.501  30.612  1.00  0.00    -0.273 OA
HETATM   28  N6  UNL     1      25.254  10.855  29.104  1.00  0.00    -0.347 N 
HETATM   29  C14 UNL     1      25.426   9.679  28.299  1.00  0.00     0.152 C 
HETATM   30  C17 UNL     1      23.946  11.534  28.901  1.00  0.00     0.152 C 
HETATM   31  C15 UNL     1      24.050   9.371  27.679  1.00  0.00     0.187 C 
HETATM   32  O3  UNL     1      23.059   9.330  28.629  1.00  0.00    -0.388 OA
HETATM   33  C16 UNL     1      22.892  10.548  29.288  1.00  0.00     0.187 C 
ENDBRANCH   4  26
BRANCH   6  34
HETATM   34  C19 UNL     1      27.865  13.066  28.043  1.00  0.00     0.148 C 
BRANCH  34  35
HETATM   35  C20 UNL     1      28.551  13.408  26.701  1.00  0.00     0.249 C 
BRANCH  35  36
HETATM   36  N8  UNL     1      29.246  12.241  26.257  1.00  0.00    -0.078 N 
ATOM     37  H83 UNL     1      29.243  11.491  26.948  1.00  0.00     0.274 HD
ATOM     38  H82 UNL     1      28.751  11.743  25.517  1.00  0.00     0.274 HD
ATOM     39  H81 UNL     1      30.187  12.524  25.983  1.00  0.00     0.274 HD
ENDBRANCH  35  36
ENDBRANCH  34  35
ENDBRANCH   6  34
TORSDOF 12
ENDMDL
MODEL 4
REMARK VINA RESULT: -6.828739516      1.271      1.717
REMARK  12 active torsions:
REMARK  status: ('A' for Active; 'I' for Inactive)
REMARK    1  A    between atoms: C2_2  and  C3_3 
REMARK    2  A    between atoms: C3_3  and  C4_4 
REMARK    3  A    between atoms: C4_4  and  C5_5 
REMARK    4  A    between atoms: C5_5  and  C6_6 
REMARK    5  A    between atoms: C5_5  and  N5_19 
REMARK       I    between atoms: C6_6  and  N1_8 
REMARK    6  A    between atoms: N1_8  and  C7_10 
REMARK    7  A    between atoms: C7_10  and  C8_11 
REMARK    8  A    between atoms: C8_11  and  N2_12 
REMARK       I    between atoms: N2_12  and  C9_14 
REMARK    9  A    between atoms: C12_22  and  C13_23 
REMARK       I    between atoms: C13_23  and  N6_25 
REMARK   10  A    between atoms: N7_32  and  C19_34 
REMARK   11  A    between atoms: C19_34  and  C20_35 
REMARK   12  A    between atoms: C20_35  and  N8_36 
ROOT
HETATM    1  N5  UNL     1      29.323  10.581  28.666  1.00  0.00    -0.357 N 
HETATM    2  C10 UNL     1      28.084  11.018  28.008  1.00  0.00     0.126 C 
HETATM    3  C11 UNL     1      28.561  12.135  27.038  1.00  0.00     0.042 C 
HETATM    4  C12 UNL     1      29.879  11.453  26.623  1.00  0.00     0.146 C 
HETATM    5  C18 UNL     1      30.438  11.158  27.953  1.00  0.00     0.089 C 
HETATM    6  N7  UNL     1      31.590  11.355  28.384  1.00  0.00    -0.378 N 
ATOM      7  H7  UNL     1      31.688  11.054  29.354  1.00  0.00     0.160 HD
ENDROOT
BRANCH   1   8
HETATM    8  C5  UNL     1      29.323   9.756  29.809  1.00  0.00     0.177 C 
BRANCH   8   9
HETATM    9  C4  UNL     1      29.725  10.374  31.115  1.00  0.00     0.039 C 
BRANCH   9  10
HETATM   10  C3  UNL     1      29.092  11.697  31.375  1.00  0.00     0.029 C 
BRANCH  10  11
HETATM   11  C2  UNL     1      27.681  11.507  31.775  1.00  0.00    -0.037 C 
HETATM   12  C1  UNL     1      26.697  12.185  31.213  1.00  0.00     0.007 C 
ENDBRANCH  10  11
ENDBRANCH   9  10
ENDBRANCH   8   9
BRANCH   8  13
HETATM   13  C6  UNL     1      30.041   8.456  29.658  1.00  0.00     0.240 C 
HETATM   14  O1  UNL     1      31.294   8.391  29.590  1.00  0.00    -0.271 OA
HETATM   15  N1  UNL     1      29.337   7.222  29.580  1.00  0.00    -0.358 N 
ATOM     16  H1  UNL     1      28.318   7.239  29.630  1.00  0.00     0.162 HD
BRANCH  15  17
HETATM   17  C7  UNL     1      29.996   5.948  29.435  1.00  0.00     0.142 C 
BRANCH  17  18
HETATM   18  C8  UNL     1      30.508   5.724  28.047  1.00  0.00     0.142 C 
BRANCH  18  19
HETATM   19  N2  UNL     1      31.942   5.782  28.052  1.00  0.00    -0.363 N 
HETATM   20  C9  UNL     1      32.761   4.647  27.786  1.00  0.00     0.181 C 
HETATM   21  N3  UNL     1      33.729   4.745  26.962  1.00  0.00    -0.374 N 
HETATM   22  N4  UNL     1      32.453   3.449  28.462  1.00  0.00    -0.064 NA
ATOM     23  H32 UNL     1      33.951   5.612  26.473  1.00  0.00     0.158 HD
ATOM     24  H31 UNL     1      34.316   3.932  26.772  1.00  0.00     0.158 HD
ATOM     25  H2  UNL     1      32.394   6.674  28.255  1.00  0.00     0.162 HD
ENDBRANCH  18  19
ENDBRANCH  17  18
ENDBRANCH  15  17
ENDBRANCH   8  13
ENDBRANCH   1   8
BRANCH   4  26
HETATM   26  C13 UNL     1      30.651  12.142  25.647  1.00  0.00     0.231 C 
HETATM   27  O2  UNL     1      30.948  13.371  25.902  1.00  0.00    -0.273 OA
HETATM   28  N6  UNL     1      31.119  11.622  24.439  1.00  0.00    -0.347 N 
HETATM   29  C14 UNL     1      30.955  10.299  23.908  1.00  0.00     0.152 C 
HETATM   30  C17 UNL     1      31.899  12.529  23.555  1.00  0.00     0.152 C 
HETATM   31  C15 UNL     1      31.434  10.353  22.446  1.00  0.00     0.187 C 
HETATM   32  O3  UNL     1      30.837  11.376  21.750  1.00  0.00    -0.388 OA
HETATM   33  C16 UNL     1      31.137  12.633  22.275  1.00  0.00     0.187 C 
ENDBRANCH   4  26
BRANCH   6  34
HETATM   34  C19 UNL     1      32.782  11.881  27.880  1.00  0.00     0.148 C 
BRANCH  34  35
HETATM   35  C20 UNL     1      33.671  12.352  29.053  1.00  0.00     0.249 C 
BRANCH  35  36
HETATM   36  N8  UNL     1      33.386  11.519  30.178  1.00  0.00    -0.078 N 
ATOM     37  H83 UNL     1      34.074  10.777  30.307  1.00  0.00     0.274 HD
ATOM     38  H82 UNL     1      33.531  11.993  31.069  1.00  0.00     0.274 HD
ATOM     39  H81 UNL     1      32.435  11.163  30.069  1.00  0.00     0.274 HD
ENDBRANCH  35  36
ENDBRANCH  34  35
ENDBRANCH   6  34
TORSDOF 12
ENDMDL
MODEL 5
REMARK VINA RESULT: -6.817029260      2.826      5.251
REMARK  12 active torsions:
REMARK  status: ('A' for Active; 'I' for Inactive)
REMARK    1  A    between atoms: C2_2  and  C3_3 
REMARK    2  A    between atoms: C3_3  and  C4_4 
REMARK    3  A    between atoms: C4_4  and  C5_5 
REMARK    4  A    between atoms: C5_5  and  C6_6 
REMARK    5  A    between atoms: C5_5  and  N5_19 
REMARK       I    between atoms: C6_6  and  N1_8 
REMARK    6  A    between atoms: N1_8  and  C7_10 
REMARK    7  A    between atoms: C7_10  and  C8_11 
REMARK    8  A    between atoms: C8_11  and  N2_12 
REMARK       I    between atoms: N2_12  and  C9_14 
REMARK    9  A    between atoms: C12_22  and  C13_23 
REMARK       I    between atoms: C13_23  and  N6_25 
REMARK   10  A    between atoms: N7_32  and  C19_34 
REMARK   11  A    between atoms: C19_34  and  C20_35 
REMARK   12  A    between atoms: C20_35  and  N8_36 
ROOT
HETATM    1  N5  UNL     1      30.797  10.209  28.803  1.00  0.00    -0.357 N 
HETATM    2  C10 UNL     1      29.524  10.775  28.338  1.00  0.00     0.126 C 
HETATM    3  C11 UNL     1      29.041  11.627  29.546  1.00  0.00     0.042 C 
HETATM    4  C12 UNL     1      30.430  12.156  29.951  1.00  0.00     0.146 C 
HETATM    5  C18 UNL     1      31.172  10.884  30.022  1.00  0.00     0.089 C 
HETATM    6  N7  UNL     1      31.937  10.468  30.912  1.00  0.00    -0.378 N 
ATOM      7  H7  UNL     1      32.305   9.542  30.693  1.00  0.00     0.160 HD
ENDROOT
BRANCH   1   8
HETATM    8  C5  UNL     1      31.457   9.167  28.120  1.00  0.00     0.177 C 
BRANCH   8   9
HETATM    9  C4  UNL     1      32.023   9.469  26.765  1.00  0.00     0.039 C 
BRANCH   9  10
HETATM   10  C3  UNL     1      32.830  10.721  26.715  1.00  0.00     0.029 C 
BRANCH  10  11
HETATM   11  C2  UNL     1      32.341  11.588  25.623  1.00  0.00    -0.037 C 
HETATM   12  C1  UNL     1      31.313  11.250  24.867  1.00  0.00     0.007 C 
ENDBRANCH  10  11
ENDBRANCH   9  10
ENDBRANCH   8   9
BRANCH   8  13
HETATM   13  C6  UNL     1      30.708   7.878  28.045  1.00  0.00     0.240 C 
HETATM   14  O1  UNL     1      30.530   7.274  26.957  1.00  0.00    -0.271 OA
HETATM   15  N1  UNL     1      30.155   7.269  29.206  1.00  0.00    -0.358 N 
ATOM     16  H1  UNL     1      30.279   7.734  30.105  1.00  0.00     0.162 HD
BRANCH  15  17
HETATM   17  C7  UNL     1      29.426   6.025  29.171  1.00  0.00     0.142 C 
BRANCH  17  18
HETATM   18  C8  UNL     1      30.283   4.852  29.530  1.00  0.00     0.142 C 
BRANCH  18  19
HETATM   19  N2  UNL     1      30.917   4.344  28.347  1.00  0.00    -0.363 N 
HETATM   20  C9  UNL     1      32.329   4.358  28.161  1.00  0.00     0.181 C 
HETATM   21  N3  UNL     1      32.925   3.306  27.758  1.00  0.00    -0.374 N 
HETATM   22  N4  UNL     1      33.010   5.561  28.436  1.00  0.00    -0.064 NA
ATOM     23  H32 UNL     1      32.432   2.435  27.558  1.00  0.00     0.158 HD
ATOM     24  H31 UNL     1      33.936   3.317  27.624  1.00  0.00     0.158 HD
ATOM     25  H2  UNL     1      30.330   3.955  27.608  1.00  0.00     0.162 HD
ENDBRANCH  18  19
ENDBRANCH  17  18
ENDBRANCH  15  17
ENDBRANCH   8  13
ENDBRANCH   1   8
BRANCH   4  26
HETATM   26  C13 UNL     1      30.450  13.070  31.041  1.00  0.00     0.231 C 
HETATM   27  O2  UNL     1      29.691  12.793  32.046  1.00  0.00    -0.273 OA
HETATM   28  N6  UNL     1      31.208  14.238  31.130  1.00  0.00    -0.347 N 
HETATM   29  C14 UNL     1      32.138  14.781  30.181  1.00  0.00     0.152 C 
HETATM   30  C17 UNL     1      31.062  15.060  32.362  1.00  0.00     0.152 C 
HETATM   31  C15 UNL     1      32.478  16.202  30.666  1.00  0.00     0.187 C 
HETATM   32  O3  UNL     1      31.347  16.942  30.913  1.00  0.00    -0.388 OA
HETATM   33  C16 UNL     1      30.555  16.395  31.924  1.00  0.00     0.187 C 
ENDBRANCH   4  26
BRANCH   6  34
HETATM   34  C19 UNL     1      32.423  10.945  32.132  1.00  0.00     0.148 C 
BRANCH  34  35
HETATM   35  C20 UNL     1      33.785  11.638  31.906  1.00  0.00     0.249 C 
BRANCH  35  36
HETATM   36  N8  UNL     1      33.879  12.726  32.828  1.00  0.00    -0.078 N 
ATOM     37  H83 UNL     1      32.979  12.979  33.235  1.00  0.00     0.274 HD
ATOM     38  H82 UNL     1      34.352  12.471  33.694  1.00  0.00     0.274 HD
ATOM     39  H81 UNL     1      34.329  13.505  32.346  1.00  0.00     0.274 HD
ENDBRANCH  35  36
ENDBRANCH  34  35
ENDBRANCH   6  34
TORSDOF 12
ENDMDL
