MODEL 1
REMARK VINA RESULT: -6.675096914      0.000      0.000
REMARK  12 active torsions:
REMARK  status: ('A' for Active; 'I' for Inactive)
REMARK       I    between atoms: C1_4  and  N3_6 
REMARK    1  A    between atoms: N3_6  and  C2_8 
REMARK    2  A    between atoms: C2_8  and  C3_9 
REMARK    3  A    between atoms: C3_9  and  C4_10 
REMARK       I    between atoms: C4_10  and  N4_12 
REMARK    4  A    between atoms: C5_13  and  C6_14 
REMARK    5  A    between atoms: C6_14  and  C7_15 
REMARK    6  A    between atoms: C7_15  and  C8_16 
REMARK    7  A    between atoms: C8_16  and  N5_17 
REMARK    8  A    between atoms: C11_23  and  C12_24 
REMARK       I    between atoms: C12_24  and  N6_26 
REMARK       I    between atoms: N7_29  and  C15_30 
REMARK    9  A    between atoms: C15_30  and  C16_32 
REMARK   10  A    between atoms: C16_32  and  C17_33 
REMARK   11  A    between atoms: C17_33  and  C18_34 
REMARK   12  A    between atoms: C18_34  and  C19_35 
ROOT
HETATM    1  C4  UNL     1      30.975  10.252  27.097  1.00  0.00     0.222 C 
HETATM    2  O1  UNL     1      30.296  11.337  27.024  1.00  0.00    -0.273 OA
HETATM    3  N4  UNL     1      30.339   9.164  27.761  1.00  0.00    -0.334 N 
HETATM    4  C5  UNL     1      30.645   7.825  28.033  1.00  0.00     0.088 C 
HETATM    5  C9  UNL     1      29.244   7.177  28.118  1.00  0.00     0.028 C 
HETATM    6  C10 UNL     1      28.708   8.159  29.192  1.00  0.00     0.037 C 
HETATM    7  C11 UNL     1      29.027   9.441  28.430  1.00  0.00     0.180 C 
ENDROOT
BRANCH   7   8
HETATM    8  C12 UNL     1      29.205  10.491  29.434  1.00  0.00     0.242 C 
HETATM    9  O2  UNL     1      30.190  10.493  30.224  1.00  0.00    -0.271 OA
HETATM   10  N6  UNL     1      28.282  11.542  29.556  1.00  0.00    -0.347 N 
HETATM   11  C13 UNL     1      27.148  11.624  28.667  1.00  0.00     0.145 C 
HETATM   12  C21 UNL     1      28.420  12.582  30.582  1.00  0.00     0.145 C 
HETATM   13  C14 UNL     1      25.875  11.637  29.492  1.00  0.00     0.145 C 
HETATM   14  N7  UNL     1      25.957  12.681  30.479  1.00  0.00    -0.349 N 
HETATM   15  C15 UNL     1      24.907  13.620  30.604  1.00  0.00     0.219 C 
HETATM   16  C20 UNL     1      27.114  12.755  31.334  1.00  0.00     0.145 C 
HETATM   17  O3  UNL     1      23.873  13.587  29.870  1.00  0.00    -0.273 OA
BRANCH  15  18
HETATM   18  C16 UNL     1      25.033  14.691  31.644  1.00  0.00     0.103 C 
BRANCH  18  19
HETATM   19  C17 UNL     1      24.093  14.474  32.777  1.00  0.00     0.018 C 
BRANCH  19  20
HETATM   20  C18 UNL     1      24.710  13.927  34.025  1.00  0.00     0.100 C 
BRANCH  20  21
HETATM   21  C19 UNL     1      24.996  14.909  35.069  1.00  0.00     0.231 C 
HETATM   22  N8  UNL     1      24.280  16.158  35.089  1.00  0.00    -0.062 NA
HETATM   23  O4  UNL     1      25.847  14.696  35.951  1.00  0.00    -0.277 OA
ENDBRANCH  20  21
ENDBRANCH  19  20
ENDBRANCH  18  19
ENDBRANCH  15  18
ENDBRANCH   7   8
BRANCH   1  24
HETATM   24  C3  UNL     1      32.317  10.234  26.505  1.00  0.00     0.122 C 
BRANCH  24  25
HETATM   25  C2  UNL     1      33.158  11.345  27.138  1.00  0.00     0.131 C 
BRANCH  25  26
HETATM   26  N3  UNL     1      32.772  11.497  28.533  1.00  0.00    -0.364 N 
HETATM   27  C1  UNL     1      33.596  12.172  29.474  1.00  0.00     0.181 C 
HETATM   28  N1  UNL     1      34.830  11.820  29.587  1.00  0.00    -0.374 N 
HETATM   29  N2  UNL     1      33.067  13.213  30.270  1.00  0.00    -0.064 NA
ATOM     30  H12 UNL     1      35.422  12.305  30.263  1.00  0.00     0.158 HD
ATOM     31  H11 UNL     1      35.211  11.069  29.013  1.00  0.00     0.158 HD
ATOM     32  H3  UNL     1      31.882  11.108  28.845  1.00  0.00     0.162 HD
ENDBRANCH  25  26
ENDBRANCH  24  25
ENDBRANCH   1  24
BRANCH   4  33
HETATM   33  C6  UNL     1      31.620   7.026  27.351  1.00  0.00     0.027 C 
BRANCH  33  34
HETATM   34  C7  UNL     1      31.678   5.578  27.285  1.00  0.00     0.029 C 
BRANCH  34  35
HETATM   35  C8  UNL     1      33.010   4.904  27.506  1.00  0.00     0.230 C 
BRANCH  35  36
HETATM   36  N5  UNL     1      32.787   3.435  27.442  1.00  0.00    -0.079 N 
ATOM     37  H53 UNL     1      31.799   3.182  27.454  1.00  0.00     0.274 HD
ATOM     38  H52 UNL     1      33.016   3.037  26.531  1.00  0.00     0.274 HD
ATOM     39  H51 UNL     1      33.314   3.010  28.205  1.00  0.00     0.274 HD
ENDBRANCH  35  36
ENDBRANCH  34  35
ENDBRANCH  33  34
ENDBRANCH   4  33
TORSDOF 12
ENDMDL
MODEL 2
REMARK VINA RESULT: -6.463932381      3.260      6.187
REMARK  12 active torsions:
REMARK  status: ('A' for Active; 'I' for Inactive)
REMARK       I    between atoms: C1_4  and  N3_6 
REMARK    1  A    between atoms: N3_6  and  C2_8 
REMARK    2  A    between atoms: C2_8  and  C3_9 
REMARK    3  A    between atoms: C3_9  and  C4_10 
REMARK       I    between atoms: C4_10  and  N4_12 
REMARK    4  A    between atoms: C5_13  and  C6_14 
REMARK    5  A    between atoms: C6_14  and  C7_15 
REMARK    6  A    between atoms: C7_15  and  C8_16 
REMARK    7  A    between atoms: C8_16  and  N5_17 
REMARK    8  A    between atoms: C11_23  and  C12_24 
REMARK       I    between atoms: C12_24  and  N6_26 
REMARK       I    between atoms: N7_29  and  C15_30 
REMARK    9  A    between atoms: C15_30  and  C16_32 
REMARK   10  A    between atoms: C16_32  and  C17_33 
REMARK   11  A    between atoms: C17_33  and  C18_34 
REMARK   12  A    between atoms: C18_34  and  C19_35 
ROOT
HETATM    1  C4  UNL     1      28.880   9.078  29.468  1.00  0.00     0.222 C 
HETATM    2  O1  UNL     1      27.621   8.897  29.304  1.00  0.00    -0.273 OA
HETATM    3  N4  UNL     1      29.283  10.412  29.766  1.00  0.00    -0.334 N 
HETATM    4  C5  UNL     1      30.485  11.063  30.065  1.00  0.00     0.088 C 
HETATM    5  C9  UNL     1      30.011  12.253  30.929  1.00  0.00     0.028 C 
HETATM    6  C10 UNL     1      28.997  12.782  29.882  1.00  0.00     0.037 C 
HETATM    7  C11 UNL     1      28.229  11.476  29.705  1.00  0.00     0.180 C 
ENDROOT
BRANCH   7   8
HETATM    8  C12 UNL     1      27.648  11.511  28.363  1.00  0.00     0.242 C 
HETATM    9  O2  UNL     1      28.369  11.470  27.327  1.00  0.00    -0.271 OA
HETATM   10  N6  UNL     1      26.259  11.590  28.175  1.00  0.00    -0.347 N 
HETATM   11  C13 UNL     1      25.370  11.608  29.312  1.00  0.00     0.145 C 
HETATM   12  C21 UNL     1      25.658  11.666  26.839  1.00  0.00     0.145 C 
HETATM   13  C14 UNL     1      24.522  12.864  29.254  1.00  0.00     0.145 C 
HETATM   14  N7  UNL     1      23.877  12.945  27.969  1.00  0.00    -0.349 N 
HETATM   15  C15 UNL     1      22.481  13.154  27.890  1.00  0.00     0.219 C 
HETATM   16  C20 UNL     1      24.669  12.813  26.773  1.00  0.00     0.145 C 
HETATM   17  O3  UNL     1      21.751  13.275  28.921  1.00  0.00    -0.273 OA
BRANCH  15  18
HETATM   18  C16 UNL     1      21.850  13.231  26.534  1.00  0.00     0.103 C 
BRANCH  18  19
HETATM   19  C17 UNL     1      21.622  11.881  25.952  1.00  0.00     0.018 C 
BRANCH  19  20
HETATM   20  C18 UNL     1      21.562  10.760  26.940  1.00  0.00     0.100 C 
BRANCH  20  21
HETATM   21  C19 UNL     1      22.604   9.745  26.805  1.00  0.00     0.231 C 
HETATM   22  N8  UNL     1      23.099   9.070  27.978  1.00  0.00    -0.062 NA
HETATM   23  O4  UNL     1      23.082   9.441  25.698  1.00  0.00    -0.277 OA
ENDBRANCH  20  21
ENDBRANCH  19  20
ENDBRANCH  18  19
ENDBRANCH  15  18
ENDBRANCH   7   8
BRANCH   1  24
HETATM   24  C3  UNL     1      29.768   7.919  29.332  1.00  0.00     0.122 C 
BRANCH  24  25
HETATM   25  C2  UNL     1      30.029   7.660  27.847  1.00  0.00     0.131 C 
BRANCH  25  26
HETATM   26  N3  UNL     1      29.916   6.234  27.584  1.00  0.00    -0.364 N 
HETATM   27  C1  UNL     1      31.050   5.377  27.573  1.00  0.00     0.181 C 
HETATM   28  N1  UNL     1      32.062   5.692  26.841  1.00  0.00    -0.374 N 
HETATM   29  N2  UNL     1      31.065   4.200  28.355  1.00  0.00    -0.064 NA
ATOM     30  H12 UNL     1      32.876   5.077  26.832  1.00  0.00     0.158 HD
ATOM     31  H11 UNL     1      32.051   6.541  26.276  1.00  0.00     0.158 HD
ATOM     32  H3  UNL     1      28.994   5.835  27.403  1.00  0.00     0.162 HD
ENDBRANCH  25  26
ENDBRANCH  24  25
ENDBRANCH   1  24
BRANCH   4  33
HETATM   33  C6  UNL     1      31.688  10.441  30.533  1.00  0.00     0.027 C 
BRANCH  33  34
HETATM   34  C7  UNL     1      32.471  10.809  31.698  1.00  0.00     0.029 C 
BRANCH  34  35
HETATM   35  C8  UNL     1      33.543  11.859  31.539  1.00  0.00     0.230 C 
BRANCH  35  36
HETATM   36  N5  UNL     1      33.204  12.988  32.447  1.00  0.00    -0.079 N 
ATOM     37  H53 UNL     1      32.744  12.684  33.306  1.00  0.00     0.274 HD
ATOM     38  H52 UNL     1      34.026  13.412  32.878  1.00  0.00     0.274 HD
ATOM     39  H51 UNL     1      32.646  13.656  31.914  1.00  0.00     0.274 HD
ENDBRANCH  35  36
ENDBRANCH  34  35
ENDBRANCH  33  34
ENDBRANCH   4  33
TORSDOF 12
ENDMDL
MODEL 3
REMARK VINA RESULT: -6.404440551      3.978      8.404
REMARK  12 active torsions:
REMARK  status: ('A' for Active; 'I' for Inactive)
REMARK       I    between atoms: C1_4  and  N3_6 
REMARK    1  A    between atoms: N3_6  and  C2_8 
REMARK    2  A    between atoms: C2_8  and  C3_9 
REMARK    3  A    between atoms: C3_9  and  C4_10 
REMARK       I    between atoms: C4_10  and  N4_12 
REMARK    4  A    between atoms: C5_13  and  C6_14 
REMARK    5  A    between atoms: C6_14  and  C7_15 
REMARK    6  A    between atoms: C7_15  and  C8_16 
REMARK    7  A    between atoms: C8_16  and  N5_17 
REMARK    8  A    between atoms: C11_23  and  C12_24 
REMARK       I    between atoms: C12_24  and  N6_26 
REMARK       I    between atoms: N7_29  and  C15_30 
REMARK    9  A    between atoms: C15_30  and  C16_32 
REMARK   10  A    between atoms: C16_32  and  C17_33 
REMARK   11  A    between atoms: C17_33  and  C18_34 
REMARK   12  A    between atoms: C18_34  and  C19_35 
ROOT
HETATM    1  C4  UNL     1      29.226   8.677  27.893  1.00  0.00     0.222 C 
HETATM    2  O1  UNL     1      30.486   8.780  27.678  1.00  0.00    -0.273 OA
HETATM    3  N4  UNL     1      28.499   9.903  27.926  1.00  0.00    -0.334 N 
HETATM    4  C5  UNL     1      27.159  10.281  28.070  1.00  0.00     0.088 C 
HETATM    5  C9  UNL     1      27.112  11.623  27.305  1.00  0.00     0.028 C 
HETATM    6  C10 UNL     1      28.268  12.275  28.107  1.00  0.00     0.037 C 
HETATM    7  C11 UNL     1      29.293  11.173  27.863  1.00  0.00     0.180 C 
ENDROOT
BRANCH   7   8
HETATM    8  C12 UNL     1      30.231  11.217  28.986  1.00  0.00     0.242 C 
HETATM    9  O2  UNL     1      29.877  10.908  30.157  1.00  0.00    -0.271 OA
HETATM   10  N6  UNL     1      31.566  11.607  28.800  1.00  0.00    -0.347 N 
HETATM   11  C13 UNL     1      32.051  11.944  27.484  1.00  0.00     0.145 C 
HETATM   12  C21 UNL     1      32.512  11.698  29.918  1.00  0.00     0.145 C 
HETATM   13  C14 UNL     1      32.608  13.356  27.509  1.00  0.00     0.145 C 
HETATM   14  N7  UNL     1      33.578  13.466  28.567  1.00  0.00    -0.349 N 
HETATM   15  C15 UNL     1      34.862  13.993  28.297  1.00  0.00     0.219 C 
HETATM   16  C20 UNL     1      33.225  13.036  29.896  1.00  0.00     0.145 C 
HETATM   17  O3  UNL     1      35.209  14.381  27.141  1.00  0.00    -0.273 OA
BRANCH  15  18
HETATM   18  C16 UNL     1      35.841  14.090  29.427  1.00  0.00     0.103 C 
BRANCH  18  19
HETATM   19  C17 UNL     1      36.136  15.504  29.784  1.00  0.00     0.018 C 
BRANCH  19  20
HETATM   20  C18 UNL     1      37.497  15.751  30.351  1.00  0.00     0.100 C 
BRANCH  20  21
HETATM   21  C19 UNL     1      38.610  15.208  29.576  1.00  0.00     0.231 C 
HETATM   22  N8  UNL     1      39.574  14.351  30.217  1.00  0.00    -0.062 NA
HETATM   23  O4  UNL     1      38.752  15.465  28.368  1.00  0.00    -0.277 OA
ENDBRANCH  20  21
ENDBRANCH  19  20
ENDBRANCH  18  19
ENDBRANCH  15  18
ENDBRANCH   7   8
BRANCH   1  24
HETATM   24  C3  UNL     1      28.663   7.336  28.083  1.00  0.00     0.122 C 
BRANCH  24  25
HETATM   25  C2  UNL     1      29.674   6.473  28.842  1.00  0.00     0.131 C 
BRANCH  25  26
HETATM   26  N3  UNL     1      30.263   5.511  27.923  1.00  0.00    -0.364 N 
HETATM   27  C1  UNL     1      31.669   5.390  27.759  1.00  0.00     0.181 C 
HETATM   28  N1  UNL     1      32.361   6.445  27.501  1.00  0.00    -0.374 N 
HETATM   29  N2  UNL     1      32.296   4.128  27.879  1.00  0.00    -0.064 NA
ATOM     30  H12 UNL     1      33.370   6.358  27.383  1.00  0.00     0.158 HD
ATOM     31  H11 UNL     1      31.909   7.355  27.414  1.00  0.00     0.158 HD
ATOM     32  H3  UNL     1      29.648   4.905  27.380  1.00  0.00     0.162 HD
ENDBRANCH  25  26
ENDBRANCH  24  25
ENDBRANCH   1  24
BRANCH   4  33
HETATM   33  C6  UNL     1      26.017   9.443  27.855  1.00  0.00     0.027 C 
BRANCH  33  34
HETATM   34  C7  UNL     1      24.725   9.838  27.326  1.00  0.00     0.029 C 
BRANCH  34  35
HETATM   35  C8  UNL     1      23.495   9.127  27.834  1.00  0.00     0.230 C 
BRANCH  35  36
HETATM   36  N5  UNL     1      22.486   9.137  26.741  1.00  0.00    -0.079 N 
ATOM     37  H53 UNL     1      22.535   9.976  26.162  1.00  0.00     0.274 HD
ATOM     38  H52 UNL     1      22.688   8.457  26.008  1.00  0.00     0.274 HD
ATOM     39  H51 UNL     1      21.569   9.002  27.166  1.00  0.00     0.274 HD
ENDBRANCH  35  36
ENDBRANCH  34  35
ENDBRANCH  33  34
ENDBRANCH   4  33
TORSDOF 12
ENDMDL
MODEL 4
REMARK VINA RESULT: -6.399207952      1.936      2.541
REMARK  12 active torsions:
REMARK  status: ('A' for Active; 'I' for Inactive)
REMARK       I    between atoms: C1_4  and  N3_6 
REMARK    1  A    between atoms: N3_6  and  C2_8 
REMARK    2  A    between atoms: C2_8  and  C3_9 
REMARK    3  A    between atoms: C3_9  and  C4_10 
REMARK       I    between atoms: C4_10  and  N4_12 
REMARK    4  A    between atoms: C5_13  and  C6_14 
REMARK    5  A    between atoms: C6_14  and  C7_15 
REMARK    6  A    between atoms: C7_15  and  C8_16 
REMARK    7  A    between atoms: C8_16  and  N5_17 
REMARK    8  A    between atoms: C11_23  and  C12_24 
REMARK       I    between atoms: C12_24  and  N6_26 
REMARK       I    between atoms: N7_29  and  C15_30 
REMARK    9  A    between atoms: C15_30  and  C16_32 
REMARK   10  A    between atoms: C16_32  and  C17_33 
REMARK   11  A    between atoms: C17_33  and  C18_34 
REMARK   12  A    between atoms: C18_34  and  C19_35 
ROOT
HETATM    1  C4  UNL     1      30.917  10.360  27.279  1.00  0.00     0.222 C 
HETATM    2  O1  UNL     1      30.232  11.439  27.179  1.00  0.00    -0.273 OA
HETATM    3  N4  UNL     1      30.266   9.268  27.923  1.00  0.00    -0.334 N 
HETATM    4  C5  UNL     1      30.573   7.933  28.209  1.00  0.00     0.088 C 
HETATM    5  C9  UNL     1      29.176   7.273  28.245  1.00  0.00     0.028 C 
HETATM    6  C10 UNL     1      28.593   8.253  29.296  1.00  0.00     0.037 C 
HETATM    7  C11 UNL     1      28.928   9.537  28.544  1.00  0.00     0.180 C 
ENDROOT
BRANCH   7   8
HETATM    8  C12 UNL     1      29.062  10.590  29.551  1.00  0.00     0.242 C 
HETATM    9  O2  UNL     1      30.010  10.594  30.384  1.00  0.00    -0.271 OA
HETATM   10  N6  UNL     1      28.135  11.641  29.627  1.00  0.00    -0.347 N 
HETATM   11  C13 UNL     1      27.042  11.720  28.688  1.00  0.00     0.145 C 
HETATM   12  C21 UNL     1      28.226  12.685  30.654  1.00  0.00     0.145 C 
HETATM   13  C14 UNL     1      25.733  11.736  29.454  1.00  0.00     0.145 C 
HETATM   14  N7  UNL     1      25.770  12.783  30.441  1.00  0.00    -0.349 N 
HETATM   15  C15 UNL     1      24.716  13.723  30.515  1.00  0.00     0.219 C 
HETATM   16  C20 UNL     1      26.888  12.860  31.346  1.00  0.00     0.145 C 
HETATM   17  O3  UNL     1      23.716  13.687  29.736  1.00  0.00    -0.273 OA
BRANCH  15  18
HETATM   18  C16 UNL     1      24.795  14.798  31.556  1.00  0.00     0.103 C 
BRANCH  18  19
HETATM   19  C17 UNL     1      23.882  14.529  32.699  1.00  0.00     0.018 C 
BRANCH  19  20
HETATM   20  C18 UNL     1      24.196  15.272  33.958  1.00  0.00     0.100 C 
BRANCH  20  21
HETATM   21  C19 UNL     1      24.992  14.539  34.940  1.00  0.00     0.231 C 
HETATM   22  N8  UNL     1      25.054  15.007  36.300  1.00  0.00    -0.062 NA
HETATM   23  O4  UNL     1      25.624  13.512  34.634  1.00  0.00    -0.277 OA
ENDBRANCH  20  21
ENDBRANCH  19  20
ENDBRANCH  18  19
ENDBRANCH  15  18
ENDBRANCH   7   8
BRANCH   1  24
HETATM   24  C3  UNL     1      32.280  10.352  26.736  1.00  0.00     0.122 C 
BRANCH  24  25
HETATM   25  C2  UNL     1      32.296  11.124  25.415  1.00  0.00     0.131 C 
BRANCH  25  26
HETATM   26  N3  UNL     1      32.443  10.182  24.315  1.00  0.00    -0.364 N 
HETATM   27  C1  UNL     1      32.818  10.601  23.010  1.00  0.00     0.181 C 
HETATM   28  N1  UNL     1      32.158  11.551  22.445  1.00  0.00    -0.374 N 
HETATM   29  N2  UNL     1      33.901   9.981  22.345  1.00  0.00    -0.064 NA
ATOM     30  H12 UNL     1      32.428  11.851  21.508  1.00  0.00     0.158 HD
ATOM     31  H11 UNL     1      31.377  11.998  22.925  1.00  0.00     0.158 HD
ATOM     32  H3  UNL     1      32.271   9.191  24.486  1.00  0.00     0.162 HD
ENDBRANCH  25  26
ENDBRANCH  24  25
ENDBRANCH   1  24
BRANCH   4  33
HETATM   33  C6  UNL     1      31.579   7.141  27.564  1.00  0.00     0.027 C 
BRANCH  33  34
HETATM   34  C7  UNL     1      31.514   5.726  27.250  1.00  0.00     0.029 C 
BRANCH  34  35
HETATM   35  C8  UNL     1      32.648   4.839  27.702  1.00  0.00     0.230 C 
BRANCH  35  36
HETATM   36  N5  UNL     1      33.511   4.574  26.520  1.00  0.00    -0.079 N 
ATOM     37  H53 UNL     1      33.657   5.401  25.941  1.00  0.00     0.274 HD
ATOM     38  H52 UNL     1      34.487   4.412  26.769  1.00  0.00     0.274 HD
ATOM     39  H51 UNL     1      33.098   3.797  26.004  1.00  0.00     0.274 HD
ENDBRANCH  35  36
ENDBRANCH  34  35
ENDBRANCH  33  34
ENDBRANCH   4  33
TORSDOF 12
ENDMDL
MODEL 5
REMARK VINA RESULT: -6.326150605      2.908      6.043
REMARK  12 active torsions:
REMARK  status: ('A' for Active; 'I' for Inactive)
REMARK       I    between atoms: C1_4  and  N3_6 
REMARK    1  A    between atoms: N3_6  and  C2_8 
REMARK    2  A    between atoms: C2_8  and  C3_9 
REMARK    3  A    between atoms: C3_9  and  C4_10 
REMARK       I    between atoms: C4_10  and  N4_12 
REMARK    4  A    between atoms: C5_13  and  C6_14 
REMARK    5  A    between atoms: C6_14  and  C7_15 
REMARK    6  A    between atoms: C7_15  and  C8_16 
REMARK    7  A    between atoms: C8_16  and  N5_17 
REMARK    8  A    between atoms: C11_23  and  C12_24 
REMARK       I    between atoms: C12_24  and  N6_26 
REMARK       I    between atoms: N7_29  and  C15_30 
REMARK    9  A    between atoms: C15_30  and  C16_32 
REMARK   10  A    between atoms: C16_32  and  C17_33 
REMARK   11  A    between atoms: C17_33  and  C18_34 
REMARK   12  A    between atoms: C18_34  and  C19_35 
ROOT
HETATM    1  C4  UNL     1      30.260  10.440  29.012  1.00  0.00     0.222 C 
HETATM    2  O1  UNL     1      29.091   9.937  29.169  1.00  0.00    -0.273 OA
HETATM    3  N4  UNL     1      30.370  11.841  29.246  1.00  0.00    -0.334 N 
HETATM    4  C5  UNL     1      31.400  12.789  29.251  1.00  0.00     0.088 C 
HETATM    5  C9  UNL     1      30.875  13.843  30.252  1.00  0.00     0.028 C 
HETATM    6  C10 UNL     1      29.525  14.061  29.520  1.00  0.00     0.037 C 
HETATM    7  C11 UNL     1      29.100  12.597  29.497  1.00  0.00     0.180 C 
ENDROOT
BRANCH   7   8
HETATM    8  C12 UNL     1      28.204  12.438  28.351  1.00  0.00     0.242 C 
HETATM    9  O2  UNL     1      28.615  12.576  27.165  1.00  0.00    -0.271 OA
HETATM   10  N6  UNL     1      26.847  12.126  28.528  1.00  0.00    -0.347 N 
HETATM   11  C13 UNL     1      26.313  11.923  29.853  1.00  0.00     0.145 C 
HETATM   12  C21 UNL     1      25.924  12.003  27.395  1.00  0.00     0.145 C 
HETATM   13  C14 UNL     1      25.169  12.894  30.078  1.00  0.00     0.145 C 
HETATM   14  N7  UNL     1      24.217  12.765  29.006  1.00  0.00    -0.349 N 
HETATM   15  C15 UNL     1      22.846  12.577  29.296  1.00  0.00     0.219 C 
HETATM   16  C20 UNL     1      24.676  12.830  27.642  1.00  0.00     0.145 C 
HETATM   17  O3  UNL     1      22.404  12.515  30.484  1.00  0.00    -0.273 OA
BRANCH  15  18
HETATM   18  C16 UNL     1      21.889  12.446  28.152  1.00  0.00     0.103 C 
BRANCH  18  19
HETATM   19  C17 UNL     1      21.562  11.023  27.863  1.00  0.00     0.018 C 
BRANCH  19  20
HETATM   20  C18 UNL     1      21.921  10.549  26.491  1.00  0.00     0.100 C 
BRANCH  20  21
HETATM   21  C19 UNL     1      23.126   9.727  26.403  1.00  0.00     0.231 C 
HETATM   22  N8  UNL     1      23.388   8.736  27.414  1.00  0.00    -0.062 NA
HETATM   23  O4  UNL     1      23.939   9.858  25.472  1.00  0.00    -0.277 OA
ENDBRANCH  20  21
ENDBRANCH  19  20
ENDBRANCH  18  19
ENDBRANCH  15  18
ENDBRANCH   7   8
BRANCH   1  24
HETATM   24  C3  UNL     1      31.350   9.545  28.609  1.00  0.00     0.122 C 
BRANCH  24  25
HETATM   25  C2  UNL     1      30.788   8.449  27.702  1.00  0.00     0.131 C 
BRANCH  25  26
HETATM   26  N3  UNL     1      30.881   7.169  28.389  1.00  0.00    -0.364 N 
HETATM   27  C1  UNL     1      29.736   6.369  28.650  1.00  0.00     0.181 C 
HETATM   28  N1  UNL     1      28.724   6.903  29.241  1.00  0.00    -0.374 N 
HETATM   29  N2  UNL     1      29.711   5.009  28.264  1.00  0.00    -0.064 NA
ATOM     30  H12 UNL     1      27.902   6.328  29.429  1.00  0.00     0.158 HD
ATOM     31  H11 UNL     1      28.742   7.883  29.519  1.00  0.00     0.158 HD
ATOM     32  H3  UNL     1      31.796   6.836  28.692  1.00  0.00     0.162 HD
ENDBRANCH  25  26
ENDBRANCH  24  25
ENDBRANCH   1  24
BRANCH   4  33
HETATM   33  C6  UNL     1      32.801  12.513  29.372  1.00  0.00     0.027 C 
BRANCH  33  34
HETATM   34  C7  UNL     1      33.607  12.570  30.577  1.00  0.00     0.029 C 
BRANCH  34  35
HETATM   35  C8  UNL     1      33.756  11.314  31.399  1.00  0.00     0.230 C 
BRANCH  35  36
HETATM   36  N5  UNL     1      32.496  11.127  32.168  1.00  0.00    -0.079 N 
ATOM     37  H53 UNL     1      31.681  10.996  31.569  1.00  0.00     0.274 HD
ATOM     38  H52 UNL     1      32.455  10.229  32.650  1.00  0.00     0.274 HD
ATOM     39  H51 UNL     1      32.401  11.922  32.801  1.00  0.00     0.274 HD
ENDBRANCH  35  36
ENDBRANCH  34  35
ENDBRANCH  33  34
ENDBRANCH   4  33
TORSDOF 12
ENDMDL
