MODEL 1
REMARK VINA RESULT: -6.485780116      0.000      0.000
REMARK  13 active torsions:
REMARK  status: ('A' for Active; 'I' for Inactive)
REMARK    1  A    between atoms: C2_2  and  N1_3 
REMARK    2  A    between atoms: N1_3  and  C3_4 
REMARK    3  A    between atoms: N1_3  and  C13_26 
REMARK    4  A    between atoms: N1_3  and  N8_32 
REMARK    5  A    between atoms: C3_4  and  C4_5 
REMARK    6  A    between atoms: C4_5  and  N2_6 
REMARK       I    between atoms: N2_6  and  C5_8 
REMARK    7  A    between atoms: C5_8  and  C6_10 
REMARK    8  A    between atoms: C7_11  and  N3_12 
REMARK    9  A    between atoms: C9_17  and  O2_18 
REMARK   10  A    between atoms: C10_20  and  O3_21 
REMARK   11  A    between atoms: C13_26  and  C14_27 
REMARK   12  A    between atoms: C14_27  and  N7_28 
REMARK   13  A    between atoms: N8_32  and  C18_34 
ROOT
HETATM    1  N2  UNL     1      26.675   9.800  27.888  1.00  0.00    -0.357 N 
ATOM      2  H2  UNL     1      26.148   9.047  27.446  1.00  0.00     0.162 HD
HETATM    3  C5  UNL     1      26.104  11.100  27.882  1.00  0.00     0.253 C 
HETATM    4  O1  UNL     1      26.761  12.016  28.435  1.00  0.00    -0.271 OA
ENDROOT
BRANCH   1   5
HETATM    5  C4  UNL     1      27.952   9.472  28.478  1.00  0.00     0.153 C 
BRANCH   5   6
HETATM    6  C3  UNL     1      29.160   9.870  27.737  1.00  0.00     0.290 C 
BRANCH   6   7
HETATM    7  N1  UNL     1      30.452   9.306  28.093  1.00  0.00     0.032 N 
BRANCH   7   8
HETATM    8  C2  UNL     1      30.496   9.081  29.543  1.00  0.00     0.266 C 
HETATM    9  C1  UNL     1      31.249  10.190  30.244  1.00  0.00     0.037 C 
ENDBRANCH   7   8
BRANCH   7  10
HETATM   10  C13 UNL     1      31.516  10.021  27.531  1.00  0.00     0.254 C 
BRANCH  10  11
HETATM   11  C14 UNL     1      31.944  10.083  26.149  1.00  0.00     0.228 C 
BRANCH  11  12
HETATM   12  N7  UNL     1      32.323  11.217  25.422  1.00  0.00    -0.057 N 
HETATM   13  C15 UNL     1      33.600  11.813  25.640  1.00  0.00     0.277 C 
HETATM   14  C16 UNL     1      32.437  10.843  23.946  1.00  0.00     0.277 C 
HETATM   15  C17 UNL     1      31.312  12.255  25.366  1.00  0.00     0.277 C 
ENDBRANCH  11  12
ENDBRANCH  10  11
ENDBRANCH   7  10
BRANCH   7  16
HETATM   16  N8  UNL     1      30.528   8.001  27.641  1.00  0.00    -0.244 N 
ATOM     17  H8  UNL     1      30.340   7.870  26.647  1.00  0.00     0.188 HD
BRANCH  16  18
HETATM   18  C18 UNL     1      30.815   6.881  28.325  1.00  0.00     0.107 C 
HETATM   19  C19 UNL     1      29.763   5.812  28.322  1.00  0.00     0.027 C 
HETATM   20  C20 UNL     1      30.562   4.566  28.803  1.00  0.00     0.002 C 
HETATM   21  C21 UNL     1      31.793   4.698  27.947  1.00  0.00     0.002 C 
HETATM   22  C22 UNL     1      31.947   6.134  27.557  1.00  0.00     0.027 C 
ENDBRANCH  16  18
ENDBRANCH   7  16
ENDBRANCH   6   7
ENDBRANCH   5   6
ENDBRANCH   1   5
BRANCH   3  23
HETATM   23  C6  UNL     1      24.819  11.476  27.292  1.00  0.00     0.338 C 
HETATM   24  C7  UNL     1      23.781  11.440  28.405  1.00  0.00     0.158 C 
HETATM   25  C9  UNL     1      23.470   9.992  28.686  1.00  0.00     0.173 C 
HETATM   26  C10 UNL     1      22.687   9.451  27.521  1.00  0.00     0.177 C 
HETATM   27  C11 UNL     1      23.042  10.214  26.296  1.00  0.00     0.307 C 
HETATM   28  N6  UNL     1      24.438  10.594  26.207  1.00  0.00     0.102 N 
HETATM   29  C12 UNL     1      24.562  11.316  24.949  1.00  0.00     0.311 C 
BRANCH  24  30
HETATM   30  N3  UNL     1      24.216  12.144  29.584  1.00  0.00    -0.357 N 
HETATM   31  C8  UNL     1      23.420  12.878  30.301  1.00  0.00     0.197 C 
HETATM   32  N4  UNL     1      23.893  13.556  31.458  1.00  0.00    -0.067 NA
HETATM   33  N5  UNL     1      22.045  13.040  29.971  1.00  0.00    -0.067 NA
ATOM     34  H3  UNL     1      25.191  12.062  29.869  1.00  0.00     0.162 HD
ENDBRANCH  24  30
BRANCH  25  35
HETATM   35  O2  UNL     1      22.687   9.816  29.823  1.00  0.00    -0.391 OA
ATOM     36  H2  UNL     1      22.145   9.036  29.782  1.00  0.00     0.210 HD
ENDBRANCH  25  35
BRANCH  26  37
HETATM   37  O3  UNL     1      22.871   8.078  27.361  1.00  0.00    -0.391 OA
ATOM     38  H3  UNL     1      23.697   7.877  26.937  1.00  0.00     0.210 HD
ENDBRANCH  26  37
ENDBRANCH   3  23
TORSDOF 13
ENDMDL
MODEL 2
REMARK VINA RESULT: -6.431972624      1.460      3.302
REMARK  13 active torsions:
REMARK  status: ('A' for Active; 'I' for Inactive)
REMARK    1  A    between atoms: C2_2  and  N1_3 
REMARK    2  A    between atoms: N1_3  and  C3_4 
REMARK    3  A    between atoms: N1_3  and  C13_26 
REMARK    4  A    between atoms: N1_3  and  N8_32 
REMARK    5  A    between atoms: C3_4  and  C4_5 
REMARK    6  A    between atoms: C4_5  and  N2_6 
REMARK       I    between atoms: N2_6  and  C5_8 
REMARK    7  A    between atoms: C5_8  and  C6_10 
REMARK    8  A    between atoms: C7_11  and  N3_12 
REMARK    9  A    between atoms: C9_17  and  O2_18 
REMARK   10  A    between atoms: C10_20  and  O3_21 
REMARK   11  A    between atoms: C13_26  and  C14_27 
REMARK   12  A    between atoms: C14_27  and  N7_28 
REMARK   13  A    between atoms: N8_32  and  C18_34 
ROOT
HETATM    1  N2  UNL     1      26.193   9.997  28.695  1.00  0.00    -0.357 N 
ATOM      2  H2  UNL     1      26.296  10.820  29.287  1.00  0.00     0.162 HD
HETATM    3  C5  UNL     1      24.974   9.842  27.983  1.00  0.00     0.253 C 
HETATM    4  O1  UNL     1      24.864   8.826  27.253  1.00  0.00    -0.271 OA
ENDROOT
BRANCH   1   5
HETATM    5  C4  UNL     1      27.298   9.068  28.635  1.00  0.00     0.153 C 
BRANCH   5   6
HETATM    6  C3  UNL     1      28.534   9.443  29.339  1.00  0.00     0.290 C 
BRANCH   6   7
HETATM    7  N1  UNL     1      29.802   9.465  28.626  1.00  0.00     0.032 N 
BRANCH   7   8
HETATM    8  C2  UNL     1      30.901   9.457  29.599  1.00  0.00     0.266 C 
HETATM    9  C1  UNL     1      30.537  10.241  30.839  1.00  0.00     0.037 C 
ENDBRANCH   7   8
BRANCH   7  10
HETATM   10  C13 UNL     1      29.838  10.455  27.638  1.00  0.00     0.254 C 
BRANCH  10  11
HETATM   11  C14 UNL     1      30.912  11.367  27.299  1.00  0.00     0.228 C 
BRANCH  11  12
HETATM   12  N7  UNL     1      31.960  11.152  26.398  1.00  0.00    -0.057 N 
HETATM   13  C15 UNL     1      32.095   9.891  25.745  1.00  0.00     0.277 C 
HETATM   14  C16 UNL     1      31.774  12.071  25.193  1.00  0.00     0.277 C 
HETATM   15  C17 UNL     1      33.258  11.585  26.877  1.00  0.00     0.277 C 
ENDBRANCH  11  12
ENDBRANCH  10  11
ENDBRANCH   7  10
BRANCH   7  16
HETATM   16  N8  UNL     1      30.009   8.242  28.013  1.00  0.00    -0.244 N 
ATOM     17  H8  UNL     1      29.753   8.197  27.026  1.00  0.00     0.188 HD
BRANCH  16  18
HETATM   18  C18 UNL     1      30.499   7.104  28.533  1.00  0.00     0.107 C 
HETATM   19  C19 UNL     1      29.537   5.960  28.656  1.00  0.00     0.027 C 
HETATM   20  C20 UNL     1      30.494   4.750  28.864  1.00  0.00     0.002 C 
HETATM   21  C21 UNL     1      31.510   5.033  27.791  1.00  0.00     0.002 C 
HETATM   22  C22 UNL     1      31.492   6.499  27.495  1.00  0.00     0.027 C 
ENDBRANCH  16  18
ENDBRANCH   7  16
ENDBRANCH   6   7
ENDBRANCH   5   6
ENDBRANCH   1   5
BRANCH   3  23
HETATM   23  C6  UNL     1      23.831  10.754  28.019  1.00  0.00     0.338 C 
HETATM   24  C7  UNL     1      24.210  11.990  27.217  1.00  0.00     0.158 C 
HETATM   25  C9  UNL     1      25.158  12.804  28.061  1.00  0.00     0.173 C 
HETATM   26  C10 UNL     1      24.371  13.405  29.193  1.00  0.00     0.177 C 
HETATM   27  C11 UNL     1      23.203  12.535  29.494  1.00  0.00     0.307 C 
HETATM   28  N6  UNL     1      23.464  11.115  29.374  1.00  0.00     0.102 N 
HETATM   29  C12 UNL     1      22.207  10.462  29.711  1.00  0.00     0.311 C 
BRANCH  24  30
HETATM   30  N3  UNL     1      24.771  11.659  25.932  1.00  0.00    -0.357 N 
HETATM   31  C8  UNL     1      24.098  11.744  24.825  1.00  0.00     0.197 C 
HETATM   32  N4  UNL     1      24.692  11.407  23.578  1.00  0.00    -0.067 NA
HETATM   33  N5  UNL     1      22.743  12.178  24.801  1.00  0.00    -0.067 NA
ATOM     34  H3  UNL     1      25.740  11.344  25.889  1.00  0.00     0.162 HD
ENDBRANCH  24  30
BRANCH  25  35
HETATM   35  O2  UNL     1      25.740  13.857  27.362  1.00  0.00    -0.391 OA
ATOM     36  H2  UNL     1      26.427  14.292  27.854  1.00  0.00     0.210 HD
ENDBRANCH  25  35
BRANCH  26  37
HETATM   37  O3  UNL     1      25.164  13.633  30.317  1.00  0.00    -0.391 OA
ATOM     38  H3  UNL     1      24.861  14.380  30.821  1.00  0.00     0.210 HD
ENDBRANCH  26  37
ENDBRANCH   3  23
TORSDOF 13
ENDMDL
MODEL 3
REMARK VINA RESULT: -6.351947069      1.990      2.511
REMARK  13 active torsions:
REMARK  status: ('A' for Active; 'I' for Inactive)
REMARK    1  A    between atoms: C2_2  and  N1_3 
REMARK    2  A    between atoms: N1_3  and  C3_4 
REMARK    3  A    between atoms: N1_3  and  C13_26 
REMARK    4  A    between atoms: N1_3  and  N8_32 
REMARK    5  A    between atoms: C3_4  and  C4_5 
REMARK    6  A    between atoms: C4_5  and  N2_6 
REMARK       I    between atoms: N2_6  and  C5_8 
REMARK    7  A    between atoms: C5_8  and  C6_10 
REMARK    8  A    between atoms: C7_11  and  N3_12 
REMARK    9  A    between atoms: C9_17  and  O2_18 
REMARK   10  A    between atoms: C10_20  and  O3_21 
REMARK   11  A    between atoms: C13_26  and  C14_27 
REMARK   12  A    between atoms: C14_27  and  N7_28 
REMARK   13  A    between atoms: N8_32  and  C18_34 
ROOT
HETATM    1  N2  UNL     1      26.342  10.625  27.253  1.00  0.00    -0.357 N 
ATOM      2  H2  UNL     1      25.806   9.896  26.784  1.00  0.00     0.162 HD
HETATM    3  C5  UNL     1      25.679  11.843  27.557  1.00  0.00     0.253 C 
HETATM    4  O1  UNL     1      26.350  12.730  28.140  1.00  0.00    -0.271 OA
ENDROOT
BRANCH   1   5
HETATM    5  C4  UNL     1      27.727  10.350  27.562  1.00  0.00     0.153 C 
BRANCH   5   6
HETATM    6  C3  UNL     1      28.000   9.295  28.551  1.00  0.00     0.290 C 
BRANCH   6   7
HETATM    7  N1  UNL     1      29.170   9.387  29.410  1.00  0.00     0.032 N 
BRANCH   7   8
HETATM    8  C2  UNL     1      28.733   9.526  30.805  1.00  0.00     0.266 C 
HETATM    9  C1  UNL     1      28.023  10.843  31.025  1.00  0.00     0.037 C 
ENDBRANCH   7   8
BRANCH   7  10
HETATM   10  C13 UNL     1      30.100  10.322  28.942  1.00  0.00     0.254 C 
BRANCH  10  11
HETATM   11  C14 UNL     1      31.458  10.559  29.387  1.00  0.00     0.228 C 
BRANCH  11  12
HETATM   12  N7  UNL     1      31.918  11.592  30.210  1.00  0.00    -0.057 N 
HETATM   13  C15 UNL     1      31.089  12.722  30.472  1.00  0.00     0.277 C 
HETATM   14  C16 UNL     1      32.107  11.050  31.625  1.00  0.00     0.277 C 
HETATM   15  C17 UNL     1      33.262  12.044  29.907  1.00  0.00     0.277 C 
ENDBRANCH  11  12
ENDBRANCH  10  11
ENDBRANCH   7  10
BRANCH   7  16
HETATM   16  N8  UNL     1      29.796   8.154  29.472  1.00  0.00    -0.244 N 
ATOM     17  H8  UNL     1      30.181   7.904  30.382  1.00  0.00     0.188 HD
BRANCH  16  18
HETATM   18  C18 UNL     1      29.968   7.241  28.502  1.00  0.00     0.107 C 
HETATM   19  C19 UNL     1      31.383   6.978  28.079  1.00  0.00     0.027 C 
HETATM   20  C20 UNL     1      31.249   5.632  27.308  1.00  0.00     0.002 C 
HETATM   21  C21 UNL     1      30.380   4.866  28.269  1.00  0.00     0.002 C 
HETATM   22  C22 UNL     1      29.611   5.846  29.098  1.00  0.00     0.027 C 
ENDBRANCH  16  18
ENDBRANCH   7  16
ENDBRANCH   6   7
ENDBRANCH   5   6
ENDBRANCH   1   5
BRANCH   3  23
HETATM   23  C6  UNL     1      24.283  12.165  27.258  1.00  0.00     0.338 C 
HETATM   24  C7  UNL     1      23.459  11.798  28.484  1.00  0.00     0.158 C 
HETATM   25  C9  UNL     1      23.331  10.296  28.509  1.00  0.00     0.173 C 
HETATM   26  C10 UNL     1      22.410   9.891  27.391  1.00  0.00     0.177 C 
HETATM   27  C11 UNL     1      22.480  10.905  26.306  1.00  0.00     0.307 C 
HETATM   28  N6  UNL     1      23.801  11.460  26.087  1.00  0.00     0.102 N 
HETATM   29  C12 UNL     1      23.643  12.413  24.997  1.00  0.00     0.311 C 
BRANCH  24  30
HETATM   30  N3  UNL     1      24.027  12.318  29.702  1.00  0.00    -0.357 N 
HETATM   31  C8  UNL     1      23.385  13.126  30.490  1.00  0.00     0.197 C 
HETATM   32  N4  UNL     1      23.985  13.615  31.683  1.00  0.00    -0.067 NA
HETATM   33  N5  UNL     1      22.060  13.559  30.206  1.00  0.00    -0.067 NA
ATOM     34  H3  UNL     1      24.974  12.038  29.957  1.00  0.00     0.162 HD
ENDBRANCH  24  30
BRANCH  25  35
HETATM   35  O2  UNL     1      22.774   9.819  29.691  1.00  0.00    -0.391 OA
ATOM     36  H2  UNL     1      22.097   9.167  29.545  1.00  0.00     0.210 HD
ENDBRANCH  25  35
BRANCH  26  37
HETATM   37  O3  UNL     1      22.685   8.603  26.929  1.00  0.00    -0.391 OA
ATOM     38  H3  UNL     1      23.609   8.482  26.742  1.00  0.00     0.210 HD
ENDBRANCH  26  37
ENDBRANCH   3  23
TORSDOF 13
ENDMDL
MODEL 4
REMARK VINA RESULT: -6.287893615      1.495      3.215
REMARK  13 active torsions:
REMARK  status: ('A' for Active; 'I' for Inactive)
REMARK    1  A    between atoms: C2_2  and  N1_3 
REMARK    2  A    between atoms: N1_3  and  C3_4 
REMARK    3  A    between atoms: N1_3  and  C13_26 
REMARK    4  A    between atoms: N1_3  and  N8_32 
REMARK    5  A    between atoms: C3_4  and  C4_5 
REMARK    6  A    between atoms: C4_5  and  N2_6 
REMARK       I    between atoms: N2_6  and  C5_8 
REMARK    7  A    between atoms: C5_8  and  C6_10 
REMARK    8  A    between atoms: C7_11  and  N3_12 
REMARK    9  A    between atoms: C9_17  and  O2_18 
REMARK   10  A    between atoms: C10_20  and  O3_21 
REMARK   11  A    between atoms: C13_26  and  C14_27 
REMARK   12  A    between atoms: C14_27  and  N7_28 
REMARK   13  A    between atoms: N8_32  and  C18_34 
ROOT
HETATM    1  N2  UNL     1      26.993  11.131  29.103  1.00  0.00    -0.357 N 
ATOM      2  H2  UNL     1      27.316  12.098  29.140  1.00  0.00     0.162 HD
HETATM    3  C5  UNL     1      25.593  10.903  29.044  1.00  0.00     0.253 C 
HETATM    4  O1  UNL     1      25.210   9.708  28.995  1.00  0.00    -0.271 OA
ENDROOT
BRANCH   1   5
HETATM    5  C4  UNL     1      27.991  10.087  29.115  1.00  0.00     0.153 C 
BRANCH   5   6
HETATM    6  C3  UNL     1      29.019  10.124  28.063  1.00  0.00     0.290 C 
BRANCH   6   7
HETATM    7  N1  UNL     1      30.356   9.619  28.333  1.00  0.00     0.032 N 
BRANCH   7   8
HETATM    8  C2  UNL     1      30.473   9.305  29.762  1.00  0.00     0.266 C 
HETATM    9  C1  UNL     1      31.438  10.244  30.450  1.00  0.00     0.037 C 
ENDBRANCH   7   8
BRANCH   7  10
HETATM   10  C13 UNL     1      31.351  10.433  27.780  1.00  0.00     0.254 C 
BRANCH  10  11
HETATM   11  C14 UNL     1      32.028  10.309  26.505  1.00  0.00     0.228 C 
BRANCH  11  12
HETATM   12  N7  UNL     1      32.346  11.331  25.605  1.00  0.00    -0.057 N 
HETATM   13  C15 UNL     1      33.624  11.962  25.661  1.00  0.00     0.277 C 
HETATM   14  C16 UNL     1      32.381  10.753  24.192  1.00  0.00     0.277 C 
HETATM   15  C17 UNL     1      31.317  12.344  25.463  1.00  0.00     0.277 C 
ENDBRANCH  11  12
ENDBRANCH  10  11
ENDBRANCH   7  10
BRANCH   7  16
HETATM   16  N8  UNL     1      30.490   8.353  27.792  1.00  0.00    -0.244 N 
ATOM     17  H8  UNL     1      30.434   8.302  26.775  1.00  0.00     0.188 HD
BRANCH  16  18
HETATM   18  C18 UNL     1      30.683   7.179  28.417  1.00  0.00     0.107 C 
HETATM   19  C19 UNL     1      29.572   6.177  28.310  1.00  0.00     0.027 C 
HETATM   20  C20 UNL     1      30.278   4.860  28.744  1.00  0.00     0.002 C 
HETATM   21  C21 UNL     1      31.548   4.968  27.944  1.00  0.00     0.002 C 
HETATM   22  C22 UNL     1      31.801   6.412  27.648  1.00  0.00     0.027 C 
ENDBRANCH  16  18
ENDBRANCH   7  16
ENDBRANCH   6   7
ENDBRANCH   5   6
ENDBRANCH   1   5
BRANCH   3  23
HETATM   23  C6  UNL     1      24.550  11.929  29.036  1.00  0.00     0.338 C 
HETATM   24  C7  UNL     1      24.196  12.205  27.581  1.00  0.00     0.158 C 
HETATM   25  C9  UNL     1      25.312  13.031  26.994  1.00  0.00     0.173 C 
HETATM   26  C10 UNL     1      25.234  14.408  27.593  1.00  0.00     0.177 C 
HETATM   27  C11 UNL     1      24.608  14.322  28.939  1.00  0.00     0.307 C 
HETATM   28  N6  UNL     1      24.976  13.145  29.699  1.00  0.00     0.102 N 
HETATM   29  C12 UNL     1      24.264  13.264  30.964  1.00  0.00     0.311 C 
BRANCH  24  30
HETATM   30  N3  UNL     1      23.961  10.995  26.835  1.00  0.00    -0.357 N 
HETATM   31  C8  UNL     1      22.771  10.542  26.582  1.00  0.00     0.197 C 
HETATM   32  N4  UNL     1      22.586   9.343  25.841  1.00  0.00    -0.067 NA
HETATM   33  N5  UNL     1      21.600  11.216  27.027  1.00  0.00    -0.067 NA
ATOM     34  H3  UNL     1      24.765  10.472  26.489  1.00  0.00     0.162 HD
ENDBRANCH  24  30
BRANCH  25  35
HETATM   35  O2  UNL     1      25.210  13.178  25.614  1.00  0.00    -0.391 OA
ATOM     36  H2  UNL     1      24.552  13.814  25.357  1.00  0.00     0.210 HD
ENDBRANCH  25  35
BRANCH  26  37
HETATM   37  O3  UNL     1      26.480  15.034  27.629  1.00  0.00    -0.391 OA
ATOM     38  H3  UNL     1      26.426  15.915  27.981  1.00  0.00     0.210 HD
ENDBRANCH  26  37
ENDBRANCH   3  23
TORSDOF 13
ENDMDL
MODEL 5
REMARK VINA RESULT: -6.279026693      3.792      7.070
REMARK  13 active torsions:
REMARK  status: ('A' for Active; 'I' for Inactive)
REMARK    1  A    between atoms: C2_2  and  N1_3 
REMARK    2  A    between atoms: N1_3  and  C3_4 
REMARK    3  A    between atoms: N1_3  and  C13_26 
REMARK    4  A    between atoms: N1_3  and  N8_32 
REMARK    5  A    between atoms: C3_4  and  C4_5 
REMARK    6  A    between atoms: C4_5  and  N2_6 
REMARK       I    between atoms: N2_6  and  C5_8 
REMARK    7  A    between atoms: C5_8  and  C6_10 
REMARK    8  A    between atoms: C7_11  and  N3_12 
REMARK    9  A    between atoms: C9_17  and  O2_18 
REMARK   10  A    between atoms: C10_20  and  O3_21 
REMARK   11  A    between atoms: C13_26  and  C14_27 
REMARK   12  A    between atoms: C14_27  and  N7_28 
REMARK   13  A    between atoms: N8_32  and  C18_34 
ROOT
HETATM    1  N2  UNL     1      31.662  10.218  29.808  1.00  0.00    -0.357 N 
ATOM      2  H2  UNL     1      32.200   9.379  29.594  1.00  0.00     0.162 HD
HETATM    3  C5  UNL     1      30.618  10.581  28.917  1.00  0.00     0.253 C 
HETATM    4  O1  UNL     1      29.960  11.614  29.197  1.00  0.00    -0.271 OA
ENDROOT
BRANCH   1   5
HETATM    5  C4  UNL     1      32.014  10.959  30.998  1.00  0.00     0.153 C 
BRANCH   5   6
HETATM    6  C3  UNL     1      33.284  11.701  30.980  1.00  0.00     0.290 C 
BRANCH   6   7
HETATM    7  N1  UNL     1      33.296  13.120  30.661  1.00  0.00     0.032 N 
BRANCH   7   8
HETATM    8  C2  UNL     1      34.487  13.423  29.858  1.00  0.00     0.266 C 
HETATM    9  C1  UNL     1      35.138  12.157  29.349  1.00  0.00     0.037 C 
ENDBRANCH   7   8
BRANCH   7  10
HETATM   10  C13 UNL     1      33.073  13.918  31.788  1.00  0.00     0.254 C 
BRANCH  10  11
HETATM   11  C14 UNL     1      31.933  13.936  32.683  1.00  0.00     0.228 C 
BRANCH  11  12
HETATM   12  N7  UNL     1      30.843  14.812  32.659  1.00  0.00    -0.057 N 
HETATM   13  C15 UNL     1      29.618  14.413  32.047  1.00  0.00     0.277 C 
HETATM   14  C16 UNL     1      30.373  15.056  34.091  1.00  0.00     0.277 C 
HETATM   15  C17 UNL     1      31.170  16.162  32.243  1.00  0.00     0.277 C 
ENDBRANCH  11  12
ENDBRANCH  10  11
ENDBRANCH   7  10
BRANCH   7  16
HETATM   16  N8  UNL     1      32.302  13.394  29.739  1.00  0.00    -0.244 N 
ATOM     17  H8  UNL     1      31.421  12.902  29.884  1.00  0.00     0.188 HD
BRANCH  16  18
HETATM   18  C18 UNL     1      32.333  14.219  28.678  1.00  0.00     0.107 C 
HETATM   19  C19 UNL     1      32.174  13.578  27.332  1.00  0.00     0.027 C 
HETATM   20  C20 UNL     1      31.831  14.797  26.428  1.00  0.00     0.002 C 
HETATM   21  C21 UNL     1      30.804  15.481  27.289  1.00  0.00     0.002 C 
HETATM   22  C22 UNL     1      31.035  15.081  28.711  1.00  0.00     0.027 C 
ENDBRANCH  16  18
ENDBRANCH   7  16
ENDBRANCH   6   7
ENDBRANCH   5   6
ENDBRANCH   1   5
BRANCH   3  23
HETATM   23  C6  UNL     1      30.232   9.865  27.701  1.00  0.00     0.338 C 
HETATM   24  C7  UNL     1      29.006   9.027  28.036  1.00  0.00     0.158 C 
HETATM   25  C9  UNL     1      29.475   7.842  28.842  1.00  0.00     0.173 C 
HETATM   26  C10 UNL     1      30.229   6.924  27.919  1.00  0.00     0.177 C 
HETATM   27  C11 UNL     1      30.817   7.719  26.809  1.00  0.00     0.307 C 
HETATM   28  N6  UNL     1      31.303   9.027  27.199  1.00  0.00     0.102 N 
HETATM   29  C12 UNL     1      31.832   9.622  25.980  1.00  0.00     0.311 C 
BRANCH  24  30
HETATM   30  N3  UNL     1      27.993   9.787  28.724  1.00  0.00    -0.357 N 
HETATM   31  C8  UNL     1      26.725   9.648  28.486  1.00  0.00     0.197 C 
HETATM   32  N4  UNL     1      25.759  10.420  29.189  1.00  0.00    -0.067 NA
HETATM   33  N5  UNL     1      26.237   8.722  27.522  1.00  0.00    -0.067 NA
ATOM     34  H3  UNL     1      28.286  10.465  29.428  1.00  0.00     0.162 HD
ENDBRANCH  24  30
BRANCH  25  35
HETATM   35  O2  UNL     1      28.427   7.106  29.386  1.00  0.00    -0.391 OA
ATOM     36  H2  UNL     1      28.559   6.168  29.317  1.00  0.00     0.210 HD
ENDBRANCH  25  35
BRANCH  26  37
HETATM   37  O3  UNL     1      31.189   6.173  28.598  1.00  0.00    -0.391 OA
ATOM     38  H3  UNL     1      31.426   5.386  28.123  1.00  0.00     0.210 HD
ENDBRANCH  26  37
ENDBRANCH   3  23
TORSDOF 13
ENDMDL
