MODEL 1
REMARK VINA RESULT: -7.300064589      0.000      0.000
REMARK  11 active torsions:
REMARK  status: ('A' for Active; 'I' for Inactive)
REMARK       I    between atoms: N1_2  and  C3_4 
REMARK    1  A    between atoms: N3_6  and  C4_8 
REMARK    2  A    between atoms: C4_8  and  C5_9 
REMARK    3  A    between atoms: C5_9  and  C6_10 
REMARK    4  A    between atoms: C6_10  and  C7_11 
REMARK    5  A    between atoms: C9_16  and  C10_17 
REMARK    6  A    between atoms: C10_17  and  C11_18 
REMARK    7  A    between atoms: C11_18  and  C12_19 
REMARK    8  A    between atoms: C12_19  and  N5_20 
REMARK    9  A    between atoms: N9_33  and  C19_34 
REMARK   10  A    between atoms: C19_34  and  C20_35 
REMARK   11  A    between atoms: C20_35  and  N10_36 
ROOT
HETATM    1  C7  UNL     1      29.615  12.043  30.227  1.00  0.00     0.177 C 
HETATM    2  N4  UNL     1      29.639  10.577  30.253  1.00  0.00    -0.346 N 
ATOM      3  H4  UNL     1      29.053  10.112  30.945  1.00  0.00     0.163 HD
HETATM    4  C8  UNL     1      30.397   9.765  29.409  1.00  0.00     0.241 C 
HETATM    5  O1  UNL     1      30.988   8.762  29.953  1.00  0.00    -0.271 OA
HETATM    6  C9  UNL     1      30.571   9.968  27.948  1.00  0.00     0.176 C 
HETATM    7  N8  UNL     1      31.964  10.080  27.583  1.00  0.00    -0.348 N 
ATOM      8  H8  UNL     1      32.504   9.218  27.657  1.00  0.00     0.163 HD
HETATM    9  C14 UNL     1      32.677  11.192  27.144  1.00  0.00     0.218 C 
HETATM   10  O2  UNL     1      33.251  11.080  25.996  1.00  0.00    -0.274 OA
HETATM   11  C15 UNL     1      32.854  12.496  27.844  1.00  0.00     0.106 C 
HETATM   12  C16 UNL     1      31.796  13.484  27.473  1.00  0.00     0.038 C 
HETATM   13  C17 UNL     1      31.511  14.571  28.396  1.00  0.00    -0.009 C 
HETATM   14  C18 UNL     1      31.407  14.642  29.686  1.00  0.00     0.090 C 
HETATM   15  N9  UNL     1      31.516  13.732  30.738  1.00  0.00    -0.325 N 
HETATM   16  C21 UNL     1      30.784  12.519  30.949  1.00  0.00     0.246 C 
HETATM   17  O3  UNL     1      31.189  11.732  31.887  1.00  0.00    -0.271 OA
ENDROOT
BRANCH   1  18
HETATM   18  C6  UNL     1      28.362  12.460  30.988  1.00  0.00     0.036 C 
BRANCH  18  19
HETATM   19  C5  UNL     1      27.363  13.179  30.145  1.00  0.00     0.022 C 
BRANCH  19  20
HETATM   20  C4  UNL     1      27.374  12.480  28.773  1.00  0.00     0.122 C 
BRANCH  20  21
HETATM   21  N3  UNL     1      26.036  12.108  28.401  1.00  0.00    -0.365 N 
HETATM   22  C3  UNL     1      25.592  10.918  28.553  1.00  0.00     0.185 C 
HETATM   23  N1  UNL     1      24.235  10.654  28.147  1.00  0.00    -0.364 N 
HETATM   24  N2  UNL     1      26.416   9.917  29.105  1.00  0.00    -0.064 NA
HETATM   25  C1  UNL     1      23.595   9.488  28.675  1.00  0.00     0.151 C 
HETATM   26  C2  UNL     1      23.528  11.516  27.244  1.00  0.00     0.151 C 
ATOM     27  H3  UNL     1      25.421  12.817  28.002  1.00  0.00     0.162 HD
ENDBRANCH  20  21
ENDBRANCH  19  20
ENDBRANCH  18  19
ENDBRANCH   1  18
BRANCH  15  28
HETATM   28  C19 UNL     1      32.483  14.014  31.809  1.00  0.00     0.158 C 
BRANCH  28  29
HETATM   29  C20 UNL     1      31.840  14.566  33.048  1.00  0.00     0.249 C 
BRANCH  29  30
HETATM   30  N10 UNL     1      32.105  13.825  34.233  1.00  0.00    -0.078 N 
ATOM     31 3H10 UNL     1      32.853  13.152  34.070  1.00  0.00     0.274 HD
ATOM     32 2H10 UNL     1      32.551  14.420  34.931  1.00  0.00     0.274 HD
ATOM     33 1H10 UNL     1      31.290  13.358  34.633  1.00  0.00     0.274 HD
ENDBRANCH  29  30
ENDBRANCH  28  29
ENDBRANCH  15  28
BRANCH   6  34
HETATM   34  C10 UNL     1      29.945   8.733  27.289  1.00  0.00     0.036 C 
BRANCH  34  35
HETATM   35  C11 UNL     1      30.991   7.899  26.588  1.00  0.00     0.022 C 
BRANCH  35  36
HETATM   36  C12 UNL     1      31.005   6.553  27.322  1.00  0.00     0.122 C 
BRANCH  36  37
HETATM   37  N5  UNL     1      32.360   6.081  27.304  1.00  0.00    -0.367 N 
HETATM   38  C13 UNL     1      32.706   4.896  27.679  1.00  0.00     0.196 C 
HETATM   39  N6  UNL     1      31.705   4.003  28.133  1.00  0.00    -0.067 NA
HETATM   40  N7  UNL     1      34.049   4.444  27.654  1.00  0.00    -0.067 NA
ATOM     41  H5  UNL     1      33.088   6.717  26.979  1.00  0.00     0.161 HD
ENDBRANCH  36  37
ENDBRANCH  35  36
ENDBRANCH  34  35
ENDBRANCH   6  34
TORSDOF 11
ENDMDL
MODEL 2
REMARK VINA RESULT: -7.220291638      1.190      1.479
REMARK  11 active torsions:
REMARK  status: ('A' for Active; 'I' for Inactive)
REMARK       I    between atoms: N1_2  and  C3_4 
REMARK    1  A    between atoms: N3_6  and  C4_8 
REMARK    2  A    between atoms: C4_8  and  C5_9 
REMARK    3  A    between atoms: C5_9  and  C6_10 
REMARK    4  A    between atoms: C6_10  and  C7_11 
REMARK    5  A    between atoms: C9_16  and  C10_17 
REMARK    6  A    between atoms: C10_17  and  C11_18 
REMARK    7  A    between atoms: C11_18  and  C12_19 
REMARK    8  A    between atoms: C12_19  and  N5_20 
REMARK    9  A    between atoms: N9_33  and  C19_34 
REMARK   10  A    between atoms: C19_34  and  C20_35 
REMARK   11  A    between atoms: C20_35  and  N10_36 
ROOT
HETATM    1  C7  UNL     1      29.749  12.275  30.200  1.00  0.00     0.177 C 
HETATM    2  N4  UNL     1      29.773  10.809  30.196  1.00  0.00    -0.346 N 
ATOM      3  H4  UNL     1      29.155  10.329  30.851  1.00  0.00     0.163 HD
HETATM    4  C8  UNL     1      30.570  10.015  29.371  1.00  0.00     0.241 C 
HETATM    5  O1  UNL     1      31.136   9.000  29.921  1.00  0.00    -0.271 OA
HETATM    6  C9  UNL     1      30.811  10.248  27.925  1.00  0.00     0.176 C 
HETATM    7  N8  UNL     1      32.220  10.368  27.627  1.00  0.00    -0.348 N 
ATOM      8  H8  UNL     1      32.756   9.504  27.708  1.00  0.00     0.163 HD
HETATM    9  C14 UNL     1      32.951  11.488  27.245  1.00  0.00     0.218 C 
HETATM   10  O2  UNL     1      33.578  11.400  26.124  1.00  0.00    -0.274 OA
HETATM   11  C15 UNL     1      33.095  12.778  27.980  1.00  0.00     0.106 C 
HETATM   12  C16 UNL     1      32.053  13.773  27.581  1.00  0.00     0.038 C 
HETATM   13  C17 UNL     1      31.725  14.840  28.513  1.00  0.00    -0.009 C 
HETATM   14  C18 UNL     1      31.562  14.885  29.797  1.00  0.00     0.090 C 
HETATM   15  N9  UNL     1      31.622  13.953  30.833  1.00  0.00    -0.325 N 
HETATM   16  C21 UNL     1      30.882  12.735  30.985  1.00  0.00     0.246 C 
HETATM   17  O3  UNL     1      31.243  11.929  31.924  1.00  0.00    -0.271 OA
ENDROOT
BRANCH   1  18
HETATM   18  C6  UNL     1      28.461  12.676  30.911  1.00  0.00     0.036 C 
BRANCH  18  19
HETATM   19  C5  UNL     1      27.344  11.708  30.712  1.00  0.00     0.022 C 
BRANCH  19  20
HETATM   20  C4  UNL     1      26.540  12.218  29.502  1.00  0.00     0.122 C 
BRANCH  20  21
HETATM   21  N3  UNL     1      25.271  11.545  29.436  1.00  0.00    -0.365 N 
HETATM   22  C3  UNL     1      24.978  10.731  28.494  1.00  0.00     0.185 C 
HETATM   23  N1  UNL     1      23.678  10.111  28.525  1.00  0.00    -0.364 N 
HETATM   24  N2  UNL     1      25.912  10.461  27.473  1.00  0.00    -0.064 NA
HETATM   25  C1  UNL     1      23.486   8.922  27.752  1.00  0.00     0.151 C 
HETATM   26  C2  UNL     1      22.596  10.650  29.296  1.00  0.00     0.151 C 
ATOM     27  H3  UNL     1      24.581  11.723  30.166  1.00  0.00     0.162 HD
ENDBRANCH  20  21
ENDBRANCH  19  20
ENDBRANCH  18  19
ENDBRANCH   1  18
BRANCH  15  28
HETATM   28  C19 UNL     1      32.538  14.212  31.954  1.00  0.00     0.158 C 
BRANCH  28  29
HETATM   29  C20 UNL     1      31.828  14.658  33.200  1.00  0.00     0.249 C 
BRANCH  29  30
HETATM   30  N10 UNL     1      32.072  13.848  34.342  1.00  0.00    -0.078 N 
ATOM     31 3H10 UNL     1      31.851  12.874  34.140  1.00  0.00     0.274 HD
ATOM     32 2H10 UNL     1      33.076  13.769  34.513  1.00  0.00     0.274 HD
ATOM     33 1H10 UNL     1      31.591  14.152  35.190  1.00  0.00     0.274 HD
ENDBRANCH  29  30
ENDBRANCH  28  29
ENDBRANCH  15  28
BRANCH   6  34
HETATM   34  C10 UNL     1      30.218   9.027  27.212  1.00  0.00     0.036 C 
BRANCH  34  35
HETATM   35  C11 UNL     1      31.286   8.250  26.479  1.00  0.00     0.022 C 
BRANCH  35  36
HETATM   36  C12 UNL     1      31.291   6.855  27.116  1.00  0.00     0.122 C 
BRANCH  36  37
HETATM   37  N5  UNL     1      30.135   6.778  27.963  1.00  0.00    -0.367 N 
HETATM   38  C13 UNL     1      29.567   5.668  28.291  1.00  0.00     0.196 C 
HETATM   39  N6  UNL     1      30.102   4.453  27.797  1.00  0.00    -0.067 NA
HETATM   40  N7  UNL     1      28.426   5.607  29.131  1.00  0.00    -0.067 NA
ATOM     41  H5  UNL     1      29.743   7.647  28.324  1.00  0.00     0.161 HD
ENDBRANCH  36  37
ENDBRANCH  35  36
ENDBRANCH  34  35
ENDBRANCH   6  34
TORSDOF 11
ENDMDL
MODEL 3
REMARK VINA RESULT: -6.996591920      2.223      6.471
REMARK  11 active torsions:
REMARK  status: ('A' for Active; 'I' for Inactive)
REMARK       I    between atoms: N1_2  and  C3_4 
REMARK    1  A    between atoms: N3_6  and  C4_8 
REMARK    2  A    between atoms: C4_8  and  C5_9 
REMARK    3  A    between atoms: C5_9  and  C6_10 
REMARK    4  A    between atoms: C6_10  and  C7_11 
REMARK    5  A    between atoms: C9_16  and  C10_17 
REMARK    6  A    between atoms: C10_17  and  C11_18 
REMARK    7  A    between atoms: C11_18  and  C12_19 
REMARK    8  A    between atoms: C12_19  and  N5_20 
REMARK    9  A    between atoms: N9_33  and  C19_34 
REMARK   10  A    between atoms: C19_34  and  C20_35 
REMARK   11  A    between atoms: C20_35  and  N10_36 
ROOT
HETATM    1  C7  UNL     1      31.201  11.682  27.341  1.00  0.00     0.177 C 
HETATM    2  N4  UNL     1      30.047  12.272  26.655  1.00  0.00    -0.346 N 
ATOM      3  H4  UNL     1      30.182  12.576  25.691  1.00  0.00     0.163 HD
HETATM    4  C8  UNL     1      28.781  12.453  27.211  1.00  0.00     0.241 C 
HETATM    5  O1  UNL     1      28.200  13.574  26.967  1.00  0.00    -0.271 OA
HETATM    6  C9  UNL     1      28.061  11.463  28.051  1.00  0.00     0.176 C 
HETATM    7  N8  UNL     1      27.698  12.013  29.338  1.00  0.00    -0.348 N 
ATOM      8  H8  UNL     1      26.965  12.721  29.317  1.00  0.00     0.163 HD
HETATM    9  C14 UNL     1      28.204  11.717  30.600  1.00  0.00     0.218 C 
HETATM   10  O2  UNL     1      27.348  11.308  31.471  1.00  0.00    -0.274 OA
HETATM   11  C15 UNL     1      29.618  11.816  31.063  1.00  0.00     0.106 C 
HETATM   12  C16 UNL     1      30.367  10.538  30.864  1.00  0.00     0.038 C 
HETATM   13  C17 UNL     1      31.817  10.595  30.772  1.00  0.00    -0.009 C 
HETATM   14  C18 UNL     1      32.644  11.404  30.187  1.00  0.00     0.090 C 
HETATM   15  N9  UNL     1      32.515  12.549  29.402  1.00  0.00    -0.325 N 
HETATM   16  C21 UNL     1      31.800  12.713  28.171  1.00  0.00     0.246 C 
HETATM   17  O3  UNL     1      31.652  13.913  27.721  1.00  0.00    -0.271 OA
ENDROOT
BRANCH   1  18
HETATM   18  C6  UNL     1      32.190  11.292  26.248  1.00  0.00     0.036 C 
BRANCH  18  19
HETATM   19  C5  UNL     1      32.348   9.818  26.085  1.00  0.00     0.022 C 
BRANCH  19  20
HETATM   20  C4  UNL     1      31.530   9.167  27.215  1.00  0.00     0.122 C 
BRANCH  20  21
HETATM   21  N3  UNL     1      31.801   7.757  27.269  1.00  0.00    -0.365 N 
HETATM   22  C3  UNL     1      31.160   6.967  28.045  1.00  0.00     0.185 C 
HETATM   23  N1  UNL     1      31.513   5.571  28.019  1.00  0.00    -0.364 N 
HETATM   24  N2  UNL     1      30.145   7.467  28.886  1.00  0.00    -0.064 NA
HETATM   25  C1  UNL     1      30.566   4.633  28.541  1.00  0.00     0.151 C 
HETATM   26  C2  UNL     1      32.765   5.111  27.493  1.00  0.00     0.151 C 
ATOM     27  H3  UNL     1      32.529   7.372  26.667  1.00  0.00     0.162 HD
ENDBRANCH  20  21
ENDBRANCH  19  20
ENDBRANCH  18  19
ENDBRANCH   1  18
BRANCH  15  28
HETATM   28  C19 UNL     1      33.198  13.776  29.838  1.00  0.00     0.158 C 
BRANCH  28  29
HETATM   29  C20 UNL     1      33.678  13.706  31.259  1.00  0.00     0.249 C 
BRANCH  29  30
HETATM   30  N10 UNL     1      32.848  14.377  32.198  1.00  0.00    -0.078 N 
ATOM     31 3H10 UNL     1      32.485  15.241  31.796  1.00  0.00     0.274 HD
ATOM     32 2H10 UNL     1      31.975  13.864  32.330  1.00  0.00     0.274 HD
ATOM     33 1H10 UNL     1      33.289  14.564  33.099  1.00  0.00     0.274 HD
ENDBRANCH  29  30
ENDBRANCH  28  29
ENDBRANCH  15  28
BRANCH   6  34
HETATM   34  C10 UNL     1      26.803  11.094  27.257  1.00  0.00     0.036 C 
BRANCH  34  35
HETATM   35  C11 UNL     1      26.270   9.744  27.673  1.00  0.00     0.022 C 
BRANCH  35  36
HETATM   36  C12 UNL     1      24.935  10.025  28.374  1.00  0.00     0.122 C 
BRANCH  36  37
HETATM   37  N5  UNL     1      23.996  10.390  27.353  1.00  0.00    -0.367 N 
HETATM   38  C13 UNL     1      23.120   9.577  26.868  1.00  0.00     0.196 C 
HETATM   39  N6  UNL     1      23.071   8.251  27.361  1.00  0.00    -0.067 NA
HETATM   40  N7  UNL     1      22.197   9.954  25.860  1.00  0.00    -0.067 NA
ATOM     41  H5  UNL     1      24.023  11.344  26.991  1.00  0.00     0.161 HD
ENDBRANCH  36  37
ENDBRANCH  35  36
ENDBRANCH  34  35
ENDBRANCH   6  34
TORSDOF 11
ENDMDL
MODEL 4
REMARK VINA RESULT: -6.967949230      1.228      1.398
REMARK  11 active torsions:
REMARK  status: ('A' for Active; 'I' for Inactive)
REMARK       I    between atoms: N1_2  and  C3_4 
REMARK    1  A    between atoms: N3_6  and  C4_8 
REMARK    2  A    between atoms: C4_8  and  C5_9 
REMARK    3  A    between atoms: C5_9  and  C6_10 
REMARK    4  A    between atoms: C6_10  and  C7_11 
REMARK    5  A    between atoms: C9_16  and  C10_17 
REMARK    6  A    between atoms: C10_17  and  C11_18 
REMARK    7  A    between atoms: C11_18  and  C12_19 
REMARK    8  A    between atoms: C12_19  and  N5_20 
REMARK    9  A    between atoms: N9_33  and  C19_34 
REMARK   10  A    between atoms: C19_34  and  C20_35 
REMARK   11  A    between atoms: C20_35  and  N10_36 
ROOT
HETATM    1  C7  UNL     1      30.285  12.531  30.269  1.00  0.00     0.177 C 
HETATM    2  N4  UNL     1      30.162  11.075  30.392  1.00  0.00    -0.346 N 
ATOM      3  H4  UNL     1      29.631  10.716  31.184  1.00  0.00     0.163 HD
HETATM    4  C8  UNL     1      30.712  10.140  29.515  1.00  0.00     0.241 C 
HETATM    5  O1  UNL     1      31.266   9.109  30.046  1.00  0.00    -0.271 OA
HETATM    6  C9  UNL     1      30.706  10.243  28.034  1.00  0.00     0.176 C 
HETATM    7  N8  UNL     1      32.042  10.180  27.485  1.00  0.00    -0.348 N 
ATOM      8  H8  UNL     1      32.496   9.269  27.549  1.00  0.00     0.163 HD
HETATM    9  C14 UNL     1      32.798  11.181  26.883  1.00  0.00     0.218 C 
HETATM   10  O2  UNL     1      33.197  10.944  25.681  1.00  0.00    -0.274 OA
HETATM   11  C15 UNL     1      33.201  12.494  27.463  1.00  0.00     0.106 C 
HETATM   12  C16 UNL     1      32.208  13.571  27.164  1.00  0.00     0.038 C 
HETATM   13  C17 UNL     1      32.163  14.731  28.039  1.00  0.00    -0.009 C 
HETATM   14  C18 UNL     1      32.242  14.884  29.324  1.00  0.00     0.090 C 
HETATM   15  N9  UNL     1      32.399  14.026  30.413  1.00  0.00    -0.325 N 
HETATM   16  C21 UNL     1      31.582  12.914  30.799  1.00  0.00     0.246 C 
HETATM   17  O3  UNL     1      32.028  12.140  31.729  1.00  0.00    -0.271 OA
ENDROOT
BRANCH   1  18
HETATM   18  C6  UNL     1      29.195  13.125  31.154  1.00  0.00     0.036 C 
BRANCH  18  19
HETATM   19  C5  UNL     1      28.057  13.712  30.388  1.00  0.00     0.022 C 
BRANCH  19  20
HETATM   20  C4  UNL     1      26.835  12.821  30.679  1.00  0.00     0.122 C 
BRANCH  20  21
HETATM   21  N3  UNL     1      26.257  12.363  29.445  1.00  0.00    -0.365 N 
HETATM   22  C3  UNL     1      26.386  11.157  29.037  1.00  0.00     0.185 C 
HETATM   23  N1  UNL     1      25.766  10.804  27.786  1.00  0.00    -0.364 N 
HETATM   24  N2  UNL     1      27.110  10.222  29.804  1.00  0.00    -0.064 NA
HETATM   25  C1  UNL     1      25.539   9.416  27.521  1.00  0.00     0.151 C 
HETATM   26  C2  UNL     1      25.380  11.792  26.821  1.00  0.00     0.151 C 
ATOM     27  H3  UNL     1      25.726  13.022  28.875  1.00  0.00     0.162 HD
ENDBRANCH  20  21
ENDBRANCH  19  20
ENDBRANCH  18  19
ENDBRANCH   1  18
BRANCH  15  28
HETATM   28  C19 UNL     1      33.525  14.258  31.328  1.00  0.00     0.158 C 
BRANCH  28  29
HETATM   29  C20 UNL     1      34.709  14.890  30.654  1.00  0.00     0.249 C 
BRANCH  29  30
HETATM   30  N10 UNL     1      35.391  15.859  31.441  1.00  0.00    -0.078 N 
ATOM     31 3H10 UNL     1      36.038  15.402  32.082  1.00  0.00     0.274 HD
ATOM     32 2H10 UNL     1      36.052  16.382  30.866  1.00  0.00     0.274 HD
ATOM     33 1H10 UNL     1      34.780  16.499  31.950  1.00  0.00     0.274 HD
ENDBRANCH  29  30
ENDBRANCH  28  29
ENDBRANCH  15  28
BRANCH   6  34
HETATM   34  C10 UNL     1      29.875   9.049  27.547  1.00  0.00     0.036 C 
BRANCH  34  35
HETATM   35  C11 UNL     1      30.707   8.109  26.708  1.00  0.00     0.022 C 
BRANCH  35  36
HETATM   36  C12 UNL     1      30.715   6.776  27.466  1.00  0.00     0.122 C 
BRANCH  36  37
HETATM   37  N5  UNL     1      32.048   6.254  27.381  1.00  0.00    -0.367 N 
HETATM   38  C13 UNL     1      32.359   5.042  27.695  1.00  0.00     0.196 C 
HETATM   39  N6  UNL     1      31.340   4.170  28.150  1.00  0.00    -0.067 NA
HETATM   40  N7  UNL     1      33.682   4.539  27.603  1.00  0.00    -0.067 NA
ATOM     41  H5  UNL     1      32.789   6.874  27.054  1.00  0.00     0.161 HD
ENDBRANCH  36  37
ENDBRANCH  35  36
ENDBRANCH  34  35
ENDBRANCH   6  34
TORSDOF 11
ENDMDL
MODEL 5
REMARK VINA RESULT: -6.922690086      2.428      3.544
REMARK  11 active torsions:
REMARK  status: ('A' for Active; 'I' for Inactive)
REMARK       I    between atoms: N1_2  and  C3_4 
REMARK    1  A    between atoms: N3_6  and  C4_8 
REMARK    2  A    between atoms: C4_8  and  C5_9 
REMARK    3  A    between atoms: C5_9  and  C6_10 
REMARK    4  A    between atoms: C6_10  and  C7_11 
REMARK    5  A    between atoms: C9_16  and  C10_17 
REMARK    6  A    between atoms: C10_17  and  C11_18 
REMARK    7  A    between atoms: C11_18  and  C12_19 
REMARK    8  A    between atoms: C12_19  and  N5_20 
REMARK    9  A    between atoms: N9_33  and  C19_34 
REMARK   10  A    between atoms: C19_34  and  C20_35 
REMARK   11  A    between atoms: C20_35  and  N10_36 
ROOT
HETATM    1  C7  UNL     1      29.758  12.306  30.225  1.00  0.00     0.177 C 
HETATM    2  N4  UNL     1      29.772  10.839  30.217  1.00  0.00    -0.346 N 
ATOM      3  H4  UNL     1      29.153  10.362  30.873  1.00  0.00     0.163 HD
HETATM    4  C8  UNL     1      30.561  10.042  29.388  1.00  0.00     0.241 C 
HETATM    5  O1  UNL     1      31.121   9.022  29.934  1.00  0.00    -0.271 OA
HETATM    6  C9  UNL     1      30.799  10.277  27.942  1.00  0.00     0.176 C 
HETATM    7  N8  UNL     1      32.208  10.387  27.640  1.00  0.00    -0.348 N 
ATOM      8  H8  UNL     1      32.739   9.520  27.718  1.00  0.00     0.163 HD
HETATM    9  C14 UNL     1      32.946  11.503  27.259  1.00  0.00     0.218 C 
HETATM   10  O2  UNL     1      33.569  11.414  26.135  1.00  0.00    -0.274 OA
HETATM   11  C15 UNL     1      33.101  12.790  27.996  1.00  0.00     0.106 C 
HETATM   12  C16 UNL     1      32.065  13.794  27.602  1.00  0.00     0.038 C 
HETATM   13  C17 UNL     1      31.747  14.861  28.537  1.00  0.00    -0.009 C 
HETATM   14  C18 UNL     1      31.588  14.904  29.822  1.00  0.00     0.090 C 
HETATM   15  N9  UNL     1      31.645  13.969  30.856  1.00  0.00    -0.325 N 
HETATM   16  C21 UNL     1      30.897  12.756  31.007  1.00  0.00     0.246 C 
HETATM   17  O3  UNL     1      31.255  11.946  31.943  1.00  0.00    -0.271 OA
ENDROOT
BRANCH   1  18
HETATM   18  C6  UNL     1      28.475  12.714  30.940  1.00  0.00     0.036 C 
BRANCH  18  19
HETATM   19  C5  UNL     1      27.937  14.032  30.494  1.00  0.00     0.022 C 
BRANCH  19  20
HETATM   20  C4  UNL     1      28.103  14.992  31.687  1.00  0.00     0.122 C 
BRANCH  20  21
HETATM   21  N3  UNL     1      27.025  14.807  32.619  1.00  0.00    -0.365 N 
HETATM   22  C3  UNL     1      27.160  15.030  33.872  1.00  0.00     0.185 C 
HETATM   23  N1  UNL     1      26.014  14.813  34.718  1.00  0.00    -0.364 N 
HETATM   24  N2  UNL     1      28.394  15.477  34.385  1.00  0.00    -0.064 NA
HETATM   25  C1  UNL     1      26.008  15.434  36.007  1.00  0.00     0.151 C 
HETATM   26  C2  UNL     1      24.904  14.004  34.304  1.00  0.00     0.151 C 
ATOM     27  H3  UNL     1      26.121  14.487  32.270  1.00  0.00     0.162 HD
ENDBRANCH  20  21
ENDBRANCH  19  20
ENDBRANCH  18  19
ENDBRANCH   1  18
BRANCH  15  28
HETATM   28  C19 UNL     1      32.566  14.219  31.975  1.00  0.00     0.158 C 
BRANCH  28  29
HETATM   29  C20 UNL     1      31.864  14.684  33.218  1.00  0.00     0.249 C 
BRANCH  29  30
HETATM   30  N10 UNL     1      32.069  13.858  34.357  1.00  0.00    -0.078 N 
ATOM     31 3H10 UNL     1      31.661  12.936  34.204  1.00  0.00     0.274 HD
ATOM     32 2H10 UNL     1      33.054  13.603  34.439  1.00  0.00     0.274 HD
ATOM     33 1H10 UNL     1      31.731  14.253  35.235  1.00  0.00     0.274 HD
ENDBRANCH  29  30
ENDBRANCH  28  29
ENDBRANCH  15  28
BRANCH   6  34
HETATM   34  C10 UNL     1      30.196   9.062  27.227  1.00  0.00     0.036 C 
BRANCH  34  35
HETATM   35  C11 UNL     1      31.253   8.289  26.476  1.00  0.00     0.022 C 
BRANCH  35  36
HETATM   36  C12 UNL     1      31.282   6.897  27.119  1.00  0.00     0.122 C 
BRANCH  36  37
HETATM   37  N5  UNL     1      30.129   6.805  27.967  1.00  0.00    -0.367 N 
HETATM   38  C13 UNL     1      29.573   5.687  28.293  1.00  0.00     0.196 C 
HETATM   39  N6  UNL     1      30.121   4.480  27.795  1.00  0.00    -0.067 NA
HETATM   40  N7  UNL     1      28.434   5.611  29.134  1.00  0.00    -0.067 NA
ATOM     41  H5  UNL     1      29.727   7.668  28.332  1.00  0.00     0.161 HD
ENDBRANCH  36  37
ENDBRANCH  35  36
ENDBRANCH  34  35
ENDBRANCH   6  34
TORSDOF 11
ENDMDL
