MODEL 1
REMARK VINA RESULT: -7.135481046      0.000      0.000
REMARK  11 active torsions:
REMARK  status: ('A' for Active; 'I' for Inactive)
REMARK    1  A    between atoms: C2_2  and  N1_3 
REMARK    2  A    between atoms: C5_9  and  C6_10 
REMARK    3  A    between atoms: C6_10  and  C7_11 
REMARK    4  A    between atoms: C7_11  and  C8_12 
REMARK    5  A    between atoms: C8_12  and  N3_13 
REMARK    6  A    between atoms: C11_22  and  C12_23 
REMARK    7  A    between atoms: C12_23  and  C13_24 
REMARK    8  A    between atoms: C17_31  and  C18_32 
REMARK    9  A    between atoms: C18_32  and  C19_33 
REMARK   10  A    between atoms: C19_33  and  C20_34 
REMARK   11  A    between atoms: C20_34  and  N8_35 
ROOT
HETATM    1  N1  UNL     1      25.794  11.617  29.044  1.00  0.00    -0.342 N 
HETATM    2  C3  UNL     1      25.457  10.223  28.860  1.00  0.00     0.185 C 
HETATM    3  N2  UNL     1      26.396   9.456  28.117  1.00  0.00    -0.321 N 
ATOM      4  H2  UNL     1      26.012   8.990  27.294  1.00  0.00     0.169 HD
HETATM    5  C4  UNL     1      27.759   9.237  28.332  1.00  0.00     0.245 C 
HETATM    6  O1  UNL     1      28.531   9.408  27.320  1.00  0.00    -0.271 OA
HETATM    7  C5  UNL     1      28.448   8.829  29.576  1.00  0.00     0.177 C 
HETATM    8  N6  UNL     1      27.728   9.159  30.784  1.00  0.00    -0.346 N 
ATOM      9  H6  UNL     1      26.984   8.515  31.055  1.00  0.00     0.163 HD
HETATM   10  C10 UNL     1      27.927  10.249  31.618  1.00  0.00     0.241 C 
HETATM   11  O2  UNL     1      27.965  10.092  32.881  1.00  0.00    -0.271 OA
HETATM   12  C11 UNL     1      28.114  11.682  31.164  1.00  0.00     0.177 C 
HETATM   13  N7  UNL     1      27.035  12.449  31.736  1.00  0.00    -0.343 N 
ATOM     14  H7  UNL     1      27.116  12.668  32.730  1.00  0.00     0.163 HD
HETATM   15  C16 UNL     1      25.896  12.926  31.094  1.00  0.00     0.265 C 
HETATM   16  O3  UNL     1      25.505  14.117  31.400  1.00  0.00    -0.266 OA
HETATM   17  C17 UNL     1      25.054  12.236  30.085  1.00  0.00     0.080 C 
ENDROOT
BRANCH   7  18
HETATM   18  C6  UNL     1      28.695   7.327  29.590  1.00  0.00     0.036 C 
BRANCH  18  19
HETATM   19  C7  UNL     1      30.089   6.963  29.157  1.00  0.00     0.022 C 
BRANCH  19  20
HETATM   20  C8  UNL     1      30.072   5.799  28.169  1.00  0.00     0.122 C 
BRANCH  20  21
HETATM   21  N3  UNL     1      31.431   5.652  27.681  1.00  0.00    -0.367 N 
HETATM   22  C9  UNL     1      32.216   4.768  28.153  1.00  0.00     0.196 C 
HETATM   23  N4  UNL     1      33.536   4.637  27.668  1.00  0.00    -0.067 NA
HETATM   24  N5  UNL     1      31.773   3.904  29.175  1.00  0.00    -0.067 NA
ATOM     25  H3  UNL     1      31.765   6.272  26.943  1.00  0.00     0.161 HD
ENDBRANCH  20  21
ENDBRANCH  19  20
ENDBRANCH  18  19
ENDBRANCH   7  18
BRANCH  12  26
HETATM   26  C12 UNL     1      29.470  12.043  31.653  1.00  0.00     0.038 C 
BRANCH  26  27
HETATM   27  C13 UNL     1      30.627  11.821  30.782  1.00  0.00    -0.020 C 
HETATM   28  C14 UNL     1      30.355  11.881  29.301  1.00  0.00     0.009 C 
HETATM   29  C15 UNL     1      31.412  10.564  31.050  1.00  0.00     0.009 C 
ENDBRANCH  26  27
ENDBRANCH  12  26
BRANCH   1  30
HETATM   30  C2  UNL     1      26.033  12.316  27.842  1.00  0.00     0.125 C 
HETATM   31  C1  UNL     1      27.343  12.976  27.637  1.00  0.00     0.027 C 
ENDBRANCH   1  30
BRANCH  17  32
HETATM   32  C18 UNL     1      23.859  13.030  29.735  1.00  0.00     0.065 C 
BRANCH  32  33
HETATM   33  C19 UNL     1      22.528  12.418  29.899  1.00  0.00     0.026 C 
BRANCH  33  34
HETATM   34  C20 UNL     1      21.830  12.231  28.539  1.00  0.00     0.122 C 
BRANCH  34  35
HETATM   35  N8  UNL     1      22.074  10.920  28.013  1.00  0.00    -0.367 N 
HETATM   36  C21 UNL     1      22.579  10.694  26.860  1.00  0.00     0.196 C 
HETATM   37  N9  UNL     1      22.776   9.365  26.440  1.00  0.00    -0.067 NA
HETATM   38  N10 UNL     1      22.927  11.783  26.030  1.00  0.00    -0.067 NA
ATOM     39  H8  UNL     1      21.830  10.117  28.595  1.00  0.00     0.161 HD
ENDBRANCH  34  35
ENDBRANCH  33  34
ENDBRANCH  32  33
ENDBRANCH  17  32
TORSDOF 11
ENDMDL
MODEL 2
REMARK VINA RESULT: -6.876081387      1.864      2.521
REMARK  11 active torsions:
REMARK  status: ('A' for Active; 'I' for Inactive)
REMARK    1  A    between atoms: C2_2  and  N1_3 
REMARK    2  A    between atoms: C5_9  and  C6_10 
REMARK    3  A    between atoms: C6_10  and  C7_11 
REMARK    4  A    between atoms: C7_11  and  C8_12 
REMARK    5  A    between atoms: C8_12  and  N3_13 
REMARK    6  A    between atoms: C11_22  and  C12_23 
REMARK    7  A    between atoms: C12_23  and  C13_24 
REMARK    8  A    between atoms: C17_31  and  C18_32 
REMARK    9  A    between atoms: C18_32  and  C19_33 
REMARK   10  A    between atoms: C19_33  and  C20_34 
REMARK   11  A    between atoms: C20_34  and  N8_35 
ROOT
HETATM    1  N1  UNL     1      28.623  12.559  28.214  1.00  0.00    -0.342 N 
HETATM    2  C3  UNL     1      28.272  11.269  27.664  1.00  0.00     0.185 C 
HETATM    3  N2  UNL     1      29.355  10.501  27.158  1.00  0.00    -0.321 N 
ATOM      4  H2  UNL     1      29.263  10.223  26.181  1.00  0.00     0.169 HD
HETATM    5  C4  UNL     1      30.527  10.065  27.782  1.00  0.00     0.245 C 
HETATM    6  O1  UNL     1      31.624  10.279  27.150  1.00  0.00    -0.271 OA
HETATM    7  C5  UNL     1      30.686   9.384  29.085  1.00  0.00     0.177 C 
HETATM    8  N6  UNL     1      29.603   9.624  30.011  1.00  0.00    -0.346 N 
ATOM      9  H6  UNL     1      28.766   9.055  29.882  1.00  0.00     0.163 HD
HETATM   10  C10 UNL     1      29.568  10.537  31.054  1.00  0.00     0.241 C 
HETATM   11  O2  UNL     1      29.133  10.187  32.199  1.00  0.00    -0.271 OA
HETATM   12  C11 UNL     1      30.014  11.983  30.973  1.00  0.00     0.177 C 
HETATM   13  N7  UNL     1      28.862  12.796  31.275  1.00  0.00    -0.343 N 
ATOM     14  H7  UNL     1      28.593  12.849  32.258  1.00  0.00     0.163 HD
HETATM   15  C16 UNL     1      28.073  13.518  30.383  1.00  0.00     0.265 C 
HETATM   16  O3  UNL     1      27.688  14.691  30.757  1.00  0.00    -0.266 OA
HETATM   17  C17 UNL     1      27.605  13.110  29.035  1.00  0.00     0.080 C 
ENDROOT
BRANCH   7  18
HETATM   18  C6  UNL     1      30.797   7.877  28.898  1.00  0.00     0.036 C 
BRANCH  18  19
HETATM   19  C7  UNL     1      29.528   7.152  29.254  1.00  0.00     0.022 C 
BRANCH  19  20
HETATM   20  C8  UNL     1      29.442   5.807  28.537  1.00  0.00     0.122 C 
BRANCH  20  21
HETATM   21  N3  UNL     1      30.774   5.519  28.039  1.00  0.00    -0.367 N 
HETATM   22  C9  UNL     1      31.492   4.601  28.552  1.00  0.00     0.196 C 
HETATM   23  N4  UNL     1      32.787   4.331  28.056  1.00  0.00    -0.067 NA
HETATM   24  N5  UNL     1      30.998   3.838  29.630  1.00  0.00    -0.067 NA
ATOM     25  H3  UNL     1      31.144   6.064  27.260  1.00  0.00     0.161 HD
ENDBRANCH  20  21
ENDBRANCH  19  20
ENDBRANCH  18  19
ENDBRANCH   7  18
BRANCH  12  26
HETATM   26  C12 UNL     1      31.124  12.075  31.958  1.00  0.00     0.038 C 
BRANCH  26  27
HETATM   27  C13 UNL     1      32.508  12.054  31.480  1.00  0.00    -0.020 C 
HETATM   28  C14 UNL     1      32.691  12.210  29.992  1.00  0.00     0.009 C 
HETATM   29  C15 UNL     1      33.330  10.871  31.917  1.00  0.00     0.009 C 
ENDBRANCH  26  27
ENDBRANCH  12  26
BRANCH   1  30
HETATM   30  C2  UNL     1      29.334  13.392  27.325  1.00  0.00     0.125 C 
HETATM   31  C1  UNL     1      30.563  14.072  27.794  1.00  0.00     0.027 C 
ENDBRANCH   1  30
BRANCH  17  32
HETATM   32  C18 UNL     1      26.681  14.106  28.454  1.00  0.00     0.065 C 
BRANCH  32  33
HETATM   33  C19 UNL     1      25.391  13.644  27.911  1.00  0.00     0.026 C 
BRANCH  33  34
HETATM   34  C20 UNL     1      24.745  12.591  28.831  1.00  0.00     0.122 C 
BRANCH  34  35
HETATM   35  N8  UNL     1      24.439  11.394  28.104  1.00  0.00    -0.367 N 
HETATM   36  C21 UNL     1      24.813  10.225  28.461  1.00  0.00     0.196 C 
HETATM   37  N9  UNL     1      24.458   9.114  27.674  1.00  0.00    -0.067 NA
HETATM   38  N10 UNL     1      25.576  10.071  29.641  1.00  0.00    -0.067 NA
ATOM     39  H8  UNL     1      23.889  11.480  27.249  1.00  0.00     0.161 HD
ENDBRANCH  34  35
ENDBRANCH  33  34
ENDBRANCH  32  33
ENDBRANCH  17  32
TORSDOF 11
ENDMDL
MODEL 3
REMARK VINA RESULT: -6.875052125      1.155      1.376
REMARK  11 active torsions:
REMARK  status: ('A' for Active; 'I' for Inactive)
REMARK    1  A    between atoms: C2_2  and  N1_3 
REMARK    2  A    between atoms: C5_9  and  C6_10 
REMARK    3  A    between atoms: C6_10  and  C7_11 
REMARK    4  A    between atoms: C7_11  and  C8_12 
REMARK    5  A    between atoms: C8_12  and  N3_13 
REMARK    6  A    between atoms: C11_22  and  C12_23 
REMARK    7  A    between atoms: C12_23  and  C13_24 
REMARK    8  A    between atoms: C17_31  and  C18_32 
REMARK    9  A    between atoms: C18_32  and  C19_33 
REMARK   10  A    between atoms: C19_33  and  C20_34 
REMARK   11  A    between atoms: C20_34  and  N8_35 
ROOT
HETATM    1  N1  UNL     1      26.923  11.484  28.801  1.00  0.00    -0.342 N 
HETATM    2  C3  UNL     1      26.658  10.077  28.600  1.00  0.00     0.185 C 
HETATM    3  N2  UNL     1      27.634   9.369  27.848  1.00  0.00    -0.321 N 
ATOM      4  H2  UNL     1      27.273   8.894  27.020  1.00  0.00     0.169 HD
HETATM    5  C4  UNL     1      29.007   9.218  28.058  1.00  0.00     0.245 C 
HETATM    6  O1  UNL     1      29.767   9.441  27.048  1.00  0.00    -0.271 OA
HETATM    7  C5  UNL     1      29.718   8.832  29.296  1.00  0.00     0.177 C 
HETATM    8  N6  UNL     1      28.984   9.110  30.509  1.00  0.00    -0.346 N 
ATOM      9  H6  UNL     1      28.276   8.424  30.773  1.00  0.00     0.163 HD
HETATM   10  C10 UNL     1      29.128  10.198  31.356  1.00  0.00     0.241 C 
HETATM   11  O2  UNL     1      29.177  10.028  32.617  1.00  0.00    -0.271 OA
HETATM   12  C11 UNL     1      29.240  11.645  30.918  1.00  0.00     0.177 C 
HETATM   13  N7  UNL     1      28.124  12.348  31.501  1.00  0.00    -0.343 N 
ATOM     14  H7  UNL     1      28.195  12.558  32.497  1.00  0.00     0.163 HD
HETATM   15  C16 UNL     1      26.960  12.773  30.866  1.00  0.00     0.265 C 
HETATM   16  O3  UNL     1      26.509  13.938  31.187  1.00  0.00    -0.266 OA
HETATM   17  C17 UNL     1      26.154  12.052  29.850  1.00  0.00     0.080 C 
ENDROOT
BRANCH   7  18
HETATM   18  C6  UNL     1      30.043   7.344  29.292  1.00  0.00     0.036 C 
BRANCH  18  19
HETATM   19  C7  UNL     1      29.035   6.532  28.525  1.00  0.00     0.022 C 
BRANCH  19  20
HETATM   20  C8  UNL     1      29.591   5.153  28.176  1.00  0.00     0.122 C 
BRANCH  20  21
HETATM   21  N3  UNL     1      30.975   5.352  27.788  1.00  0.00    -0.367 N 
HETATM   22  C9  UNL     1      31.924   4.725  28.361  1.00  0.00     0.196 C 
HETATM   23  N4  UNL     1      33.266   4.928  27.972  1.00  0.00    -0.067 NA
HETATM   24  N5  UNL     1      31.642   3.814  29.398  1.00  0.00    -0.067 NA
ATOM     25  H3  UNL     1      31.193   6.010  27.039  1.00  0.00     0.161 HD
ENDBRANCH  20  21
ENDBRANCH  19  20
ENDBRANCH  18  19
ENDBRANCH   7  18
BRANCH  12  26
HETATM   26  C12 UNL     1      30.577  12.070  31.410  1.00  0.00     0.038 C 
BRANCH  26  27
HETATM   27  C13 UNL     1      31.777  11.442  30.852  1.00  0.00    -0.020 C 
HETATM   28  C14 UNL     1      32.915  11.228  31.816  1.00  0.00     0.009 C 
HETATM   29  C15 UNL     1      32.341  12.097  29.619  1.00  0.00     0.009 C 
ENDBRANCH  26  27
ENDBRANCH  12  26
BRANCH   1  30
HETATM   30  C2  UNL     1      27.123  12.210  27.607  1.00  0.00     0.125 C 
HETATM   31  C1  UNL     1      28.423  12.881  27.378  1.00  0.00     0.027 C 
ENDBRANCH   1  30
BRANCH  17  32
HETATM   32  C18 UNL     1      24.918  12.787  29.511  1.00  0.00     0.065 C 
BRANCH  32  33
HETATM   33  C19 UNL     1      23.619  12.206  29.895  1.00  0.00     0.026 C 
BRANCH  33  34
HETATM   34  C20 UNL     1      22.896  11.606  28.675  1.00  0.00     0.122 C 
BRANCH  34  35
HETATM   35  N8  UNL     1      22.946  10.174  28.703  1.00  0.00    -0.367 N 
HETATM   36  C21 UNL     1      23.106   9.444  27.665  1.00  0.00     0.196 C 
HETATM   37  N9  UNL     1      23.140   8.044  27.802  1.00  0.00    -0.067 NA
HETATM   38  N10 UNL     1      23.244  10.059  26.400  1.00  0.00    -0.067 NA
ATOM     39  H8  UNL     1      22.848   9.708  29.605  1.00  0.00     0.161 HD
ENDBRANCH  34  35
ENDBRANCH  33  34
ENDBRANCH  32  33
ENDBRANCH  17  32
TORSDOF 11
ENDMDL
MODEL 4
REMARK VINA RESULT: -6.848606058      1.988      2.469
REMARK  11 active torsions:
REMARK  status: ('A' for Active; 'I' for Inactive)
REMARK    1  A    between atoms: C2_2  and  N1_3 
REMARK    2  A    between atoms: C5_9  and  C6_10 
REMARK    3  A    between atoms: C6_10  and  C7_11 
REMARK    4  A    between atoms: C7_11  and  C8_12 
REMARK    5  A    between atoms: C8_12  and  N3_13 
REMARK    6  A    between atoms: C11_22  and  C12_23 
REMARK    7  A    between atoms: C12_23  and  C13_24 
REMARK    8  A    between atoms: C17_31  and  C18_32 
REMARK    9  A    between atoms: C18_32  and  C19_33 
REMARK   10  A    between atoms: C19_33  and  C20_34 
REMARK   11  A    between atoms: C20_34  and  N8_35 
ROOT
HETATM    1  N1  UNL     1      27.341  12.918  28.997  1.00  0.00    -0.342 N 
HETATM    2  C3  UNL     1      27.198  12.223  27.738  1.00  0.00     0.185 C 
HETATM    3  N2  UNL     1      28.314  12.304  26.861  1.00  0.00    -0.321 N 
ATOM      4  H2  UNL     1      28.106  12.684  25.937  1.00  0.00     0.169 HD
HETATM    5  C4  UNL     1      29.651  11.949  27.060  1.00  0.00     0.245 C 
HETATM    6  O1  UNL     1      30.530  12.824  26.726  1.00  0.00    -0.271 OA
HETATM    7  C5  UNL     1      30.206  10.692  27.607  1.00  0.00     0.177 C 
HETATM    8  N6  UNL     1      29.292   9.967  28.459  1.00  0.00    -0.346 N 
ATOM      9  H6  UNL     1      28.600   9.386  27.985  1.00  0.00     0.163 HD
HETATM   10  C10 UNL     1      29.245   9.968  29.845  1.00  0.00     0.241 C 
HETATM   11  O2  UNL     1      29.126   8.872  30.484  1.00  0.00    -0.271 OA
HETATM   12  C11 UNL     1      29.322  11.197  30.727  1.00  0.00     0.177 C 
HETATM   13  N7  UNL     1      28.092  11.255  31.478  1.00  0.00    -0.343 N 
ATOM     14  H7  UNL     1      28.009  10.601  32.257  1.00  0.00     0.163 HD
HETATM   15  C16 UNL     1      27.004  12.097  31.264  1.00  0.00     0.265 C 
HETATM   16  O3  UNL     1      26.437  12.599  32.309  1.00  0.00    -0.266 OA
HETATM   17  C17 UNL     1      26.397  12.502  29.972  1.00  0.00     0.080 C 
ENDROOT
BRANCH   7  18
HETATM   18  C6  UNL     1      30.624   9.752  26.485  1.00  0.00     0.036 C 
BRANCH  18  19
HETATM   19  C7  UNL     1      31.592   8.696  26.943  1.00  0.00     0.022 C 
BRANCH  19  20
HETATM   20  C8  UNL     1      30.889   7.357  27.152  1.00  0.00     0.122 C 
BRANCH  20  21
HETATM   21  N3  UNL     1      31.919   6.400  27.509  1.00  0.00    -0.367 N 
HETATM   22  C9  UNL     1      31.632   5.205  27.843  1.00  0.00     0.196 C 
HETATM   23  N4  UNL     1      32.646   4.285  28.188  1.00  0.00    -0.067 NA
HETATM   24  N5  UNL     1      30.287   4.786  27.874  1.00  0.00    -0.067 NA
ATOM     25  H3  UNL     1      32.897   6.691  27.492  1.00  0.00     0.161 HD
ENDBRANCH  20  21
ENDBRANCH  19  20
ENDBRANCH  18  19
ENDBRANCH   7  18
BRANCH  12  26
HETATM   26  C12 UNL     1      30.546  10.982  31.543  1.00  0.00     0.038 C 
BRANCH  26  27
HETATM   27  C13 UNL     1      31.860  11.204  30.933  1.00  0.00    -0.020 C 
HETATM   28  C14 UNL     1      33.046  11.015  31.842  1.00  0.00     0.009 C 
HETATM   29  C15 UNL     1      32.034  12.521  30.224  1.00  0.00     0.009 C 
ENDBRANCH  26  27
ENDBRANCH  12  26
BRANCH   1  30
HETATM   30  C2  UNL     1      27.659  14.286  28.868  1.00  0.00     0.125 C 
HETATM   31  C1  UNL     1      28.901  14.803  29.488  1.00  0.00     0.027 C 
ENDBRANCH   1  30
BRANCH  17  32
HETATM   32  C18 UNL     1      25.176  13.310  30.172  1.00  0.00     0.065 C 
BRANCH  32  33
HETATM   33  C19 UNL     1      23.909  12.836  29.587  1.00  0.00     0.026 C 
BRANCH  33  34
HETATM   34  C20 UNL     1      23.915  11.306  29.411  1.00  0.00     0.122 C 
BRANCH  34  35
HETATM   35  N8  UNL     1      23.242  10.927  28.203  1.00  0.00    -0.367 N 
HETATM   36  C21 UNL     1      23.602   9.949  27.460  1.00  0.00     0.196 C 
HETATM   37  N9  UNL     1      22.870   9.661  26.294  1.00  0.00    -0.067 NA
HETATM   38  N10 UNL     1      24.728   9.179  27.827  1.00  0.00    -0.067 NA
ATOM     39  H8  UNL     1      22.425  11.469  27.918  1.00  0.00     0.161 HD
ENDBRANCH  34  35
ENDBRANCH  33  34
ENDBRANCH  32  33
ENDBRANCH  17  32
TORSDOF 11
ENDMDL
MODEL 5
REMARK VINA RESULT: -6.808766092      3.961      6.999
REMARK  11 active torsions:
REMARK  status: ('A' for Active; 'I' for Inactive)
REMARK    1  A    between atoms: C2_2  and  N1_3 
REMARK    2  A    between atoms: C5_9  and  C6_10 
REMARK    3  A    between atoms: C6_10  and  C7_11 
REMARK    4  A    between atoms: C7_11  and  C8_12 
REMARK    5  A    between atoms: C8_12  and  N3_13 
REMARK    6  A    between atoms: C11_22  and  C12_23 
REMARK    7  A    between atoms: C12_23  and  C13_24 
REMARK    8  A    between atoms: C17_31  and  C18_32 
REMARK    9  A    between atoms: C18_32  and  C19_33 
REMARK   10  A    between atoms: C19_33  and  C20_34 
REMARK   11  A    between atoms: C20_34  and  N8_35 
ROOT
HETATM    1  N1  UNL     1      29.754  10.003  28.385  1.00  0.00    -0.342 N 
HETATM    2  C3  UNL     1      31.109   9.583  28.108  1.00  0.00     0.185 C 
HETATM    3  N2  UNL     1      31.953  10.571  27.532  1.00  0.00    -0.321 N 
ATOM      4  H2  UNL     1      32.375  10.307  26.642  1.00  0.00     0.169 HD
HETATM    5  C4  UNL     1      32.298  11.847  27.988  1.00  0.00     0.245 C 
HETATM    6  O1  UNL     1      32.191  12.804  27.139  1.00  0.00    -0.271 OA
HETATM    7  C5  UNL     1      32.777  12.255  29.326  1.00  0.00     0.177 C 
HETATM    8  N6  UNL     1      32.391  11.356  30.389  1.00  0.00    -0.346 N 
ATOM      9  H6  UNL     1      32.967  10.522  30.504  1.00  0.00     0.163 HD
HETATM   10  C10 UNL     1      31.331  11.494  31.272  1.00  0.00     0.241 C 
HETATM   11  O2  UNL     1      31.501  11.284  32.517  1.00  0.00    -0.271 OA
HETATM   12  C11 UNL     1      29.917  11.888  30.895  1.00  0.00     0.177 C 
HETATM   13  N7  UNL     1      29.059  10.794  31.279  1.00  0.00    -0.343 N 
ATOM     14  H7  UNL     1      28.856  10.709  32.275  1.00  0.00     0.163 HD
HETATM   15  C16 UNL     1      28.474   9.840  30.450  1.00  0.00     0.265 C 
HETATM   16  O3  UNL     1      27.256   9.507  30.709  1.00  0.00    -0.266 OA
HETATM   17  C17 UNL     1      29.077   9.142  29.288  1.00  0.00     0.080 C 
ENDROOT
BRANCH   7  18
HETATM   18  C6  UNL     1      34.295  12.361  29.349  1.00  0.00     0.036 C 
BRANCH  18  19
HETATM   19  C7  UNL     1      34.778  13.786  29.369  1.00  0.00     0.022 C 
BRANCH  19  20
HETATM   20  C8  UNL     1      35.777  14.044  28.244  1.00  0.00     0.122 C 
BRANCH  20  21
HETATM   21  N3  UNL     1      34.997  14.244  27.037  1.00  0.00    -0.367 N 
HETATM   22  C9  UNL     1      35.274  13.631  25.955  1.00  0.00     0.196 C 
HETATM   23  N4  UNL     1      34.505  13.835  24.789  1.00  0.00    -0.067 NA
HETATM   24  N5  UNL     1      36.360  12.734  25.912  1.00  0.00    -0.067 NA
ATOM     25  H3  UNL     1      34.209  14.891  27.054  1.00  0.00     0.161 HD
ENDBRANCH  20  21
ENDBRANCH  19  20
ENDBRANCH  18  19
ENDBRANCH   7  18
BRANCH  12  26
HETATM   26  C12 UNL     1      29.686  13.157  31.633  1.00  0.00     0.038 C 
BRANCH  26  27
HETATM   27  C13 UNL     1      29.993  14.431  30.978  1.00  0.00    -0.020 C 
HETATM   28  C14 UNL     1      29.879  14.441  29.476  1.00  0.00     0.009 C 
HETATM   29  C15 UNL     1      31.320  15.046  31.338  1.00  0.00     0.009 C 
ENDBRANCH  26  27
ENDBRANCH  12  26
BRANCH   1  30
HETATM   30  C2  UNL     1      29.070  10.522  27.265  1.00  0.00     0.125 C 
HETATM   31  C1  UNL     1      28.436  11.857  27.357  1.00  0.00     0.027 C 
ENDBRANCH   1  30
BRANCH  17  32
HETATM   32  C18 UNL     1      28.174   8.107  28.744  1.00  0.00     0.065 C 
BRANCH  32  33
HETATM   33  C19 UNL     1      28.748   6.819  28.315  1.00  0.00     0.026 C 
BRANCH  33  34
HETATM   34  C20 UNL     1      29.825   6.333  29.303  1.00  0.00     0.122 C 
BRANCH  34  35
HETATM   35  N8  UNL     1      30.988   5.868  28.605  1.00  0.00    -0.367 N 
HETATM   36  C21 UNL     1      31.511   4.714  28.777  1.00  0.00     0.196 C 
HETATM   37  N9  UNL     1      32.655   4.356  28.040  1.00  0.00    -0.067 NA
HETATM   38  N10 UNL     1      30.929   3.820  29.704  1.00  0.00    -0.067 NA
ATOM     39  H8  UNL     1      31.426   6.497  27.931  1.00  0.00     0.161 HD
ENDBRANCH  34  35
ENDBRANCH  33  34
ENDBRANCH  32  33
ENDBRANCH  17  32
TORSDOF 11
ENDMDL
