MODEL 1
REMARK VINA RESULT: -8.788911733      0.000      0.000
REMARK  5 active torsions:
REMARK  status: ('A' for Active; 'I' for Inactive)
REMARK    1  A    between atoms: O1_1  and  C1_3 
REMARK    2  A    between atoms: N2_9  and  O3_10 
REMARK    3  A    between atoms: C6_14  and  C7_15 
REMARK    4  A    between atoms: C7_15  and  N3_16 
REMARK    5  A    between atoms: N3_16  and  C8_18 
ROOT
HETATM    1  C1  UNL     1      32.121  23.191  86.364  1.00  0.00     0.075 A 
HETATM    2  C2  UNL     1      32.954  22.643  85.398  1.00  0.00     0.071 A 
HETATM    3  C3  UNL     1      34.220  23.167  85.228  1.00  0.00     0.090 A 
HETATM    4  N1  UNL     1      35.266  22.881  84.400  1.00  0.00    -0.237 N 
ATOM      5  H1  UNL     1      35.286  22.150  83.689  1.00  0.00     0.197 HD
HETATM    6  O2  UNL     1      36.225  23.699  84.674  1.00  0.00    -0.128 OA
HETATM    7  N2  UNL     1      35.925  24.516  85.616  1.00  0.00    -0.100 N 
HETATM    8  C4  UNL     1      34.667  24.222  86.001  1.00  0.00     0.119 A 
HETATM    9  C5  UNL     1      33.805  24.740  86.954  1.00  0.00     0.048 A 
HETATM   10  C6  UNL     1      32.537  24.242  87.150  1.00  0.00    -0.004 A 
ENDROOT
BRANCH  10  11
HETATM   11  C7  UNL     1      31.592  24.778  88.165  1.00  0.00     0.179 C 
BRANCH  11  12
HETATM   12  N3  UNL     1      30.452  25.410  87.557  1.00  0.00    -0.219 N 
ATOM     13  H3  UNL     1      30.072  25.053  86.680  1.00  0.00     0.178 HD
BRANCH  12  14
HETATM   14  C8  UNL     1      29.908  26.449  88.139  1.00  0.00     0.709 A 
HETATM   15  N4  UNL     1      28.833  27.140  87.722  1.00  0.00    -0.115 N 
HETATM   16  N5  UNL     1      28.636  28.102  88.608  1.00  0.00    -0.213 N 
ATOM     17  H4  UNL     1      28.278  26.957  86.886  1.00  0.00     0.207 HD
HETATM   18  N6  UNL     1      29.534  28.052  89.562  1.00  0.00    -0.213 N 
ATOM     19  H5  UNL     1      27.886  28.791  88.556  1.00  0.00     0.210 HD
HETATM   20  N7  UNL     1      30.322  27.032  89.277  1.00  0.00    -0.115 N 
ATOM     21  H6  UNL     1      29.608  28.677  90.365  1.00  0.00     0.210 HD
ATOM     22  H7  UNL     1      31.122  26.733  89.835  1.00  0.00     0.207 HD
ENDBRANCH  12  14
ENDBRANCH  11  12
ENDBRANCH  10  11
BRANCH   1  23
HETATM   23  O1  UNL     1      30.858  22.617  86.484  1.00  0.00    -0.360 OA
ATOM     24  H1  UNL     1      30.297  22.977  87.162  1.00  0.00     0.217 HD
ENDBRANCH   1  23
BRANCH   7  25
HETATM   25  O3  UNL     1      36.652  25.529  86.201  1.00  0.00    -0.261 OA
ATOM     26  H3  UNL     1      36.994  26.339  85.841  1.00  0.00     0.247 HD
ENDBRANCH   7  25
TORSDOF 5
ENDMDL
MODEL 2
REMARK VINA RESULT: -8.775452118      3.395      6.948
REMARK  5 active torsions:
REMARK  status: ('A' for Active; 'I' for Inactive)
REMARK    1  A    between atoms: O1_1  and  C1_3 
REMARK    2  A    between atoms: N2_9  and  O3_10 
REMARK    3  A    between atoms: C6_14  and  C7_15 
REMARK    4  A    between atoms: C7_15  and  N3_16 
REMARK    5  A    between atoms: N3_16  and  C8_18 
ROOT
HETATM    1  C1  UNL     1      34.319  23.011  84.944  1.00  0.00     0.075 A 
HETATM    2  C2  UNL     1      34.356  24.017  85.900  1.00  0.00     0.071 A 
HETATM    3  C3  UNL     1      33.199  24.338  86.581  1.00  0.00     0.090 A 
HETATM    4  N1  UNL     1      32.886  25.244  87.552  1.00  0.00    -0.237 N 
ATOM      5  H1  UNL     1      33.529  25.908  87.983  1.00  0.00     0.197 HD
HETATM    6  O2  UNL     1      31.633  25.112  87.830  1.00  0.00    -0.128 OA
HETATM    7  N2  UNL     1      31.065  24.197  87.133  1.00  0.00    -0.100 N 
HETATM    8  C4  UNL     1      32.013  23.676  86.328  1.00  0.00     0.119 A 
HETATM    9  C5  UNL     1      32.018  22.678  85.367  1.00  0.00     0.048 A 
HETATM   10  C6  UNL     1      33.153  22.332  84.669  1.00  0.00    -0.004 A 
ENDROOT
BRANCH  10  11
HETATM   11  C7  UNL     1      33.188  21.266  83.634  1.00  0.00     0.179 C 
BRANCH  11  12
HETATM   12  N3  UNL     1      32.930  21.785  82.318  1.00  0.00    -0.219 N 
ATOM     13  H3  UNL     1      33.328  22.679  82.031  1.00  0.00     0.178 HD
BRANCH  12  14
HETATM   14  C8  UNL     1      32.179  21.100  81.494  1.00  0.00     0.709 A 
HETATM   15  N4  UNL     1      31.112  20.345  81.806  1.00  0.00    -0.115 N 
HETATM   16  N5  UNL     1      30.661  19.839  80.670  1.00  0.00    -0.213 N 
ATOM     17  H4  UNL     1      30.726  20.192  82.738  1.00  0.00     0.207 HD
HETATM   18  N6  UNL     1      31.391  20.238  79.657  1.00  0.00    -0.213 N 
ATOM     19  H5  UNL     1      29.853  19.222  80.593  1.00  0.00     0.210 HD
HETATM   20  N7  UNL     1      32.330  21.017  80.160  1.00  0.00    -0.115 N 
ATOM     21  H6  UNL     1      31.259  19.994  78.676  1.00  0.00     0.210 HD
ATOM     22  H7  UNL     1      33.059  21.484  79.620  1.00  0.00     0.207 HD
ENDBRANCH  12  14
ENDBRANCH  11  12
ENDBRANCH  10  11
BRANCH   1  23
HETATM   23  O1  UNL     1      35.519  22.735  84.294  1.00  0.00    -0.360 OA
ATOM     24  H1  UNL     1      35.452  22.270  83.468  1.00  0.00     0.217 HD
ENDBRANCH   1  23
BRANCH   7  25
HETATM   25  O3  UNL     1      29.764  23.746  87.121  1.00  0.00    -0.261 OA
ATOM     26  H3  UNL     1      29.317  23.149  86.532  1.00  0.00     0.247 HD
ENDBRANCH   7  25
TORSDOF 5
ENDMDL
MODEL 3
REMARK VINA RESULT: -8.756285857      1.650      2.402
REMARK  5 active torsions:
REMARK  status: ('A' for Active; 'I' for Inactive)
REMARK    1  A    between atoms: O1_1  and  C1_3 
REMARK    2  A    between atoms: N2_9  and  O3_10 
REMARK    3  A    between atoms: C6_14  and  C7_15 
REMARK    4  A    between atoms: C7_15  and  N3_16 
REMARK    5  A    between atoms: N3_16  and  C8_18 
ROOT
HETATM    1  C1  UNL     1      32.556  24.563  87.476  1.00  0.00     0.075 A 
HETATM    2  C2  UNL     1      33.860  24.702  87.023  1.00  0.00     0.071 A 
HETATM    3  C3  UNL     1      34.307  23.884  86.004  1.00  0.00     0.090 A 
HETATM    4  N1  UNL     1      35.490  23.754  85.337  1.00  0.00    -0.237 N 
ATOM      5  H1  UNL     1      36.334  24.301  85.500  1.00  0.00     0.197 HD
HETATM    6  O2  UNL     1      35.352  22.814  84.463  1.00  0.00    -0.128 OA
HETATM    7  N2  UNL     1      34.179  22.294  84.476  1.00  0.00    -0.100 N 
HETATM    8  C4  UNL     1      33.479  22.936  85.433  1.00  0.00     0.119 A 
HETATM    9  C5  UNL     1      32.184  22.829  85.915  1.00  0.00     0.048 A 
HETATM   10  C6  UNL     1      31.706  23.628  86.929  1.00  0.00    -0.004 A 
ENDROOT
BRANCH  10  11
HETATM   11  C7  UNL     1      30.323  23.536  87.464  1.00  0.00     0.179 C 
BRANCH  11  12
HETATM   12  N3  UNL     1      29.490  24.607  86.988  1.00  0.00    -0.219 N 
ATOM     13  H3  UNL     1      29.209  24.644  86.008  1.00  0.00     0.178 HD
BRANCH  12  14
HETATM   14  C8  UNL     1      29.097  25.535  87.824  1.00  0.00     0.709 A 
HETATM   15  N4  UNL     1      28.392  25.360  88.955  1.00  0.00    -0.115 N 
HETATM   16  N5  UNL     1      28.218  26.561  89.482  1.00  0.00    -0.213 N 
ATOM     17  H4  UNL     1      28.057  24.473  89.333  1.00  0.00     0.207 HD
HETATM   18  N6  UNL     1      28.777  27.484  88.738  1.00  0.00    -0.213 N 
ATOM     19  H5  UNL     1      27.716  26.743  90.350  1.00  0.00     0.210 HD
HETATM   20  N7  UNL     1      29.322  26.855  87.712  1.00  0.00    -0.115 N 
ATOM     21  H6  UNL     1      28.789  28.488  88.917  1.00  0.00     0.210 HD
ATOM     22  H7  UNL     1      29.834  27.303  86.953  1.00  0.00     0.207 HD
ENDBRANCH  12  14
ENDBRANCH  11  12
ENDBRANCH  10  11
BRANCH   1  23
HETATM   23  O1  UNL     1      32.168  25.418  88.504  1.00  0.00    -0.360 OA
ATOM     24  H1  UNL     1      31.257  25.368  88.771  1.00  0.00     0.217 HD
ENDBRANCH   1  23
BRANCH   7  25
HETATM   25  O3  UNL     1      33.629  21.285  83.718  1.00  0.00    -0.261 OA
ATOM     26  H3  UNL     1      32.735  21.136  83.433  1.00  0.00     0.247 HD
ENDBRANCH   7  25
TORSDOF 5
ENDMDL
MODEL 4
REMARK VINA RESULT: -8.444673534      1.195      1.555
REMARK  5 active torsions:
REMARK  status: ('A' for Active; 'I' for Inactive)
REMARK    1  A    between atoms: O1_1  and  C1_3 
REMARK    2  A    between atoms: N2_9  and  O3_10 
REMARK    3  A    between atoms: C6_14  and  C7_15 
REMARK    4  A    between atoms: C7_15  and  N3_16 
REMARK    5  A    between atoms: N3_16  and  C8_18 
ROOT
HETATM    1  C1  UNL     1      32.227  23.303  86.437  1.00  0.00     0.075 A 
HETATM    2  C2  UNL     1      33.025  22.686  85.483  1.00  0.00     0.071 A 
HETATM    3  C3  UNL     1      34.286  23.190  85.235  1.00  0.00     0.090 A 
HETATM    4  N1  UNL     1      35.302  22.844  84.394  1.00  0.00    -0.237 N 
ATOM      5  H1  UNL     1      35.296  22.065  83.735  1.00  0.00     0.197 HD
HETATM    6  O2  UNL     1      36.273  23.674  84.579  1.00  0.00    -0.128 OA
HETATM    7  N2  UNL     1      36.006  24.555  85.472  1.00  0.00    -0.100 N 
HETATM    8  C4  UNL     1      34.761  24.293  85.919  1.00  0.00     0.119 A 
HETATM    9  C5  UNL     1      33.933  24.880  86.863  1.00  0.00     0.048 A 
HETATM   10  C6  UNL     1      32.672  24.403  87.135  1.00  0.00    -0.004 A 
ENDROOT
BRANCH  10  11
HETATM   11  C7  UNL     1      31.763  25.011  88.142  1.00  0.00     0.179 C 
BRANCH  11  12
HETATM   12  N3  UNL     1      30.583  25.566  87.535  1.00  0.00    -0.219 N 
ATOM     13  H3  UNL     1      30.656  26.122  86.683  1.00  0.00     0.178 HD
BRANCH  12  14
HETATM   14  C8  UNL     1      29.416  25.352  88.087  1.00  0.00     0.709 A 
HETATM   15  N4  UNL     1      28.821  26.093  89.037  1.00  0.00    -0.115 N 
HETATM   16  N5  UNL     1      27.661  25.513  89.298  1.00  0.00    -0.213 N 
ATOM     17  H4  UNL     1      29.191  26.939  89.471  1.00  0.00     0.207 HD
HETATM   18  N6  UNL     1      27.496  24.442  88.560  1.00  0.00    -0.213 N 
ATOM     19  H5  UNL     1      26.985  25.854  89.981  1.00  0.00     0.210 HD
HETATM   20  N7  UNL     1      28.578  24.337  87.810  1.00  0.00    -0.115 N 
ATOM     21  H6  UNL     1      26.692  23.815  88.565  1.00  0.00     0.210 HD
ATOM     22  H7  UNL     1      28.751  23.601  87.126  1.00  0.00     0.207 HD
ENDBRANCH  12  14
ENDBRANCH  11  12
ENDBRANCH  10  11
BRANCH   1  23
HETATM   23  O1  UNL     1      30.967  22.745  86.639  1.00  0.00    -0.360 OA
ATOM     24  H1  UNL     1      30.347  22.838  85.925  1.00  0.00     0.217 HD
ENDBRANCH   1  23
BRANCH   7  25
HETATM   25  O3  UNL     1      36.756  25.602  85.961  1.00  0.00    -0.261 OA
ATOM     26  H3  UNL     1      36.893  25.908  86.850  1.00  0.00     0.247 HD
ENDBRANCH   7  25
TORSDOF 5
ENDMDL
MODEL 5
REMARK VINA RESULT: -8.421353432      1.768      2.288
REMARK  5 active torsions:
REMARK  status: ('A' for Active; 'I' for Inactive)
REMARK    1  A    between atoms: O1_1  and  C1_3 
REMARK    2  A    between atoms: N2_9  and  O3_10 
REMARK    3  A    between atoms: C6_14  and  C7_15 
REMARK    4  A    between atoms: C7_15  and  N3_16 
REMARK    5  A    between atoms: N3_16  and  C8_18 
ROOT
HETATM    1  C1  UNL     1      32.088  23.241  86.157  1.00  0.00     0.075 A 
HETATM    2  C2  UNL     1      32.995  22.621  85.309  1.00  0.00     0.071 A 
HETATM    3  C3  UNL     1      34.261  23.154  85.175  1.00  0.00     0.090 A 
HETATM    4  N1  UNL     1      35.366  22.812  84.453  1.00  0.00    -0.237 N 
ATOM      5  H1  UNL     1      35.448  22.016  83.821  1.00  0.00     0.197 HD
HETATM    6  O2  UNL     1      36.292  23.675  84.710  1.00  0.00    -0.128 OA
HETATM    7  N2  UNL     1      35.913  24.573  85.543  1.00  0.00    -0.100 N 
HETATM    8  C4  UNL     1      34.636  24.288  85.869  1.00  0.00     0.119 A 
HETATM    9  C5  UNL     1      33.701  24.878  86.706  1.00  0.00     0.048 A 
HETATM   10  C6  UNL     1      32.431  24.373  86.863  1.00  0.00    -0.004 A 
ENDROOT
BRANCH  10  11
HETATM   11  C7  UNL     1      31.409  24.983  87.753  1.00  0.00     0.179 C 
BRANCH  11  12
HETATM   12  N3  UNL     1      30.978  24.073  88.779  1.00  0.00    -0.219 N 
ATOM     13  H3  UNL     1      31.661  23.632  89.395  1.00  0.00     0.178 HD
BRANCH  12  14
HETATM   14  C8  UNL     1      29.702  23.817  88.915  1.00  0.00     0.709 A 
HETATM   15  N4  UNL     1      29.136  22.953  89.776  1.00  0.00    -0.115 N 
HETATM   16  N5  UNL     1      27.831  23.014  89.570  1.00  0.00    -0.213 N 
ATOM     17  H4  UNL     1      29.620  22.366  90.456  1.00  0.00     0.207 HD
HETATM   18  N6  UNL     1      27.546  23.872  88.622  1.00  0.00    -0.213 N 
ATOM     19  H5  UNL     1      27.139  22.466  90.081  1.00  0.00     0.210 HD
HETATM   20  N7  UNL     1      28.698  24.372  88.213  1.00  0.00    -0.115 N 
ATOM     21  H6  UNL     1      26.618  24.108  88.269  1.00  0.00     0.210 HD
ATOM     22  H7  UNL     1      28.809  25.071  87.479  1.00  0.00     0.207 HD
ENDBRANCH  12  14
ENDBRANCH  11  12
ENDBRANCH  10  11
BRANCH   1  23
HETATM   23  O1  UNL     1      30.829  22.654  86.248  1.00  0.00    -0.360 OA
ATOM     24  H1  UNL     1      30.232  23.035  86.881  1.00  0.00     0.217 HD
ENDBRANCH   1  23
BRANCH   7  25
HETATM   25  O3  UNL     1      36.582  25.654  86.074  1.00  0.00    -0.261 OA
ATOM     26  H3  UNL     1      36.470  26.113  86.898  1.00  0.00     0.247 HD
ENDBRANCH   7  25
TORSDOF 5
ENDMDL
