MODEL 1
REMARK VINA RESULT: -7.179903146      0.000      0.000
REMARK  4 active torsions:
REMARK  status: ('A' for Active; 'I' for Inactive)
REMARK    1  A    between atoms: C3_3  and  C4_4 
REMARK    2  A    between atoms: C4_4  and  C5_5 
REMARK       I    between atoms: C5_5  and  N1_7 
REMARK    3  A    between atoms: N1_7  and  N2_9 
REMARK    4  A    between atoms: N2_9  and  C6_11 
ROOT
HETATM    1  C1  UNL     1      35.786  23.175  84.781  1.00  0.00     0.112 C 
HETATM    2  C2  UNL     1      34.343  23.114  85.103  1.00  0.00    -0.111 C 
HETATM    3  C3  UNL     1      33.165  23.071  85.344  1.00  0.00    -0.098 C 
ENDROOT
BRANCH   3   4
HETATM    4  C4  UNL     1      31.715  23.033  85.620  1.00  0.00     0.198 C 
BRANCH   4   5
HETATM    5  C5  UNL     1      31.463  23.077  87.077  1.00  0.00     0.247 C 
HETATM    6  O1  UNL     1      32.494  23.000  87.837  1.00  0.00    -0.271 OA
HETATM    7  N1  UNL     1      30.189  23.197  87.654  1.00  0.00    -0.267 N 
ATOM      8  H1  UNL     1      29.366  23.262  87.055  1.00  0.00     0.190 HD
BRANCH   7   9
HETATM    9  N2  UNL     1      30.040  23.228  89.037  1.00  0.00    -0.272 N 
ATOM     10  H2  UNL     1      30.064  22.340  89.538  1.00  0.00     0.189 HD
BRANCH   9  11
HETATM   11  C6  UNL     1      29.862  24.395  89.786  1.00  0.00     0.241 A 
HETATM   12  N3  UNL     1      29.136  24.570  90.800  1.00  0.00    -0.304 N 
HETATM   13  C7  UNL     1      29.120  25.824  91.378  1.00  0.00     0.204 A 
ATOM     14  H3  UNL     1      28.576  23.808  91.183  1.00  0.00     0.171 HD
HETATM   15  N4  UNL     1      28.320  26.131  92.542  1.00  0.00    -0.062 NA
HETATM   16  N5  UNL     1      29.850  26.734  90.843  1.00  0.00    -0.251 N 
HETATM   17  S1  UNL     1      30.616  25.932  89.500  1.00  0.00     0.298 S 
ATOM     18  H5  UNL     1      29.959  27.705  91.138  1.00  0.00     0.181 HD
HETATM   19  O2  UNL     1      32.101  25.907  89.646  1.00  0.00    -0.197 OA
HETATM   20  O3  UNL     1      30.185  26.547  88.202  1.00  0.00    -0.197 OA
ENDBRANCH   9  11
ENDBRANCH   7   9
ENDBRANCH   4   5
ENDBRANCH   3   4
TORSDOF 4
ENDMDL
MODEL 2
REMARK VINA RESULT: -7.090806601      1.910      2.145
REMARK  4 active torsions:
REMARK  status: ('A' for Active; 'I' for Inactive)
REMARK    1  A    between atoms: C3_3  and  C4_4 
REMARK    2  A    between atoms: C4_4  and  C5_5 
REMARK       I    between atoms: C5_5  and  N1_7 
REMARK    3  A    between atoms: N1_7  and  N2_9 
REMARK    4  A    between atoms: N2_9  and  C6_11 
ROOT
HETATM    1  C1  UNL     1      35.900  25.029  86.159  1.00  0.00     0.112 C 
HETATM    2  C2  UNL     1      34.640  24.311  85.865  1.00  0.00    -0.111 C 
HETATM    3  C3  UNL     1      33.606  23.745  85.625  1.00  0.00    -0.098 C 
ENDROOT
BRANCH   3   4
HETATM    4  C4  UNL     1      32.323  23.073  85.338  1.00  0.00     0.198 C 
BRANCH   4   5
HETATM    5  C5  UNL     1      31.294  23.479  86.322  1.00  0.00     0.247 C 
HETATM    6  O1  UNL     1      31.238  22.795  87.405  1.00  0.00    -0.271 OA
HETATM    7  N1  UNL     1      30.403  24.548  86.135  1.00  0.00    -0.267 N 
ATOM      8  H1  UNL     1      30.445  25.098  85.278  1.00  0.00     0.190 HD
BRANCH   7   9
HETATM    9  N2  UNL     1      29.463  24.861  87.111  1.00  0.00    -0.272 N 
ATOM     10  H2  UNL     1      28.569  24.371  87.085  1.00  0.00     0.189 HD
BRANCH   9  11
HETATM   11  C6  UNL     1      29.662  25.803  88.125  1.00  0.00     0.241 A 
HETATM   12  N3  UNL     1      29.068  26.899  88.302  1.00  0.00    -0.304 N 
HETATM   13  C7  UNL     1      29.439  27.670  89.386  1.00  0.00     0.204 A 
ATOM     14  H3  UNL     1      28.334  27.208  87.664  1.00  0.00     0.171 HD
HETATM   15  N4  UNL     1      28.821  28.945  89.678  1.00  0.00    -0.062 NA
HETATM   16  N5  UNL     1      30.368  27.218  90.147  1.00  0.00    -0.251 N 
HETATM   17  S1  UNL     1      30.805  25.694  89.427  1.00  0.00     0.298 S 
ATOM     18  H5  UNL     1      30.760  27.652  90.983  1.00  0.00     0.181 HD
HETATM   19  O2  UNL     1      30.549  24.553  90.355  1.00  0.00    -0.197 OA
HETATM   20  O3  UNL     1      32.224  25.724  88.945  1.00  0.00    -0.197 OA
ENDBRANCH   9  11
ENDBRANCH   7   9
ENDBRANCH   4   5
ENDBRANCH   3   4
TORSDOF 4
ENDMDL
MODEL 3
REMARK VINA RESULT: -7.083463389      2.557      3.311
REMARK  4 active torsions:
REMARK  status: ('A' for Active; 'I' for Inactive)
REMARK    1  A    between atoms: C3_3  and  C4_4 
REMARK    2  A    between atoms: C4_4  and  C5_5 
REMARK       I    between atoms: C5_5  and  N1_7 
REMARK    3  A    between atoms: N1_7  and  N2_9 
REMARK    4  A    between atoms: N2_9  and  C6_11 
ROOT
HETATM    1  C1  UNL     1      36.299  25.204  86.969  1.00  0.00     0.112 C 
HETATM    2  C2  UNL     1      35.497  24.302  86.113  1.00  0.00    -0.111 C 
HETATM    3  C3  UNL     1      34.860  23.554  85.418  1.00  0.00    -0.098 C 
ENDROOT
BRANCH   3   4
HETATM    4  C4  UNL     1      34.101  22.623  84.560  1.00  0.00     0.198 C 
BRANCH   4   5
HETATM    5  C5  UNL     1      32.696  22.528  85.013  1.00  0.00     0.247 C 
HETATM    6  O1  UNL     1      31.847  22.092  84.156  1.00  0.00    -0.271 OA
HETATM    7  N1  UNL     1      32.257  22.880  86.300  1.00  0.00    -0.267 N 
ATOM      8  H1  UNL     1      32.928  23.224  86.987  1.00  0.00     0.190 HD
BRANCH   7   9
HETATM    9  N2  UNL     1      30.915  22.763  86.644  1.00  0.00    -0.272 N 
ATOM     10  H2  UNL     1      30.426  21.910  86.372  1.00  0.00     0.189 HD
BRANCH   9  11
HETATM   11  C6  UNL     1      30.190  23.736  87.339  1.00  0.00     0.241 A 
HETATM   12  N3  UNL     1      30.114  24.971  87.105  1.00  0.00    -0.304 N 
HETATM   13  C7  UNL     1      29.327  25.742  87.937  1.00  0.00     0.204 A 
ATOM     14  H3  UNL     1      30.618  25.389  86.323  1.00  0.00     0.171 HD
HETATM   15  N4  UNL     1      29.173  27.168  87.756  1.00  0.00    -0.062 NA
HETATM   16  N5  UNL     1      28.720  25.148  88.900  1.00  0.00    -0.251 N 
HETATM   17  S1  UNL     1      29.189  23.479  88.734  1.00  0.00     0.298 S 
ATOM     18  H5  UNL     1      28.104  25.560  89.601  1.00  0.00     0.181 HD
HETATM   19  O2  UNL     1      28.011  22.600  88.472  1.00  0.00    -0.197 OA
HETATM   20  O3  UNL     1      29.977  23.029  89.928  1.00  0.00    -0.197 OA
ENDBRANCH   9  11
ENDBRANCH   7   9
ENDBRANCH   4   5
ENDBRANCH   3   4
TORSDOF 4
ENDMDL
MODEL 4
REMARK VINA RESULT: -7.055647693      1.911      2.819
REMARK  4 active torsions:
REMARK  status: ('A' for Active; 'I' for Inactive)
REMARK    1  A    between atoms: C3_3  and  C4_4 
REMARK    2  A    between atoms: C4_4  and  C5_5 
REMARK       I    between atoms: C5_5  and  N1_7 
REMARK    3  A    between atoms: N1_7  and  N2_9 
REMARK    4  A    between atoms: N2_9  and  C6_11 
ROOT
HETATM    1  C1  UNL     1      32.151  21.127  81.647  1.00  0.00     0.112 C 
HETATM    2  C2  UNL     1      32.768  21.557  82.921  1.00  0.00    -0.111 C 
HETATM    3  C3  UNL     1      33.276  21.925  83.947  1.00  0.00    -0.098 C 
ENDROOT
BRANCH   3   4
HETATM    4  C4  UNL     1      33.912  22.396  85.194  1.00  0.00     0.198 C 
BRANCH   4   5
HETATM    5  C5  UNL     1      33.057  23.401  85.864  1.00  0.00     0.247 C 
HETATM    6  O1  UNL     1      33.647  24.206  86.670  1.00  0.00    -0.271 OA
HETATM    7  N1  UNL     1      31.672  23.517  85.665  1.00  0.00    -0.267 N 
ATOM      8  H1  UNL     1      31.198  22.883  85.023  1.00  0.00     0.190 HD
BRANCH   7   9
HETATM    9  N2  UNL     1      30.942  24.490  86.338  1.00  0.00    -0.272 N 
ATOM     10  H2  UNL     1      30.870  25.413  85.910  1.00  0.00     0.189 HD
BRANCH   9  11
HETATM   11  C6  UNL     1      30.298  24.288  87.563  1.00  0.00     0.241 A 
HETATM   12  N3  UNL     1      29.550  23.336  87.906  1.00  0.00    -0.304 N 
HETATM   13  C7  UNL     1      29.023  23.351  89.183  1.00  0.00     0.204 A 
ATOM     14  H3  UNL     1      29.339  22.575  87.261  1.00  0.00     0.171 HD
HETATM   15  N4  UNL     1      28.152  22.307  89.674  1.00  0.00    -0.062 NA
HETATM   16  N5  UNL     1      29.332  24.339  89.941  1.00  0.00    -0.251 N 
HETATM   17  S1  UNL     1      30.373  25.326  88.953  1.00  0.00     0.298 S 
ATOM     18  H5  UNL     1      29.036  24.508  90.903  1.00  0.00     0.181 HD
HETATM   19  O2  UNL     1      31.740  25.443  89.540  1.00  0.00    -0.197 OA
HETATM   20  O3  UNL     1      29.749  26.666  88.700  1.00  0.00    -0.197 OA
ENDBRANCH   9  11
ENDBRANCH   7   9
ENDBRANCH   4   5
ENDBRANCH   3   4
TORSDOF 4
ENDMDL
MODEL 5
REMARK VINA RESULT: -7.041059909      2.276      2.881
REMARK  4 active torsions:
REMARK  status: ('A' for Active; 'I' for Inactive)
REMARK    1  A    between atoms: C3_3  and  C4_4 
REMARK    2  A    between atoms: C4_4  and  C5_5 
REMARK       I    between atoms: C5_5  and  N1_7 
REMARK    3  A    between atoms: N1_7  and  N2_9 
REMARK    4  A    between atoms: N2_9  and  C6_11 
ROOT
HETATM    1  C1  UNL     1      32.101  21.239  81.719  1.00  0.00     0.112 C 
HETATM    2  C2  UNL     1      32.733  21.655  82.991  1.00  0.00    -0.111 C 
HETATM    3  C3  UNL     1      33.266  21.986  84.017  1.00  0.00    -0.098 C 
ENDROOT
BRANCH   3   4
HETATM    4  C4  UNL     1      33.940  22.377  85.271  1.00  0.00     0.198 C 
BRANCH   4   5
HETATM    5  C5  UNL     1      33.391  23.653  85.779  1.00  0.00     0.247 C 
HETATM    6  O1  UNL     1      34.218  24.627  85.892  1.00  0.00    -0.271 OA
HETATM    7  N1  UNL     1      32.045  23.849  86.131  1.00  0.00    -0.267 N 
ATOM      8  H1  UNL     1      31.382  23.080  86.040  1.00  0.00     0.190 HD
BRANCH   7   9
HETATM    9  N2  UNL     1      31.612  25.083  86.603  1.00  0.00    -0.272 N 
ATOM     10  H2  UNL     1      31.797  25.904  86.028  1.00  0.00     0.189 HD
BRANCH   9  11
HETATM   11  C6  UNL     1      30.939  25.273  87.814  1.00  0.00     0.241 A 
HETATM   12  N3  UNL     1      31.357  25.063  88.983  1.00  0.00    -0.304 N 
HETATM   13  C7  UNL     1      30.502  25.327  90.035  1.00  0.00     0.204 A 
ATOM     14  H3  UNL     1      32.299  24.708  89.148  1.00  0.00     0.171 HD
HETATM   15  N4  UNL     1      30.884  25.118  91.414  1.00  0.00    -0.062 NA
HETATM   16  N5  UNL     1      29.333  25.773  89.753  1.00  0.00    -0.251 N 
HETATM   17  S1  UNL     1      29.318  25.861  88.014  1.00  0.00     0.298 S 
ATOM     18  H5  UNL     1      28.583  26.019  90.400  1.00  0.00     0.181 HD
HETATM   19  O2  UNL     1      29.126  27.262  87.535  1.00  0.00    -0.197 OA
HETATM   20  O3  UNL     1      28.295  24.924  87.445  1.00  0.00    -0.197 OA
ENDBRANCH   9  11
ENDBRANCH   7   9
ENDBRANCH   4   5
ENDBRANCH   3   4
TORSDOF 4
ENDMDL
