MODEL 1
REMARK VINA RESULT: -8.388350427      0.000      0.000
REMARK  4 active torsions:
REMARK  status: ('A' for Active; 'I' for Inactive)
REMARK    1  A    between atoms: C7_10  and  N2_11 
REMARK    2  A    between atoms: N2_11  and  O2_12 
REMARK    3  A    between atoms: N2_11  and  N3_14 
REMARK    4  A    between atoms: N3_14  and  N4_16 
ROOT
HETATM    1  C1  UNL     1      31.506  24.997  88.237  1.00  0.00     0.017 C 
HETATM    2  C2  UNL     1      31.172  23.796  87.408  1.00  0.00    -0.021 C 
HETATM    3  C3  UNL     1      29.900  23.176  87.932  1.00  0.00     0.017 C 
HETATM    4  C4  UNL     1      32.285  22.770  87.532  1.00  0.00     0.177 C 
HETATM    5  O1  UNL     1      33.480  23.379  87.151  1.00  0.00    -0.378 OA
HETATM    6  C5  UNL     1      33.501  23.626  85.768  1.00  0.00     0.185 A 
HETATM    7  C6  UNL     1      34.596  22.907  85.080  1.00  0.00     0.176 A 
HETATM    8  N1  UNL     1      34.165  22.112  83.997  1.00  0.00    -0.220 N 
ATOM      9  H1  UNL     1      34.895  21.602  83.500  1.00  0.00     0.177 HD
HETATM   10  C7  UNL     1      32.995  21.955  83.568  1.00  0.00     0.721 A 
HETATM   11  N6  UNL     1      31.920  22.644  84.222  1.00  0.00    -0.193 N 
ATOM     12  H6  UNL     1      30.966  22.523  83.882  1.00  0.00     0.184 HD
HETATM   13  C8  UNL     1      32.141  23.410  85.229  1.00  0.00     0.035 A 
HETATM   14  C9  UNL     1      31.034  24.139  85.926  1.00  0.00     0.066 C 
ENDROOT
BRANCH  10  15
HETATM   15  N2  UNL     1      32.671  21.114  82.449  1.00  0.00     0.032 N 
BRANCH  15  16
HETATM   16  O2  UNL     1      33.326  19.943  82.361  1.00  0.00    -0.253 OA
ATOM     17  H2  UNL     1      33.106  19.384  81.625  1.00  0.00     0.247 HD
ENDBRANCH  15  16
BRANCH  15  18
HETATM   18  N3  UNL     1      31.733  21.486  81.510  1.00  0.00    -0.187 N 
ATOM     19  H3  UNL     1      31.020  22.160  81.791  1.00  0.00     0.213 HD
BRANCH  18  20
HETATM   20  N4  UNL     1      31.694  21.007  80.213  1.00  0.00    -0.232 N 
HETATM   21  N5  UNL     1      31.016  19.988  79.941  1.00  0.00    -0.330 N 
ATOM     22  H52 UNL     1      30.500  19.524  80.687  1.00  0.00     0.178 HD
ATOM     23  H51 UNL     1      30.987  19.635  78.984  1.00  0.00     0.178 HD
ATOM     24  H4  UNL     1      32.217  21.483  79.478  1.00  0.00     0.209 HD
ENDBRANCH  18  20
ENDBRANCH  15  18
ENDBRANCH  10  15
TORSDOF 4
ENDMDL
MODEL 2
REMARK VINA RESULT: -7.852762372      1.939      2.542
REMARK  4 active torsions:
REMARK  status: ('A' for Active; 'I' for Inactive)
REMARK    1  A    between atoms: C7_10  and  N2_11 
REMARK    2  A    between atoms: N2_11  and  O2_12 
REMARK    3  A    between atoms: N2_11  and  N3_14 
REMARK    4  A    between atoms: N3_14  and  N4_16 
ROOT
HETATM    1  C1  UNL     1      29.211  25.493  88.439  1.00  0.00     0.017 C 
HETATM    2  C2  UNL     1      29.809  24.256  87.842  1.00  0.00    -0.021 C 
HETATM    3  C3  UNL     1      28.821  23.123  87.968  1.00  0.00     0.017 C 
HETATM    4  C4  UNL     1      31.063  23.879  88.611  1.00  0.00     0.177 C 
HETATM    5  O1  UNL     1      31.931  24.969  88.586  1.00  0.00    -0.378 OA
HETATM    6  C5  UNL     1      32.459  25.165  87.298  1.00  0.00     0.185 A 
HETATM    7  C6  UNL     1      33.932  25.030  87.262  1.00  0.00     0.176 A 
HETATM    8  N1  UNL     1      34.398  24.100  86.309  1.00  0.00    -0.220 N 
ATOM      9  H1  UNL     1      35.409  23.982  86.258  1.00  0.00     0.177 HD
HETATM   10  C7  UNL     1      33.721  23.400  85.515  1.00  0.00     0.721 A 
HETATM   11  N6  UNL     1      32.292  23.516  85.535  1.00  0.00    -0.193 N 
ATOM     12  H6  UNL     1      31.733  22.953  84.894  1.00  0.00     0.184 HD
HETATM   13  C8  UNL     1      31.705  24.320  86.346  1.00  0.00     0.035 A 
HETATM   14  C9  UNL     1      30.214  24.458  86.383  1.00  0.00     0.066 C 
ENDROOT
BRANCH  10  15
HETATM   15  N2  UNL     1      34.307  22.479  84.580  1.00  0.00     0.032 N 
BRANCH  15  16
HETATM   16  O2  UNL     1      35.598  22.677  84.263  1.00  0.00    -0.253 OA
ATOM     17  H2  UNL     1      35.785  23.371  83.641  1.00  0.00     0.247 HD
ENDBRANCH  15  16
BRANCH  15  18
HETATM   18  N3  UNL     1      33.583  21.441  84.035  1.00  0.00    -0.187 N 
ATOM     19  H3  UNL     1      33.425  20.616  84.612  1.00  0.00     0.213 HD
BRANCH  18  20
HETATM   20  N4  UNL     1      33.055  21.445  82.756  1.00  0.00    -0.232 N 
HETATM   21  N5  UNL     1      33.193  20.441  82.018  1.00  0.00    -0.330 N 
ATOM     22  H52 UNL     1      33.696  19.629  82.375  1.00  0.00     0.178 HD
ATOM     23  H51 UNL     1      32.803  20.443  81.074  1.00  0.00     0.178 HD
ATOM     24  H4  UNL     1      32.555  22.265  82.413  1.00  0.00     0.209 HD
ENDBRANCH  18  20
ENDBRANCH  15  18
ENDBRANCH  10  15
TORSDOF 4
ENDMDL
MODEL 3
REMARK VINA RESULT: -7.387991888      5.436      7.634
REMARK  4 active torsions:
REMARK  status: ('A' for Active; 'I' for Inactive)
REMARK    1  A    between atoms: C7_10  and  N2_11 
REMARK    2  A    between atoms: N2_11  and  O2_12 
REMARK    3  A    between atoms: N2_11  and  N3_14 
REMARK    4  A    between atoms: N3_14  and  N4_16 
ROOT
HETATM    1  C1  UNL     1      31.706  22.784  85.631  1.00  0.00     0.017 C 
HETATM    2  C2  UNL     1      31.917  23.891  86.617  1.00  0.00    -0.021 C 
HETATM    3  C3  UNL     1      33.397  24.158  86.744  1.00  0.00     0.017 C 
HETATM    4  C4  UNL     1      31.395  23.463  87.977  1.00  0.00     0.177 C 
HETATM    5  O1  UNL     1      30.054  23.111  87.835  1.00  0.00    -0.378 OA
HETATM    6  C5  UNL     1      29.258  24.243  87.589  1.00  0.00     0.185 A 
HETATM    7  C6  UNL     1      28.243  24.463  88.644  1.00  0.00     0.176 A 
HETATM    8  N1  UNL     1      28.281  25.753  89.212  1.00  0.00    -0.220 N 
ATOM      9  H1  UNL     1      27.595  25.939  89.943  1.00  0.00     0.177 HD
HETATM   10  C7  UNL     1      29.054  26.702  88.929  1.00  0.00     0.721 A 
HETATM   11  N6  UNL     1      30.044  26.509  87.910  1.00  0.00    -0.193 N 
ATOM     12  H6  UNL     1      30.676  27.273  87.673  1.00  0.00     0.184 HD
HETATM   13  C8  UNL     1      30.145  25.388  87.292  1.00  0.00     0.035 A 
HETATM   14  C9  UNL     1      31.171  25.164  86.223  1.00  0.00     0.066 C 
ENDROOT
BRANCH  10  15
HETATM   15  N2  UNL     1      29.001  27.983  89.578  1.00  0.00     0.032 N 
BRANCH  15  16
HETATM   16  O2  UNL     1      29.930  28.224  90.520  1.00  0.00    -0.253 OA
ATOM     17  H2  UNL     1      30.373  29.065  90.479  1.00  0.00     0.247 HD
ENDBRANCH  15  16
BRANCH  15  18
HETATM   18  N3  UNL     1      28.046  28.922  89.253  1.00  0.00    -0.187 N 
ATOM     19  H3  UNL     1      27.234  29.006  89.864  1.00  0.00     0.213 HD
BRANCH  18  20
HETATM   20  N4  UNL     1      28.115  29.757  88.153  1.00  0.00    -0.232 N 
HETATM   21  N5  UNL     1      27.963  29.289  86.999  1.00  0.00    -0.330 N 
ATOM     22  H52 UNL     1      27.789  28.291  86.890  1.00  0.00     0.178 HD
ATOM     23  H51 UNL     1      28.013  29.905  86.188  1.00  0.00     0.178 HD
ATOM     24  H4  UNL     1      28.289  30.754  88.279  1.00  0.00     0.209 HD
ENDBRANCH  18  20
ENDBRANCH  15  18
ENDBRANCH  10  15
TORSDOF 4
ENDMDL
MODEL 4
REMARK VINA RESULT: -7.112619684      1.466      3.016
REMARK  4 active torsions:
REMARK  status: ('A' for Active; 'I' for Inactive)
REMARK    1  A    between atoms: C7_10  and  N2_11 
REMARK    2  A    between atoms: N2_11  and  O2_12 
REMARK    3  A    between atoms: N2_11  and  N3_14 
REMARK    4  A    between atoms: N3_14  and  N4_16 
ROOT
HETATM    1  C1  UNL     1      35.761  24.717  87.579  1.00  0.00     0.017 C 
HETATM    2  C2  UNL     1      35.503  24.593  86.109  1.00  0.00    -0.021 C 
HETATM    3  C3  UNL     1      36.446  25.509  85.367  1.00  0.00     0.017 C 
HETATM    4  C4  UNL     1      34.081  25.032  85.807  1.00  0.00     0.177 C 
HETATM    5  O1  UNL     1      33.216  24.257  86.577  1.00  0.00    -0.378 OA
HETATM    6  C5  UNL     1      33.186  22.929  86.121  1.00  0.00     0.185 A 
HETATM    7  C6  UNL     1      31.840  22.515  85.665  1.00  0.00     0.176 A 
HETATM    8  N1  UNL     1      31.816  21.994  84.354  1.00  0.00    -0.220 N 
ATOM      9  H1  UNL     1      30.904  21.700  84.008  1.00  0.00     0.177 HD
HETATM   10  C7  UNL     1      32.780  21.847  83.561  1.00  0.00     0.721 A 
HETATM   11  N6  UNL     1      34.092  22.241  83.985  1.00  0.00    -0.193 N 
ATOM     12  H6  UNL     1      34.881  22.126  83.349  1.00  0.00     0.184 HD
HETATM   13  C8  UNL     1      34.288  22.737  85.153  1.00  0.00     0.035 A 
HETATM   14  C9  UNL     1      35.650  23.155  85.617  1.00  0.00     0.066 C 
ENDROOT
BRANCH  10  15
HETATM   15  N2  UNL     1      32.637  21.301  82.239  1.00  0.00     0.032 N 
BRANCH  15  16
HETATM   16  O2  UNL     1      33.364  20.207  81.954  1.00  0.00    -0.253 OA
ATOM     17  H2  UNL     1      34.270  20.207  82.243  1.00  0.00     0.247 HD
ENDBRANCH  15  16
BRANCH  15  18
HETATM   18  N3  UNL     1      31.796  21.869  81.308  1.00  0.00    -0.187 N 
ATOM     19  H3  UNL     1      31.383  22.775  81.529  1.00  0.00     0.213 HD
BRANCH  18  20
HETATM   20  N4  UNL     1      31.473  21.292  80.093  1.00  0.00    -0.232 N 
HETATM   21  N5  UNL     1      31.098  20.096  80.045  1.00  0.00    -0.330 N 
ATOM     22  H52 UNL     1      31.037  19.563  80.912  1.00  0.00     0.178 HD
ATOM     23  H51 UNL     1      30.860  19.671  79.149  1.00  0.00     0.178 HD
ATOM     24  H4  UNL     1      31.540  21.839  79.234  1.00  0.00     0.209 HD
ENDBRANCH  18  20
ENDBRANCH  15  18
ENDBRANCH  10  15
TORSDOF 4
ENDMDL
MODEL 5
REMARK VINA RESULT: -6.866552958      2.772      3.728
REMARK  4 active torsions:
REMARK  status: ('A' for Active; 'I' for Inactive)
REMARK    1  A    between atoms: C7_10  and  N2_11 
REMARK    2  A    between atoms: N2_11  and  O2_12 
REMARK    3  A    between atoms: N2_11  and  N3_14 
REMARK    4  A    between atoms: N3_14  and  N4_16 
ROOT
HETATM    1  C1  UNL     1      28.428  25.538  89.562  1.00  0.00     0.017 C 
HETATM    2  C2  UNL     1      28.907  24.305  88.858  1.00  0.00    -0.021 C 
HETATM    3  C3  UNL     1      27.929  23.185  89.113  1.00  0.00     0.017 C 
HETATM    4  C4  UNL     1      30.256  23.894  89.420  1.00  0.00     0.177 C 
HETATM    5  O1  UNL     1      31.129  24.971  89.283  1.00  0.00    -0.378 OA
HETATM    6  C5  UNL     1      31.459  25.186  87.934  1.00  0.00     0.185 A 
HETATM    7  C6  UNL     1      32.907  25.030  87.671  1.00  0.00     0.176 A 
HETATM    8  N1  UNL     1      33.205  24.113  86.642  1.00  0.00    -0.220 N 
ATOM      9  H1  UNL     1      34.195  23.981  86.435  1.00  0.00     0.177 HD
HETATM   10  C7  UNL     1      32.404  23.440  85.947  1.00  0.00     0.721 A 
HETATM   11  N6  UNL     1      30.996  23.577  86.186  1.00  0.00    -0.193 N 
ATOM     12  H6  UNL     1      30.337  23.035  85.628  1.00  0.00     0.184 HD
HETATM   13  C8  UNL     1      30.554  24.372  87.092  1.00  0.00     0.035 A 
HETATM   14  C9  UNL     1      29.089  24.532  87.359  1.00  0.00     0.066 C 
ENDROOT
BRANCH  10  15
HETATM   15  N2  UNL     1      32.824  22.530  84.917  1.00  0.00     0.032 N 
BRANCH  15  16
HETATM   16  O2  UNL     1      31.896  22.167  84.015  1.00  0.00    -0.253 OA
ATOM     17  H2  UNL     1      31.538  21.290  84.097  1.00  0.00     0.247 HD
ENDBRANCH  15  16
BRANCH  15  18
HETATM   18  N3  UNL     1      34.115  22.052  84.854  1.00  0.00    -0.187 N 
ATOM     19  H3  UNL     1      34.315  21.162  85.309  1.00  0.00     0.213 HD
BRANCH  18  20
HETATM   20  N4  UNL     1      35.157  22.701  84.217  1.00  0.00    -0.232 N 
HETATM   21  N5  UNL     1      35.968  23.389  84.881  1.00  0.00    -0.330 N 
ATOM     22  H52 UNL     1      35.845  23.461  85.890  1.00  0.00     0.178 HD
ATOM     23  H51 UNL     1      36.737  23.867  84.410  1.00  0.00     0.178 HD
ATOM     24  H4  UNL     1      35.266  22.620  83.206  1.00  0.00     0.209 HD
ENDBRANCH  18  20
ENDBRANCH  15  18
ENDBRANCH  10  15
TORSDOF 4
ENDMDL
