MODEL 1
REMARK VINA RESULT: -5.592511729      0.000      0.000
REMARK  3 active torsions:
REMARK  status: ('A' for Active; 'I' for Inactive)
REMARK    1  A    between atoms: N1_1  and  N2_4 
REMARK    2  A    between atoms: N2_4  and  S1_6 
REMARK    3  A    between atoms: S1_6  and  N3_9 
ROOT
HETATM    1  S1  UNL     1      -1.107  10.641   8.811  1.00  0.00     0.338 S 
HETATM    2  O1  UNL     1      -2.571  10.937   8.631  1.00  0.00    -0.181 OA
HETATM    3  O2  UNL     1      -0.310  11.277   7.716  1.00  0.00    -0.181 OA
ENDROOT
BRANCH   1   4
HETATM    4  N2  UNL     1      -0.587  11.345  10.322  1.00  0.00    -0.216 N 
ATOM      5  H2  UNL     1      -0.951  11.134  11.251  1.00  0.00     0.201 HD
BRANCH   4   6
HETATM    6  N1  UNL     1       0.428  12.258  10.006  1.00  0.00    -0.335 N 
ATOM      7  H12 UNL     1       0.660  12.597   9.073  1.00  0.00     0.177 HD
ATOM      8  H11 UNL     1       0.877  12.506  10.887  1.00  0.00     0.177 HD
ENDBRANCH   4   6
ENDBRANCH   1   4
BRANCH   1   9
HETATM    9  N3  UNL     1      -0.884   8.958   8.916  1.00  0.00    -0.242 N 
HETATM   10  C1  UNL     1      -1.174   8.228   9.919  1.00  0.00     0.211 C 
HETATM   11  N4  UNL     1      -0.933   6.837   9.863  1.00  0.00    -0.066 NA
HETATM   12  N5  UNL     1      -1.732   8.788  11.087  1.00  0.00    -0.066 NA
ATOM     13  H3  UNL     1      -0.482   8.491   8.103  1.00  0.00     0.182 HD
ENDBRANCH   1   9
TORSDOF 3
ENDMDL
MODEL 2
REMARK VINA RESULT: -5.218373919      1.946      3.879
REMARK  3 active torsions:
REMARK  status: ('A' for Active; 'I' for Inactive)
REMARK    1  A    between atoms: N1_1  and  N2_4 
REMARK    2  A    between atoms: N2_4  and  S1_6 
REMARK    3  A    between atoms: S1_6  and  N3_9 
ROOT
HETATM    1  S1  UNL     1      -1.661   9.579   9.964  1.00  0.00     0.338 S 
HETATM    2  O1  UNL     1      -2.870  10.111   9.244  1.00  0.00    -0.181 OA
HETATM    3  O2  UNL     1      -2.073   8.843  11.200  1.00  0.00    -0.181 OA
ENDROOT
BRANCH   1   4
HETATM    4  N2  UNL     1      -0.854   8.440   8.915  1.00  0.00    -0.216 N 
ATOM      5  H2  UNL     1      -0.366   8.651   8.044  1.00  0.00     0.201 HD
BRANCH   4   6
HETATM    6  N1  UNL     1      -1.008   7.179   9.505  1.00  0.00    -0.335 N 
ATOM      7  H12 UNL     1      -1.893   6.710   9.694  1.00  0.00     0.177 HD
ATOM      8  H11 UNL     1      -0.068   6.836   9.702  1.00  0.00     0.177 HD
ENDBRANCH   4   6
ENDBRANCH   1   4
BRANCH   1   9
HETATM    9  N3  UNL     1      -0.583  10.859  10.271  1.00  0.00    -0.242 N 
HETATM   10  C1  UNL     1       0.123  11.465   9.401  1.00  0.00     0.211 C 
HETATM   11  N4  UNL     1       0.978  12.515   9.805  1.00  0.00    -0.066 NA
HETATM   12  N5  UNL     1       0.067  11.102   8.040  1.00  0.00    -0.066 NA
ATOM     13  H3  UNL     1      -0.494  11.170  11.239  1.00  0.00     0.182 HD
ENDBRANCH   1   9
TORSDOF 3
ENDMDL
MODEL 3
REMARK VINA RESULT: -5.211652334      1.743      2.185
REMARK  3 active torsions:
REMARK  status: ('A' for Active; 'I' for Inactive)
REMARK    1  A    between atoms: N1_1  and  N2_4 
REMARK    2  A    between atoms: N2_4  and  S1_6 
REMARK    3  A    between atoms: S1_6  and  N3_9 
ROOT
HETATM    1  S1  UNL     1      -0.766  10.915   8.387  1.00  0.00     0.338 S 
HETATM    2  O1  UNL     1      -0.680  10.901   6.885  1.00  0.00    -0.181 OA
HETATM    3  O2  UNL     1      -0.153  12.166   8.931  1.00  0.00    -0.181 OA
ENDROOT
BRANCH   1   4
HETATM    4  N2  UNL     1      -2.452  10.911   8.841  1.00  0.00    -0.216 N 
ATOM      5  H2  UNL     1      -2.926  11.588   9.438  1.00  0.00     0.201 HD
BRANCH   4   6
HETATM    6  N1  UNL     1      -3.026   9.792   8.223  1.00  0.00    -0.335 N 
ATOM      7  H12 UNL     1      -3.005   9.581   7.226  1.00  0.00     0.177 HD
ATOM      8  H11 UNL     1      -3.462   9.245   8.965  1.00  0.00     0.177 HD
ENDBRANCH   4   6
ENDBRANCH   1   4
BRANCH   1   9
HETATM    9  N3  UNL     1      -0.057   9.496   9.002  1.00  0.00    -0.242 N 
HETATM   10  C1  UNL     1      -0.265   8.997  10.155  1.00  0.00     0.211 C 
HETATM   11  N4  UNL     1       0.398   7.807  10.530  1.00  0.00    -0.066 NA
HETATM   12  N5  UNL     1      -1.146   9.616  11.066  1.00  0.00    -0.066 NA
ATOM     13  H3  UNL     1       0.593   8.999   8.392  1.00  0.00     0.182 HD
ENDBRANCH   1   9
TORSDOF 3
ENDMDL
MODEL 4
REMARK VINA RESULT: -5.187550969      2.677      3.768
REMARK  3 active torsions:
REMARK  status: ('A' for Active; 'I' for Inactive)
REMARK    1  A    between atoms: N1_1  and  N2_4 
REMARK    2  A    between atoms: N2_4  and  S1_6 
REMARK    3  A    between atoms: S1_6  and  N3_9 
ROOT
HETATM    1  S1  UNL     1      -1.454   9.310  10.248  1.00  0.00     0.338 S 
HETATM    2  O1  UNL     1      -1.830   8.981  11.667  1.00  0.00    -0.181 OA
HETATM    3  O2  UNL     1      -1.050   8.070   9.516  1.00  0.00    -0.181 OA
ENDROOT
BRANCH   1   4
HETATM    4  N2  UNL     1      -2.860   9.965   9.446  1.00  0.00    -0.216 N 
ATOM      5  H2  UNL     1      -3.443  10.737   9.768  1.00  0.00     0.201 HD
BRANCH   4   6
HETATM    6  N1  UNL     1      -3.029   9.220   8.272  1.00  0.00    -0.335 N 
ATOM      7  H12 UNL     1      -3.070   9.595   7.324  1.00  0.00     0.177 HD
ATOM      8  H11 UNL     1      -3.103   8.244   8.558  1.00  0.00     0.177 HD
ENDBRANCH   4   6
ENDBRANCH   1   4
BRANCH   1   9
HETATM    9  N3  UNL     1      -0.249  10.512  10.252  1.00  0.00    -0.242 N 
HETATM   10  C1  UNL     1       0.187  11.135   9.231  1.00  0.00     0.211 C 
HETATM   11  N4  UNL     1       1.195  12.112   9.388  1.00  0.00    -0.066 NA
HETATM   12  N5  UNL     1      -0.319  10.862   7.943  1.00  0.00    -0.066 NA
ATOM     13  H3  UNL     1       0.160  10.755  11.155  1.00  0.00     0.182 HD
ENDBRANCH   1   9
TORSDOF 3
ENDMDL
MODEL 5
REMARK VINA RESULT: -5.158478461      1.990      2.447
REMARK  3 active torsions:
REMARK  status: ('A' for Active; 'I' for Inactive)
REMARK    1  A    between atoms: N1_1  and  N2_4 
REMARK    2  A    between atoms: N2_4  and  S1_6 
REMARK    3  A    between atoms: S1_6  and  N3_9 
ROOT
HETATM    1  S1  UNL     1      -0.094  10.826   8.706  1.00  0.00     0.338 S 
HETATM    2  O1  UNL     1       0.644  11.812   7.842  1.00  0.00    -0.181 OA
HETATM    3  O2  UNL     1       0.614   9.509   8.713  1.00  0.00    -0.181 OA
ENDROOT
BRANCH   1   4
HETATM    4  N2  UNL     1      -0.104  11.430  10.344  1.00  0.00    -0.216 N 
ATOM      5  H2  UNL     1      -0.534  10.988  11.156  1.00  0.00     0.201 HD
BRANCH   4   6
HETATM    6  N1  UNL     1       0.596  12.643  10.323  1.00  0.00    -0.335 N 
ATOM      7  H12 UNL     1       0.491  13.385   9.631  1.00  0.00     0.177 HD
ATOM      8  H11 UNL     1       1.222  12.629  11.128  1.00  0.00     0.177 HD
ENDBRANCH   4   6
ENDBRANCH   1   4
BRANCH   1   9
HETATM    9  N3  UNL     1      -1.709  10.719   8.181  1.00  0.00    -0.242 N 
HETATM   10  C1  UNL     1      -2.644  10.081   8.765  1.00  0.00     0.211 C 
HETATM   11  N4  UNL     1      -3.943  10.081   8.210  1.00  0.00    -0.066 NA
HETATM   12  N5  UNL     1      -2.401   9.371   9.960  1.00  0.00    -0.066 NA
ATOM     13  H3  UNL     1      -1.951  11.211   7.320  1.00  0.00     0.182 HD
ENDBRANCH   1   9
TORSDOF 3
ENDMDL
