MODEL 1
REMARK VINA RESULT: -6.378026173      0.000      0.000
REMARK  1 active torsions:
REMARK  status: ('A' for Active; 'I' for Inactive)
REMARK       I    between atoms: C1_2  and  N2_4 
REMARK    1  A    between atoms: N2_4  and  N3_6 
ROOT
HETATM    1  N3  UNL     1      -0.276   9.387   9.892  1.00  0.00    -0.276 N 
ATOM      2  H3  UNL     1      -0.438   8.620   9.239  1.00  0.00     0.189 HD
HETATM    3  C2  UNL     1      -0.270  10.608   9.445  1.00  0.00     0.205 A 
HETATM    4  N4  UNL     1      -0.080  11.853  10.072  1.00  0.00    -0.277 N 
ATOM      5  H4  UNL     1       0.102  12.141  11.034  1.00  0.00     0.189 HD
HETATM    6  N5  UNL     1      -0.235  12.539   8.876  1.00  0.00    -0.262 N 
ATOM      7  H5  UNL     1      -0.215  13.520   8.598  1.00  0.00     0.190 HD
HETATM    8  C3  UNL     1      -0.429  11.326   8.210  1.00  0.00     0.306 A 
HETATM    9  O2  UNL     1      -0.653  10.989   7.018  1.00  0.00    -0.262 OA
ENDROOT
BRANCH   1  10
HETATM   10  N2  UNL     1      -0.068   9.098  11.240  1.00  0.00    -0.252 N 
HETATM   11  C1  UNL     1      -1.081   8.593  12.089  1.00  0.00     0.347 C 
HETATM   12  N1  UNL     1      -0.867   8.302  13.452  1.00  0.00    -0.038 NA
HETATM   13  O1  UNL     1      -2.211   8.401  11.591  1.00  0.00    -0.249 OA
ATOM     14  H2  UNL     1       0.860   9.258  11.633  1.00  0.00     0.191 HD
ENDBRANCH   1  10
TORSDOF 1
ENDMDL
MODEL 2
REMARK VINA RESULT: -6.161643801      1.127      1.127
REMARK  1 active torsions:
REMARK  status: ('A' for Active; 'I' for Inactive)
REMARK       I    between atoms: C1_2  and  N2_4 
REMARK    1  A    between atoms: N2_4  and  N3_6 
ROOT
HETATM    1  N3  UNL     1      -0.647   9.436  10.025  1.00  0.00    -0.276 N 
ATOM      2  H3  UNL     1      -0.859   8.664   9.392  1.00  0.00     0.189 HD
HETATM    3  C2  UNL     1      -0.461  10.625   9.533  1.00  0.00     0.205 A 
HETATM    4  N4  UNL     1      -0.161  11.866  10.123  1.00  0.00    -0.277 N 
ATOM      5  H4  UNL     1      -0.008  12.174  11.084  1.00  0.00     0.189 HD
HETATM    6  N5  UNL     1      -0.153  12.509   8.894  1.00  0.00    -0.262 N 
ATOM      7  H5  UNL     1       0.005  13.467   8.581  1.00  0.00     0.190 HD
HETATM    8  C3  UNL     1      -0.451  11.299   8.263  1.00  0.00     0.306 A 
HETATM    9  O2  UNL     1      -0.637  10.936   7.072  1.00  0.00    -0.262 OA
ENDROOT
BRANCH   1  10
HETATM   10  N2  UNL     1      -0.564   9.187  11.394  1.00  0.00    -0.252 N 
HETATM   11  C1  UNL     1       0.060   8.039  11.936  1.00  0.00     0.347 C 
HETATM   12  N1  UNL     1       0.143   7.789  13.321  1.00  0.00    -0.038 NA
HETATM   13  O1  UNL     1       0.557   7.218  11.135  1.00  0.00    -0.249 OA
ATOM     14  H2  UNL     1      -0.973   9.866  12.037  1.00  0.00     0.191 HD
ENDBRANCH   1  10
TORSDOF 1
ENDMDL
MODEL 3
REMARK VINA RESULT: -6.092124376      2.194      2.265
REMARK  1 active torsions:
REMARK  status: ('A' for Active; 'I' for Inactive)
REMARK       I    between atoms: C1_2  and  N2_4 
REMARK    1  A    between atoms: N2_4  and  N3_6 
ROOT
HETATM    1  N3  UNL     1      -0.173   8.967   8.760  1.00  0.00    -0.276 N 
ATOM      2  H3  UNL     1       0.220   8.779   7.837  1.00  0.00     0.189 HD
HETATM    3  C2  UNL     1      -0.084  10.165   9.254  1.00  0.00     0.205 A 
HETATM    4  N4  UNL     1      -0.513  10.733  10.468  1.00  0.00    -0.277 N 
ATOM      5  H4  UNL     1      -1.006  10.368  11.284  1.00  0.00     0.189 HD
HETATM    6  N5  UNL     1      -0.008  11.979  10.127  1.00  0.00    -0.262 N 
ATOM      7  H5  UNL     1       0.026  12.893  10.578  1.00  0.00     0.190 HD
HETATM    8  C3  UNL     1       0.438  11.461   8.908  1.00  0.00     0.306 A 
HETATM    9  O2  UNL     1       1.046  11.927   7.910  1.00  0.00    -0.262 OA
ENDROOT
BRANCH   1  10
HETATM   10  N2  UNL     1      -0.792   7.930   9.457  1.00  0.00    -0.252 N 
HETATM   11  C1  UNL     1      -0.076   6.945  10.176  1.00  0.00     0.347 C 
HETATM   12  N1  UNL     1      -0.705   5.897  10.879  1.00  0.00    -0.038 NA
HETATM   13  O1  UNL     1       1.171   7.021  10.177  1.00  0.00    -0.249 OA
ATOM     14  H2  UNL     1      -1.811   7.879   9.448  1.00  0.00     0.191 HD
ENDBRANCH   1  10
TORSDOF 1
ENDMDL
MODEL 4
REMARK VINA RESULT: -6.027215079      1.681      1.828
REMARK  1 active torsions:
REMARK  status: ('A' for Active; 'I' for Inactive)
REMARK       I    between atoms: C1_2  and  N2_4 
REMARK    1  A    between atoms: N2_4  and  N3_6 
ROOT
HETATM    1  N3  UNL     1      -0.774  10.646  10.516  1.00  0.00    -0.276 N 
ATOM      2  H3  UNL     1      -0.093  11.290  10.916  1.00  0.00     0.189 HD
HETATM    3  C2  UNL     1      -0.919  10.598   9.225  1.00  0.00     0.205 A 
HETATM    4  N4  UNL     1      -1.751   9.836   8.385  1.00  0.00    -0.277 N 
ATOM      5  H4  UNL     1      -2.461   9.122   8.550  1.00  0.00     0.189 HD
HETATM    6  N5  UNL     1      -1.234  10.432   7.244  1.00  0.00    -0.262 N 
ATOM      7  H5  UNL     1      -1.402  10.341   6.242  1.00  0.00     0.190 HD
HETATM    8  C3  UNL     1      -0.388  11.211   8.037  1.00  0.00     0.306 A 
HETATM    9  O2  UNL     1       0.484  12.090   7.815  1.00  0.00    -0.262 OA
ENDROOT
BRANCH   1  10
HETATM   10  N2  UNL     1      -1.527   9.839  11.369  1.00  0.00    -0.252 N 
HETATM   11  C1  UNL     1      -1.068   8.594  11.861  1.00  0.00     0.347 C 
HETATM   12  N1  UNL     1      -1.831   7.780  12.723  1.00  0.00    -0.038 NA
HETATM   13  O1  UNL     1       0.068   8.214  11.506  1.00  0.00    -0.249 OA
ATOM     14  H2  UNL     1      -2.452  10.161  11.652  1.00  0.00     0.191 HD
ENDBRANCH   1  10
TORSDOF 1
ENDMDL
MODEL 5
REMARK VINA RESULT: -6.023718447      1.586      1.600
REMARK  1 active torsions:
REMARK  status: ('A' for Active; 'I' for Inactive)
REMARK       I    between atoms: C1_2  and  N2_4 
REMARK    1  A    between atoms: N2_4  and  N3_6 
ROOT
HETATM    1  N3  UNL     1      -0.353   9.707  10.865  1.00  0.00    -0.276 N 
ATOM      2  H3  UNL     1       0.619   9.422  10.987  1.00  0.00     0.189 HD
HETATM    3  C2  UNL     1      -0.643  10.597   9.963  1.00  0.00     0.205 A 
HETATM    4  N4  UNL     1      -1.854  11.187   9.558  1.00  0.00    -0.277 N 
ATOM      5  H4  UNL     1      -2.825  11.084   9.854  1.00  0.00     0.189 HD
HETATM    6  N5  UNL     1      -1.218  11.965   8.601  1.00  0.00    -0.262 N 
ATOM      7  H5  UNL     1      -1.519  12.657   7.915  1.00  0.00     0.190 HD
HETATM    8  C3  UNL     1       0.009  11.407   8.969  1.00  0.00     0.306 A 
HETATM    9  O2  UNL     1       1.202  11.547   8.591  1.00  0.00    -0.262 OA
ENDROOT
BRANCH   1  10
HETATM   10  N2  UNL     1      -1.335   9.132  11.670  1.00  0.00    -0.252 N 
HETATM   11  C1  UNL     1      -1.040   8.312  12.784  1.00  0.00     0.347 C 
HETATM   12  N1  UNL     1      -2.035   7.731  13.597  1.00  0.00    -0.038 NA
HETATM   13  O1  UNL     1       0.164   8.103  13.047  1.00  0.00    -0.249 OA
ATOM     14  H2  UNL     1      -2.314   9.311  11.445  1.00  0.00     0.191 HD
ENDBRANCH   1  10
TORSDOF 1
ENDMDL
