MODEL 1
REMARK VINA RESULT: -6.158961460      0.000      0.000
REMARK  3 active torsions:
REMARK  status: ('A' for Active; 'I' for Inactive)
REMARK    1  A    between atoms: N1_1  and  N2_4 
REMARK    2  A    between atoms: C2_11  and  N5_12 
REMARK    3  A    between atoms: N5_12  and  C3_14 
ROOT
HETATM    1  N2  UNL     1      -0.892  10.752   8.461  1.00  0.00    -0.035 N 
HETATM    2  C1  UNL     1      -0.110  11.813   8.825  1.00  0.00     0.375 A 
HETATM    3  O1  UNL     1       0.459  12.568   7.993  1.00  0.00    -0.243 OA
HETATM    4  N3  UNL     1      -0.065  11.894  10.165  1.00  0.00    -0.235 N 
ATOM      5  H3  UNL     1       0.439  12.583  10.721  1.00  0.00     0.192 HD
HETATM    6  N4  UNL     1      -0.809  10.896  10.617  1.00  0.00    -0.126 N 
ATOM      7  H4  UNL     1      -0.969  10.696  11.604  1.00  0.00     0.206 HD
HETATM    8  C2  UNL     1      -1.326  10.183   9.601  1.00  0.00     0.724 A 
ENDROOT
BRANCH   8   9
HETATM    9  N5  UNL     1      -2.088   9.155   9.681  1.00  0.00    -0.164 N 
ATOM     10  H5  UNL     1      -1.711   8.302  10.093  1.00  0.00     0.186 HD
BRANCH   9  11
HETATM   11  C3  UNL     1      -3.429   9.147   9.223  1.00  0.00     0.368 C 
HETATM   12  O2  UNL     1      -3.838  10.107   8.495  1.00  0.00    -0.283 OA
ENDBRANCH   9  11
ENDBRANCH   8   9
BRANCH   1  13
HETATM   13  N1  UNL     1      -1.152  10.379   7.141  1.00  0.00    -0.320 N 
ATOM     14  H12 UNL     1      -0.492  10.145   6.399  1.00  0.00     0.178 HD
ATOM     15  H11 UNL     1      -2.086  10.292   6.740  1.00  0.00     0.178 HD
ENDBRANCH   1  13
TORSDOF 3
ENDMDL
MODEL 2
REMARK VINA RESULT: -6.120389346      1.068      1.956
REMARK  3 active torsions:
REMARK  status: ('A' for Active; 'I' for Inactive)
REMARK    1  A    between atoms: N1_1  and  N2_4 
REMARK    2  A    between atoms: C2_11  and  N5_12 
REMARK    3  A    between atoms: N5_12  and  C3_14 
ROOT
HETATM    1  N2  UNL     1      -0.384  10.519   9.461  1.00  0.00    -0.035 N 
HETATM    2  C1  UNL     1       0.319  11.575   8.950  1.00  0.00     0.375 A 
HETATM    3  O1  UNL     1       1.166  12.227   9.616  1.00  0.00    -0.243 OA
HETATM    4  N3  UNL     1      -0.044  11.775   7.673  1.00  0.00    -0.235 N 
ATOM      5  H3  UNL     1       0.311  12.491   7.040  1.00  0.00     0.192 HD
HETATM    6  N4  UNL     1      -0.957  10.856   7.403  1.00  0.00    -0.126 N 
ATOM      7  H4  UNL     1      -1.426  10.753   6.504  1.00  0.00     0.206 HD
HETATM    8  C2  UNL     1      -1.184  10.075   8.475  1.00  0.00     0.724 A 
ENDROOT
BRANCH   8   9
HETATM    9  N5  UNL     1      -2.003   9.092   8.562  1.00  0.00    -0.164 N 
ATOM     10  H5  UNL     1      -1.642   8.147   8.441  1.00  0.00     0.186 HD
BRANCH   9  11
HETATM   11  C3  UNL     1      -3.387   9.258   8.818  1.00  0.00     0.368 C 
HETATM   12  O2  UNL     1      -3.964  10.322   8.428  1.00  0.00    -0.283 OA
ENDBRANCH   9  11
ENDBRANCH   8   9
BRANCH   1  13
HETATM   13  N1  UNL     1      -0.251  10.040  10.766  1.00  0.00    -0.320 N 
ATOM     14  H12 UNL     1       0.529   9.535  11.187  1.00  0.00     0.178 HD
ATOM     15  H11 UNL     1      -0.959  10.144  11.492  1.00  0.00     0.178 HD
ENDBRANCH   1  13
TORSDOF 3
ENDMDL
MODEL 3
REMARK VINA RESULT: -6.076002928      1.652      1.652
REMARK  3 active torsions:
REMARK  status: ('A' for Active; 'I' for Inactive)
REMARK    1  A    between atoms: N1_1  and  N2_4 
REMARK    2  A    between atoms: C2_11  and  N5_12 
REMARK    3  A    between atoms: N5_12  and  C3_14 
ROOT
HETATM    1  N2  UNL     1      -0.836  10.754   8.566  1.00  0.00    -0.035 N 
HETATM    2  C1  UNL     1       0.083  11.753   8.728  1.00  0.00     0.375 A 
HETATM    3  O1  UNL     1       0.706  12.281   7.769  1.00  0.00    -0.243 OA
HETATM    4  N3  UNL     1       0.191  12.050  10.033  1.00  0.00    -0.235 N 
ATOM      5  H3  UNL     1       0.797  12.754  10.454  1.00  0.00     0.192 HD
HETATM    6  N4  UNL     1      -0.650  11.245  10.663  1.00  0.00    -0.126 N 
ATOM      7  H4  UNL     1      -0.793  11.234  11.672  1.00  0.00     0.206 HD
HETATM    8  C2  UNL     1      -1.291  10.444   9.794  1.00  0.00     0.724 A 
ENDROOT
BRANCH   8   9
HETATM    9  N5  UNL     1      -2.168   9.548  10.062  1.00  0.00    -0.164 N 
ATOM     10  H5  UNL     1      -3.050   9.564   9.551  1.00  0.00     0.186 HD
BRANCH   9  11
HETATM   11  C3  UNL     1      -1.969   8.536  11.034  1.00  0.00     0.368 C 
HETATM   12  O2  UNL     1      -1.510   8.859  12.175  1.00  0.00    -0.283 OA
ENDBRANCH   9  11
ENDBRANCH   8   9
BRANCH   1  13
HETATM   13  N1  UNL     1      -1.192  10.202   7.333  1.00  0.00    -0.320 N 
ATOM     14  H12 UNL     1      -2.028  10.372   6.773  1.00  0.00     0.178 HD
ATOM     15  H11 UNL     1      -0.626   9.528   6.819  1.00  0.00     0.178 HD
ENDBRANCH   1  13
TORSDOF 3
ENDMDL
MODEL 4
REMARK VINA RESULT: -5.883925715      2.092      2.786
REMARK  3 active torsions:
REMARK  status: ('A' for Active; 'I' for Inactive)
REMARK    1  A    between atoms: N1_1  and  N2_4 
REMARK    2  A    between atoms: C2_11  and  N5_12 
REMARK    3  A    between atoms: N5_12  and  C3_14 
ROOT
HETATM    1  N2  UNL     1      -0.377  10.906   9.564  1.00  0.00    -0.035 N 
HETATM    2  C1  UNL     1      -0.529  10.708   8.219  1.00  0.00     0.375 A 
HETATM    3  O1  UNL     1      -0.150  11.539   7.352  1.00  0.00    -0.243 OA
HETATM    4  N3  UNL     1      -1.125   9.524   8.009  1.00  0.00    -0.235 N 
ATOM      5  H3  UNL     1      -1.366   9.110   7.109  1.00  0.00     0.192 HD
HETATM    6  N4  UNL     1      -1.337   9.002   9.207  1.00  0.00    -0.126 N 
ATOM      7  H4  UNL     1      -1.779   8.099   9.374  1.00  0.00     0.206 HD
HETATM    8  C2  UNL     1      -0.890   9.823  10.175  1.00  0.00     0.724 A 
ENDROOT
BRANCH   8   9
HETATM    9  N5  UNL     1      -0.937   9.630  11.441  1.00  0.00    -0.164 N 
ATOM     10  H5  UNL     1      -0.472  10.301  12.052  1.00  0.00     0.186 HD
BRANCH   9  11
HETATM   11  C3  UNL     1      -1.604   8.529  12.033  1.00  0.00     0.368 C 
HETATM   12  O2  UNL     1      -1.238   7.349  11.727  1.00  0.00    -0.283 OA
ENDBRANCH   9  11
ENDBRANCH   8   9
BRANCH   1  13
HETATM   13  N1  UNL     1       0.208  12.039  10.133  1.00  0.00    -0.320 N 
ATOM     14  H12 UNL     1       1.153  12.156  10.501  1.00  0.00     0.178 HD
ATOM     15  H11 UNL     1      -0.266  12.933  10.255  1.00  0.00     0.178 HD
ENDBRANCH   1  13
TORSDOF 3
ENDMDL
MODEL 5
REMARK VINA RESULT: -5.740077732      2.001      2.277
REMARK  3 active torsions:
REMARK  status: ('A' for Active; 'I' for Inactive)
REMARK    1  A    between atoms: N1_1  and  N2_4 
REMARK    2  A    between atoms: C2_11  and  N5_12 
REMARK    3  A    between atoms: N5_12  and  C3_14 
ROOT
HETATM    1  N2  UNL     1      -1.339  10.165   8.964  1.00  0.00    -0.035 N 
HETATM    2  C1  UNL     1      -0.642  10.994   8.130  1.00  0.00     0.375 A 
HETATM    3  O1  UNL     1      -0.759  10.970   6.876  1.00  0.00    -0.243 OA
HETATM    4  N3  UNL     1       0.149  11.797   8.860  1.00  0.00    -0.235 N 
ATOM      5  H3  UNL     1       0.782  12.517   8.511  1.00  0.00     0.192 HD
HETATM    6  N4  UNL     1      -0.060  11.466  10.124  1.00  0.00    -0.126 N 
ATOM      7  H4  UNL     1       0.402  11.905  10.920  1.00  0.00     0.206 HD
HETATM    8  C2  UNL     1      -0.962  10.474  10.219  1.00  0.00     0.724 A 
ENDROOT
BRANCH   8   9
HETATM    9  N5  UNL     1      -1.394   9.913  11.288  1.00  0.00    -0.164 N 
ATOM     10  H5  UNL     1      -2.109  10.394  11.833  1.00  0.00     0.186 HD
BRANCH   9  11
HETATM   11  C3  UNL     1      -0.924   8.658  11.748  1.00  0.00     0.368 C 
HETATM   12  O2  UNL     1      -1.262   7.605  11.120  1.00  0.00    -0.283 OA
ENDBRANCH   9  11
ENDBRANCH   8   9
BRANCH   1  13
HETATM   13  N1  UNL     1      -2.254   9.201   8.535  1.00  0.00    -0.320 N 
ATOM     14  H12 UNL     1      -2.142   8.488   7.814  1.00  0.00     0.178 HD
ATOM     15  H11 UNL     1      -3.194   9.091   8.913  1.00  0.00     0.178 HD
ENDBRANCH   1  13
TORSDOF 3
ENDMDL
