MODEL 1
REMARK VINA RESULT: -5.675711755      0.000      0.000
REMARK  2 active torsions:
REMARK  status: ('A' for Active; 'I' for Inactive)
REMARK       I    between atoms: C1_2  and  N2_4 
REMARK    1  A    between atoms: N2_4  and  N3_5 
REMARK       I    between atoms: N3_5  and  C2_7 
REMARK    2  A    between atoms: C2_7  and  C3_9 
REMARK       I    between atoms: C3_9  and  N4_10 
ROOT
HETATM    1  N3  UNL     1      -0.589   9.989  10.644  1.00  0.00    -0.190 N 
ATOM      2  H3  UNL     1       0.222  10.069  11.258  1.00  0.00     0.205 HD
HETATM    3  C2  UNL     1      -1.509   9.072  11.174  1.00  0.00     0.338 C 
HETATM    4  O2  UNL     1      -2.578   8.795  10.614  1.00  0.00    -0.260 OA
ENDROOT
BRANCH   3   5
HETATM    5  C3  UNL     1      -1.183   8.402  12.457  1.00  0.00     0.309 C 
HETATM    6  N4  UNL     1       0.048   8.411  13.080  1.00  0.00    -0.362 N 
ATOM      7  H42 UNL     1       0.824   8.915  12.651  1.00  0.00     0.159 HD
ATOM      8  H41 UNL     1       0.273   7.950  13.962  1.00  0.00     0.159 HD
HETATM    9  O3  UNL     1      -2.168   7.762  13.003  1.00  0.00    -0.262 OA
ENDBRANCH   3   5
BRANCH   1  10
HETATM   10  N2  UNL     1      -0.453  10.759   9.622  1.00  0.00    -0.265 NA
HETATM   11  C1  UNL     1      -0.306  11.586   8.541  1.00  0.00     0.424 C 
HETATM   12  N1  UNL     1      -0.597  10.953   7.220  1.00  0.00    -0.024 NA
HETATM   13  O1  UNL     1       0.039  12.778   8.429  1.00  0.00    -0.232 OA
ENDBRANCH   1  10
TORSDOF 2
ENDMDL
MODEL 2
REMARK VINA RESULT: -5.598417719      1.815      4.973
REMARK  2 active torsions:
REMARK  status: ('A' for Active; 'I' for Inactive)
REMARK       I    between atoms: C1_2  and  N2_4 
REMARK    1  A    between atoms: N2_4  and  N3_5 
REMARK       I    between atoms: N3_5  and  C2_7 
REMARK    2  A    between atoms: C2_7  and  C3_9 
REMARK       I    between atoms: C3_9  and  N4_10 
ROOT
HETATM    1  N3  UNL     1      -0.486   9.758  10.763  1.00  0.00    -0.190 N 
ATOM      2  H3  UNL     1      -0.535  10.600  11.338  1.00  0.00     0.205 HD
HETATM    3  C2  UNL     1       0.079  10.055   9.514  1.00  0.00     0.338 C 
HETATM    4  O2  UNL     1       0.245   9.202   8.633  1.00  0.00    -0.260 OA
ENDROOT
BRANCH   3   5
HETATM    5  C3  UNL     1       0.488  11.455   9.237  1.00  0.00     0.309 C 
HETATM    6  N4  UNL     1       0.465  12.495  10.143  1.00  0.00    -0.362 N 
ATOM      7  H42 UNL     1       0.147  12.323  11.097  1.00  0.00     0.159 HD
ATOM      8  H41 UNL     1       0.745  13.457   9.952  1.00  0.00     0.159 HD
HETATM    9  O3  UNL     1       0.891  11.674   8.026  1.00  0.00    -0.262 OA
ENDBRANCH   3   5
BRANCH   1  10
HETATM   10  N2  UNL     1      -0.962   8.750  11.407  1.00  0.00    -0.265 NA
HETATM   11  C1  UNL     1      -1.473   7.684  12.097  1.00  0.00     0.424 C 
HETATM   12  N1  UNL     1      -0.898   6.358  11.724  1.00  0.00    -0.024 NA
HETATM   13  O1  UNL     1      -2.348   7.590  12.981  1.00  0.00    -0.232 OA
ENDBRANCH   1  10
TORSDOF 2
ENDMDL
MODEL 3
REMARK VINA RESULT: -5.569346513      2.097      5.043
REMARK  2 active torsions:
REMARK  status: ('A' for Active; 'I' for Inactive)
REMARK       I    between atoms: C1_2  and  N2_4 
REMARK    1  A    between atoms: N2_4  and  N3_5 
REMARK       I    between atoms: N3_5  and  C2_7 
REMARK    2  A    between atoms: C2_7  and  C3_9 
REMARK       I    between atoms: C3_9  and  N4_10 
ROOT
HETATM    1  N3  UNL     1      -0.226   9.607  10.675  1.00  0.00    -0.190 N 
ATOM      2  H3  UNL     1       0.005  10.317  11.371  1.00  0.00     0.205 HD
HETATM    3  C2  UNL     1       0.041  10.089   9.385  1.00  0.00     0.338 C 
HETATM    4  O2  UNL     1      -0.158   9.418   8.363  1.00  0.00    -0.260 OA
ENDROOT
BRANCH   3   5
HETATM    5  C3  UNL     1       0.576  11.466   9.239  1.00  0.00     0.309 C 
HETATM    6  N4  UNL     1       0.449  12.482  10.164  1.00  0.00    -0.362 N 
ATOM      7  H42 UNL     1      -0.050  12.306  11.036  1.00  0.00     0.159 HD
ATOM      8  H41 UNL     1       0.816  13.427  10.064  1.00  0.00     0.159 HD
HETATM    9  O3  UNL     1       1.209  11.689   8.131  1.00  0.00    -0.262 OA
ENDBRANCH   3   5
BRANCH   1  10
HETATM   10  N2  UNL     1      -0.671   8.546  11.250  1.00  0.00    -0.265 NA
HETATM   11  C1  UNL     1      -1.140   7.411  11.857  1.00  0.00     0.424 C 
HETATM   12  N1  UNL     1      -2.166   7.642  12.917  1.00  0.00    -0.024 NA
HETATM   13  O1  UNL     1      -0.871   6.202  11.712  1.00  0.00    -0.232 OA
ENDBRANCH   1  10
TORSDOF 2
ENDMDL
MODEL 4
REMARK VINA RESULT: -5.531845530      1.429      4.994
REMARK  2 active torsions:
REMARK  status: ('A' for Active; 'I' for Inactive)
REMARK       I    between atoms: C1_2  and  N2_4 
REMARK    1  A    between atoms: N2_4  and  N3_5 
REMARK       I    between atoms: N3_5  and  C2_7 
REMARK    2  A    between atoms: C2_7  and  C3_9 
REMARK       I    between atoms: C3_9  and  N4_10 
ROOT
HETATM    1  N3  UNL     1      -0.878   9.962  10.343  1.00  0.00    -0.190 N 
ATOM      2  H3  UNL     1       0.099  10.258  10.329  1.00  0.00     0.205 HD
HETATM    3  C2  UNL     1      -1.574  10.535   9.269  1.00  0.00     0.338 C 
HETATM    4  O2  UNL     1      -2.779  10.333   9.066  1.00  0.00    -0.260 OA
ENDROOT
BRANCH   3   5
HETATM    5  C3  UNL     1      -0.835  11.428   8.341  1.00  0.00     0.309 C 
HETATM    6  N4  UNL     1      -0.370  12.692   8.640  1.00  0.00    -0.362 N 
ATOM      7  H42 UNL     1      -0.527  13.078   9.571  1.00  0.00     0.159 HD
ATOM      8  H41 UNL     1       0.138  13.305   8.003  1.00  0.00     0.159 HD
HETATM    9  O3  UNL     1      -0.635  10.938   7.159  1.00  0.00    -0.262 OA
ENDBRANCH   3   5
BRANCH   1  10
HETATM   10  N2  UNL     1      -1.092   9.177  11.341  1.00  0.00    -0.265 NA
HETATM   11  C1  UNL     1      -1.329   8.343  12.400  1.00  0.00     0.424 C 
HETATM   12  N1  UNL     1      -0.151   8.096  13.283  1.00  0.00    -0.024 NA
HETATM   13  O1  UNL     1      -2.343   7.723  12.778  1.00  0.00    -0.232 OA
ENDBRANCH   1  10
TORSDOF 2
ENDMDL
MODEL 5
REMARK VINA RESULT: -5.486298071      2.294      4.971
REMARK  2 active torsions:
REMARK  status: ('A' for Active; 'I' for Inactive)
REMARK       I    between atoms: C1_2  and  N2_4 
REMARK    1  A    between atoms: N2_4  and  N3_5 
REMARK       I    between atoms: N3_5  and  C2_7 
REMARK    2  A    between atoms: C2_7  and  C3_9 
REMARK       I    between atoms: C3_9  and  N4_10 
ROOT
HETATM    1  N3  UNL     1       0.128   9.261  10.185  1.00  0.00    -0.190 N 
ATOM      2  H3  UNL     1       0.634   9.733  10.934  1.00  0.00     0.205 HD
HETATM    3  C2  UNL     1       0.028  10.098   9.064  1.00  0.00     0.338 C 
HETATM    4  O2  UNL     1      -0.545   9.757   8.020  1.00  0.00    -0.260 OA
ENDROOT
BRANCH   3   5
HETATM    5  C3  UNL     1       0.629  11.453   9.136  1.00  0.00     0.309 C 
HETATM    6  N4  UNL     1       0.422  12.373  10.144  1.00  0.00    -0.362 N 
ATOM      7  H42 UNL     1      -0.190  12.134  10.924  1.00  0.00     0.159 HD
ATOM      8  H41 UNL     1       0.834  13.304  10.194  1.00  0.00     0.159 HD
HETATM    9  O3  UNL     1       1.405  11.758   8.146  1.00  0.00    -0.262 OA
ENDBRANCH   3   5
BRANCH   1  10
HETATM   10  N2  UNL     1      -0.222   8.080  10.558  1.00  0.00    -0.265 NA
HETATM   11  C1  UNL     1      -0.596   6.827  10.964  1.00  0.00     0.424 C 
HETATM   12  N1  UNL     1      -0.629   5.798   9.883  1.00  0.00    -0.024 NA
HETATM   13  O1  UNL     1      -0.932   6.362  12.071  1.00  0.00    -0.232 OA
ENDBRANCH   1  10
TORSDOF 2
ENDMDL
