MODEL 1
REMARK VINA RESULT: -6.509413406      0.000      0.000
REMARK  2 active torsions:
REMARK  status: ('A' for Active; 'I' for Inactive)
REMARK    1  A    between atoms: N1_1  and  N2_4 
REMARK       I    between atoms: N2_4  and  C1_6 
REMARK       I    between atoms: C1_6  and  N3_8 
REMARK    2  A    between atoms: N3_8  and  C2_10 
ROOT
HETATM    1  C2  UNL     1      -0.637   9.879  10.139  1.00  0.00     0.705 A 
HETATM    2  N4  UNL     1      -0.784  11.081  10.708  1.00  0.00    -0.128 N 
ATOM      3  H4  UNL     1      -1.356  11.297  11.523  1.00  0.00     0.205 HD
HETATM    4  N5  UNL     1      -0.052  11.934  10.020  1.00  0.00    -0.237 N 
ATOM      5  H5  UNL     1       0.031  12.929  10.225  1.00  0.00     0.192 HD
HETATM    6  C3  UNL     1       0.567  11.303   9.013  1.00  0.00     0.353 A 
HETATM    7  O2  UNL     1       1.357  11.784   8.133  1.00  0.00    -0.245 OA
HETATM    8  N6  UNL     1       0.195  10.017   9.096  1.00  0.00    -0.138 N 
ATOM      9  H6  UNL     1       0.494   9.270   8.470  1.00  0.00     0.189 HD
ENDROOT
BRANCH   1  10
HETATM   10  N3  UNL     1      -1.210   8.802  10.551  1.00  0.00    -0.138 N 
HETATM   11  C1  UNL     1      -1.126   8.300  11.857  1.00  0.00     0.352 C 
HETATM   12  N2  UNL     1       0.130   8.099  12.525  1.00  0.00    -0.258 N 
HETATM   13  O1  UNL     1      -2.187   8.015  12.469  1.00  0.00    -0.245 OA
ATOM     14  H2  UNL     1       1.000   8.325  12.044  1.00  0.00     0.191 HD
ATOM     15  H3  UNL     1      -1.767   8.276   9.877  1.00  0.00     0.189 HD
BRANCH  12  16
HETATM   16  N1  UNL     1       0.173   7.596  13.829  1.00  0.00    -0.341 N 
ATOM     17  H12 UNL     1      -0.354   6.749  14.044  1.00  0.00     0.177 HD
ATOM     18  H11 UNL     1       0.720   8.066  14.551  1.00  0.00     0.177 HD
ENDBRANCH  12  16
ENDBRANCH   1  10
TORSDOF 2
ENDMDL
MODEL 2
REMARK VINA RESULT: -6.388383384      1.482      1.482
REMARK  2 active torsions:
REMARK  status: ('A' for Active; 'I' for Inactive)
REMARK    1  A    between atoms: N1_1  and  N2_4 
REMARK       I    between atoms: N2_4  and  C1_6 
REMARK       I    between atoms: C1_6  and  N3_8 
REMARK    2  A    between atoms: N3_8  and  C2_10 
ROOT
HETATM    1  C2  UNL     1      -1.750   9.385   9.633  1.00  0.00     0.705 A 
HETATM    2  N4  UNL     1      -2.101  10.639   9.941  1.00  0.00    -0.128 N 
ATOM      3  H4  UNL     1      -2.565  10.944  10.796  1.00  0.00     0.205 HD
HETATM    4  N5  UNL     1      -1.738  11.407   8.934  1.00  0.00    -0.237 N 
ATOM      5  H5  UNL     1      -1.879  12.416   8.889  1.00  0.00     0.192 HD
HETATM    6  C3  UNL     1      -1.157  10.671   7.978  1.00  0.00     0.353 A 
HETATM    7  O2  UNL     1      -0.676  11.049   6.857  1.00  0.00    -0.245 OA
HETATM    8  N6  UNL     1      -1.169   9.406   8.425  1.00  0.00    -0.138 N 
ATOM      9  H6  UNL     1      -0.798   8.596   7.929  1.00  0.00     0.189 HD
ENDROOT
BRANCH   1  10
HETATM   10  N3  UNL     1      -1.952   8.365  10.392  1.00  0.00    -0.138 N 
HETATM   11  C1  UNL     1      -1.516   8.255  11.720  1.00  0.00     0.352 C 
HETATM   12  N2  UNL     1      -0.152   8.495  12.105  1.00  0.00    -0.258 N 
HETATM   13  O1  UNL     1      -2.346   7.936  12.609  1.00  0.00    -0.245 OA
ATOM     14  H2  UNL     1       0.534   8.755  11.397  1.00  0.00     0.191 HD
ATOM     15  H3  UNL     1      -2.467   7.578   9.998  1.00  0.00     0.189 HD
BRANCH  12  16
HETATM   16  N1  UNL     1       0.244   8.377  13.440  1.00  0.00    -0.341 N 
ATOM     17  H12 UNL     1      -0.443   8.067  14.128  1.00  0.00     0.177 HD
ATOM     18  H11 UNL     1       1.200   8.595  13.721  1.00  0.00     0.177 HD
ENDBRANCH  12  16
ENDBRANCH   1  10
TORSDOF 2
ENDMDL
MODEL 3
REMARK VINA RESULT: -6.368633154      1.833      2.280
REMARK  2 active torsions:
REMARK  status: ('A' for Active; 'I' for Inactive)
REMARK    1  A    between atoms: N1_1  and  N2_4 
REMARK       I    between atoms: N2_4  and  C1_6 
REMARK       I    between atoms: C1_6  and  N3_8 
REMARK    2  A    between atoms: N3_8  and  C2_10 
ROOT
HETATM    1  C2  UNL     1      -0.765  10.256  10.224  1.00  0.00     0.705 A 
HETATM    2  N4  UNL     1      -1.947  10.726   9.809  1.00  0.00    -0.128 N 
ATOM      3  H4  UNL     1      -2.866  10.384  10.091  1.00  0.00     0.205 HD
HETATM    4  N5  UNL     1      -1.705  11.710   8.968  1.00  0.00    -0.237 N 
ATOM      5  H5  UNL     1      -2.420  12.259   8.490  1.00  0.00     0.192 HD
HETATM    6  C3  UNL     1      -0.384  11.887   8.831  1.00  0.00     0.353 A 
HETATM    7  O2  UNL     1       0.240  12.736   8.110  1.00  0.00    -0.245 OA
HETATM    8  N6  UNL     1       0.196  10.971   9.622  1.00  0.00    -0.138 N 
ATOM      9  H6  UNL     1       1.200  10.841   9.745  1.00  0.00     0.189 HD
ENDROOT
BRANCH   1  10
HETATM   10  N3  UNL     1      -0.619   9.286  11.058  1.00  0.00    -0.138 N 
HETATM   11  C1  UNL     1      -0.299   7.968  10.705  1.00  0.00     0.352 C 
HETATM   12  N2  UNL     1      -1.035   7.237   9.711  1.00  0.00    -0.258 N 
HETATM   13  O1  UNL     1       0.668   7.402  11.277  1.00  0.00    -0.245 OA
ATOM     14  H2  UNL     1      -1.822   7.681   9.237  1.00  0.00     0.191 HD
ATOM     15  H3  UNL     1      -0.745   9.492  12.049  1.00  0.00     0.189 HD
BRANCH  12  16
HETATM   16  N1  UNL     1      -0.685   5.923   9.385  1.00  0.00    -0.341 N 
ATOM     17  H12 UNL     1       0.107   5.769   8.761  1.00  0.00     0.177 HD
ATOM     18  H11 UNL     1      -1.210   5.135   9.764  1.00  0.00     0.177 HD
ENDBRANCH  12  16
ENDBRANCH   1  10
TORSDOF 2
ENDMDL
MODEL 4
REMARK VINA RESULT: -6.206992749      2.186      2.332
REMARK  2 active torsions:
REMARK  status: ('A' for Active; 'I' for Inactive)
REMARK    1  A    between atoms: N1_1  and  N2_4 
REMARK       I    between atoms: N2_4  and  C1_6 
REMARK       I    between atoms: C1_6  and  N3_8 
REMARK    2  A    between atoms: N3_8  and  C2_10 
ROOT
HETATM    1  C2  UNL     1      -0.524   9.459  10.062  1.00  0.00     0.705 A 
HETATM    2  N4  UNL     1      -0.789  10.728  10.393  1.00  0.00    -0.128 N 
ATOM      3  H4  UNL     1      -0.258  11.306  11.043  1.00  0.00     0.205 HD
HETATM    4  N5  UNL     1      -1.864  11.092   9.725  1.00  0.00    -0.237 N 
ATOM      5  H5  UNL     1      -2.301  12.012   9.778  1.00  0.00     0.192 HD
HETATM    6  C3  UNL     1      -2.301  10.079   8.965  1.00  0.00     0.353 A 
HETATM    7  O2  UNL     1      -3.308  10.042   8.181  1.00  0.00    -0.245 OA
HETATM    8  N6  UNL     1      -1.455   9.061   9.183  1.00  0.00    -0.138 N 
ATOM      9  H6  UNL     1      -1.511   8.138   8.752  1.00  0.00     0.189 HD
ENDROOT
BRANCH   1  10
HETATM   10  N3  UNL     1       0.463   8.775  10.528  1.00  0.00    -0.138 N 
HETATM   11  C1  UNL     1       0.398   7.937  11.649  1.00  0.00     0.352 C 
HETATM   12  N2  UNL     1      -0.123   8.379  12.913  1.00  0.00    -0.258 N 
HETATM   13  O1  UNL     1       0.808   6.752  11.547  1.00  0.00    -0.245 OA
ATOM     14  H2  UNL     1      -0.460   9.336  13.012  1.00  0.00     0.191 HD
ATOM     15  H3  UNL     1       1.358   8.850  10.045  1.00  0.00     0.189 HD
BRANCH  12  16
HETATM   16  N1  UNL     1      -0.172   7.512  14.008  1.00  0.00    -0.341 N 
ATOM     17  H12 UNL     1       0.243   6.584  13.916  1.00  0.00     0.177 HD
ATOM     18  H11 UNL     1      -0.614   7.800  14.881  1.00  0.00     0.177 HD
ENDBRANCH  12  16
ENDBRANCH   1  10
TORSDOF 2
ENDMDL
MODEL 5
REMARK VINA RESULT: -6.117705676      1.659      2.094
REMARK  2 active torsions:
REMARK  status: ('A' for Active; 'I' for Inactive)
REMARK    1  A    between atoms: N1_1  and  N2_4 
REMARK       I    between atoms: N2_4  and  C1_6 
REMARK       I    between atoms: C1_6  and  N3_8 
REMARK    2  A    between atoms: N3_8  and  C2_10 
ROOT
HETATM    1  C2  UNL     1      -0.761   9.903  10.092  1.00  0.00     0.705 A 
HETATM    2  N4  UNL     1      -0.825  11.080  10.724  1.00  0.00    -0.128 N 
ATOM      3  H4  UNL     1      -1.383  11.292  11.551  1.00  0.00     0.205 HD
HETATM    4  N5  UNL     1      -0.035  11.915  10.081  1.00  0.00    -0.237 N 
ATOM      5  H5  UNL     1       0.117  12.890  10.338  1.00  0.00     0.192 HD
HETATM    6  C3  UNL     1       0.540  11.298   9.041  1.00  0.00     0.353 A 
HETATM    7  O2  UNL     1       1.363  11.769   8.186  1.00  0.00    -0.245 OA
HETATM    8  N6  UNL     1       0.080  10.038   9.056  1.00  0.00    -0.138 N 
ATOM      9  H6  UNL     1       0.327   9.306   8.391  1.00  0.00     0.189 HD
ENDROOT
BRANCH   1  10
HETATM   10  N3  UNL     1      -1.409   8.848  10.448  1.00  0.00    -0.138 N 
HETATM   11  C1  UNL     1      -0.938   7.535  10.310  1.00  0.00     0.352 C 
HETATM   12  N2  UNL     1      -0.437   7.023   9.064  1.00  0.00    -0.258 N 
HETATM   13  O1  UNL     1      -0.953   6.775  11.311  1.00  0.00    -0.245 OA
ATOM     14  H2  UNL     1      -0.418   7.626   8.242  1.00  0.00     0.191 HD
ATOM     15  H3  UNL     1      -2.333   8.978  10.860  1.00  0.00     0.189 HD
BRANCH  12  16
HETATM   16  N1  UNL     1       0.024   5.708   8.966  1.00  0.00    -0.341 N 
ATOM     17  H12 UNL     1      -0.358   5.108   8.234  1.00  0.00     0.177 HD
ATOM     18  H11 UNL     1       0.730   5.353   9.613  1.00  0.00     0.177 HD
ENDBRANCH  12  16
ENDBRANCH   1  10
TORSDOF 2
ENDMDL
