MODEL 1
REMARK VINA RESULT: -8.207117125      0.000      0.000
REMARK  8 active torsions:
REMARK  status: ('A' for Active; 'I' for Inactive)
REMARK    1  A    between atoms: N1_1  and  N2_4 
REMARK       I    between atoms: N2_4  and  C1_6 
REMARK    2  A    between atoms: C1_6  and  C2_8 
REMARK    3  A    between atoms: N4_11  and  C3_12 
REMARK    4  A    between atoms: C3_12  and  C4_13 
REMARK       I    between atoms: C4_13  and  N5_15 
REMARK    5  A    between atoms: N5_15  and  N6_17 
REMARK       I    between atoms: N6_17  and  C5_19 
REMARK    6  A    between atoms: C5_19  and  C6_21 
REMARK    7  A    between atoms: C6_21  and  N7_22 
REMARK    8  A    between atoms: C6_21  and  O4_26 
ROOT
HETATM    1  C2  UNL     1      62.933  39.909  37.950  1.00  0.00     0.186 A 
HETATM    2  N3  UNL     1      62.803  40.685  36.888  1.00  0.00    -0.284 N 
ATOM      3  H3  UNL     1      63.456  40.551  36.116  1.00  0.00     0.187 HD
HETATM    4  N4  UNL     1      61.878  41.625  36.761  1.00  0.00    -0.233 N 
HETATM    5  C7  UNL     1      61.000  41.825  37.761  1.00  0.00     0.344 A 
HETATM    6  O5  UNL     1      60.092  42.694  37.722  1.00  0.00    -0.245 OA
HETATM    7  N8  UNL     1      61.100  41.051  38.866  1.00  0.00    -0.272 N 
ATOM      8  H8  UNL     1      60.440  41.196  39.629  1.00  0.00     0.174 HD
HETATM    9  C8  UNL     1      62.050  40.086  38.994  1.00  0.00     0.283 A 
HETATM   10  O6  UNL     1      62.143  39.364  40.025  1.00  0.00    -0.265 OA
ENDROOT
BRANCH   4  11
HETATM   11  C3  UNL     1      61.754  42.463  35.589  1.00  0.00     0.258 C 
BRANCH  11  12
HETATM   12  C4  UNL     1      61.932  43.893  35.842  1.00  0.00     0.256 C 
HETATM   13  O2  UNL     1      63.079  44.362  36.025  1.00  0.00    -0.270 OA
HETATM   14  N5  UNL     1      60.849  44.805  35.894  1.00  0.00    -0.266 N 
ATOM     15  H5  UNL     1      59.906  44.445  35.747  1.00  0.00     0.190 HD
BRANCH  14  16
HETATM   16  N6  UNL     1      61.002  46.164  36.134  1.00  0.00    -0.264 N 
HETATM   17  C5  UNL     1      60.674  46.796  37.349  1.00  0.00     0.292 C 
HETATM   18  O3  UNL     1      60.212  46.112  38.289  1.00  0.00    -0.267 OA
ATOM     19  H6  UNL     1      61.376  46.742  35.382  1.00  0.00     0.190 HD
BRANCH  17  20
HETATM   20  C6  UNL     1      60.864  48.243  37.529  1.00  0.00     0.411 C 
BRANCH  20  21
HETATM   21  N7  UNL     1      61.452  48.595  38.788  1.00  0.00    -0.044 N 
ATOM     22  H73 UNL     1      61.050  48.036  39.541  1.00  0.00     0.278 HD
ATOM     23  H72 UNL     1      62.419  48.275  38.835  1.00  0.00     0.278 HD
ATOM     24  H71 UNL     1      61.391  49.589  39.005  1.00  0.00     0.278 HD
ENDBRANCH  20  21
BRANCH  20  25
HETATM   25  O4  UNL     1      61.595  48.770  36.461  1.00  0.00    -0.363 OA
ATOM     26  H4  UNL     1      61.023  48.933  35.720  1.00  0.00     0.212 HD
ENDBRANCH  20  25
ENDBRANCH  17  20
ENDBRANCH  14  16
ENDBRANCH  11  12
ENDBRANCH   4  11
BRANCH   1  27
HETATM   27  C1  UNL     1      63.968  38.865  38.088  1.00  0.00     0.293 C 
HETATM   28  N2  UNL     1      63.902  37.706  37.281  1.00  0.00    -0.271 N 
ATOM     29  H2  UNL     1      63.147  37.584  36.606  1.00  0.00     0.189 HD
HETATM   30  O1  UNL     1      64.902  38.990  38.906  1.00  0.00    -0.264 OA
BRANCH  28  31
HETATM   31  N1  UNL     1      64.894  36.731  37.427  1.00  0.00    -0.342 N 
ATOM     32  H12 UNL     1      65.862  37.013  37.583  1.00  0.00     0.176 HD
ATOM     33  H11 UNL     1      64.624  35.749  37.373  1.00  0.00     0.176 HD
ENDBRANCH  28  31
ENDBRANCH   1  27
TORSDOF 8
ENDMDL
MODEL 2
REMARK VINA RESULT: -7.998174812      1.571      1.641
REMARK  8 active torsions:
REMARK  status: ('A' for Active; 'I' for Inactive)
REMARK    1  A    between atoms: N1_1  and  N2_4 
REMARK       I    between atoms: N2_4  and  C1_6 
REMARK    2  A    between atoms: C1_6  and  C2_8 
REMARK    3  A    between atoms: N4_11  and  C3_12 
REMARK    4  A    between atoms: C3_12  and  C4_13 
REMARK       I    between atoms: C4_13  and  N5_15 
REMARK    5  A    between atoms: N5_15  and  N6_17 
REMARK       I    between atoms: N6_17  and  C5_19 
REMARK    6  A    between atoms: C5_19  and  C6_21 
REMARK    7  A    between atoms: C6_21  and  N7_22 
REMARK    8  A    between atoms: C6_21  and  O4_26 
ROOT
HETATM    1  C2  UNL     1      63.512  39.120  38.444  1.00  0.00     0.186 A 
HETATM    2  N3  UNL     1      63.028  39.953  37.540  1.00  0.00    -0.284 N 
ATOM      3  H3  UNL     1      63.451  39.949  36.612  1.00  0.00     0.187 HD
HETATM    4  N4  UNL     1      62.027  40.792  37.761  1.00  0.00    -0.233 N 
HETATM    5  C7  UNL     1      61.446  40.820  38.975  1.00  0.00     0.344 A 
HETATM    6  O5  UNL     1      60.491  41.585  39.269  1.00  0.00    -0.245 OA
HETATM    7  N8  UNL     1      61.914  39.982  39.928  1.00  0.00    -0.272 N 
ATOM      8  H8  UNL     1      61.481  39.997  40.851  1.00  0.00     0.174 HD
HETATM    9  C8  UNL     1      62.941  39.121  39.700  1.00  0.00     0.283 A 
HETATM   10  O6  UNL     1      63.378  38.339  40.590  1.00  0.00    -0.265 OA
ENDROOT
BRANCH   4  11
HETATM   11  C3  UNL     1      61.513  41.695  36.756  1.00  0.00     0.258 C 
BRANCH  11  12
HETATM   12  C4  UNL     1      61.996  43.071  36.870  1.00  0.00     0.256 C 
HETATM   13  O2  UNL     1      63.137  43.375  36.449  1.00  0.00    -0.270 OA
HETATM   14  N5  UNL     1      61.227  44.112  37.447  1.00  0.00    -0.266 N 
ATOM     15  H5  UNL     1      60.295  43.887  37.797  1.00  0.00     0.190 HD
BRANCH  14  16
HETATM   16  N6  UNL     1      61.673  45.422  37.563  1.00  0.00    -0.264 N 
HETATM   17  C5  UNL     1      61.200  46.492  36.781  1.00  0.00     0.292 C 
HETATM   18  O3  UNL     1      60.321  46.277  35.917  1.00  0.00    -0.267 OA
ATOM     19  H6  UNL     1      62.390  45.621  38.261  1.00  0.00     0.190 HD
BRANCH  17  20
HETATM   20  C6  UNL     1      61.722  47.856  36.961  1.00  0.00     0.411 C 
BRANCH  20  21
HETATM   21  N7  UNL     1      61.527  48.377  38.282  1.00  0.00    -0.044 N 
ATOM     22  H73 UNL     1      61.607  47.635  38.978  1.00  0.00     0.278 HD
ATOM     23  H72 UNL     1      62.318  48.958  38.560  1.00  0.00     0.278 HD
ATOM     24  H71 UNL     1      60.649  48.884  38.397  1.00  0.00     0.278 HD
ENDBRANCH  20  21
BRANCH  20  25
HETATM   25  O4  UNL     1      63.068  47.909  36.587  1.00  0.00    -0.363 OA
ATOM     26  H4  UNL     1      63.608  47.491  37.247  1.00  0.00     0.212 HD
ENDBRANCH  20  25
ENDBRANCH  17  20
ENDBRANCH  14  16
ENDBRANCH  11  12
ENDBRANCH   4  11
BRANCH   1  27
HETATM   27  C1  UNL     1      64.631  38.189  38.194  1.00  0.00     0.293 C 
HETATM   28  N2  UNL     1      65.746  38.189  39.064  1.00  0.00    -0.271 N 
ATOM     29  H2  UNL     1      65.786  38.825  39.861  1.00  0.00     0.189 HD
HETATM   30  O1  UNL     1      64.608  37.401  37.226  1.00  0.00    -0.264 OA
BRANCH  28  31
HETATM   31  N1  UNL     1      66.793  37.297  38.810  1.00  0.00    -0.342 N 
ATOM     32  H12 UNL     1      66.890  36.455  39.377  1.00  0.00     0.176 HD
ATOM     33  H11 UNL     1      67.444  37.512  38.054  1.00  0.00     0.176 HD
ENDBRANCH  28  31
ENDBRANCH   1  27
TORSDOF 8
ENDMDL
MODEL 3
REMARK VINA RESULT: -7.816512258      1.446      1.664
REMARK  8 active torsions:
REMARK  status: ('A' for Active; 'I' for Inactive)
REMARK    1  A    between atoms: N1_1  and  N2_4 
REMARK       I    between atoms: N2_4  and  C1_6 
REMARK    2  A    between atoms: C1_6  and  C2_8 
REMARK    3  A    between atoms: N4_11  and  C3_12 
REMARK    4  A    between atoms: C3_12  and  C4_13 
REMARK       I    between atoms: C4_13  and  N5_15 
REMARK    5  A    between atoms: N5_15  and  N6_17 
REMARK       I    between atoms: N6_17  and  C5_19 
REMARK    6  A    between atoms: C5_19  and  C6_21 
REMARK    7  A    between atoms: C6_21  and  N7_22 
REMARK    8  A    between atoms: C6_21  and  O4_26 
ROOT
HETATM    1  C2  UNL     1      62.784  39.383  38.993  1.00  0.00     0.186 A 
HETATM    2  N3  UNL     1      62.171  40.252  38.209  1.00  0.00    -0.284 N 
ATOM      3  H3  UNL     1      62.533  40.381  37.264  1.00  0.00     0.187 HD
HETATM    4  N4  UNL     1      61.115  40.965  38.571  1.00  0.00    -0.233 N 
HETATM    5  C7  UNL     1      60.612  40.816  39.811  1.00  0.00     0.344 A 
HETATM    6  O5  UNL     1      59.613  41.453  40.234  1.00  0.00    -0.245 OA
HETATM    7  N8  UNL     1      61.212  39.936  40.644  1.00  0.00    -0.272 N 
ATOM      8  H8  UNL     1      60.839  39.817  41.585  1.00  0.00     0.174 HD
HETATM    9  C8  UNL     1      62.296  39.204  40.271  1.00  0.00     0.283 A 
HETATM   10  O6  UNL     1      62.856  38.383  41.049  1.00  0.00    -0.265 OA
ENDROOT
BRANCH   4  11
HETATM   11  C3  UNL     1      60.459  41.911  37.695  1.00  0.00     0.258 C 
BRANCH  11  12
HETATM   12  C4  UNL     1      61.108  43.219  37.617  1.00  0.00     0.256 C 
HETATM   13  O2  UNL     1      62.292  43.312  37.215  1.00  0.00    -0.270 OA
HETATM   14  N5  UNL     1      60.458  44.424  37.983  1.00  0.00    -0.266 N 
ATOM     15  H5  UNL     1      59.494  44.372  38.314  1.00  0.00     0.190 HD
BRANCH  14  16
HETATM   16  N6  UNL     1      61.062  45.673  37.916  1.00  0.00    -0.264 N 
HETATM   17  C5  UNL     1      60.700  46.679  37.001  1.00  0.00     0.292 C 
HETATM   18  O3  UNL     1      59.779  46.461  36.184  1.00  0.00    -0.267 OA
ATOM     19  H6  UNL     1      61.817  45.873  38.572  1.00  0.00     0.190 HD
BRANCH  17  20
HETATM   20  C6  UNL     1      61.388  47.980  36.990  1.00  0.00     0.411 C 
BRANCH  20  21
HETATM   21  N7  UNL     1      61.935  48.354  38.261  1.00  0.00    -0.044 N 
ATOM     22  H73 UNL     1      61.900  49.366  38.384  1.00  0.00     0.278 HD
ATOM     23  H72 UNL     1      61.314  48.068  39.018  1.00  0.00     0.278 HD
ATOM     24  H71 UNL     1      62.880  48.004  38.419  1.00  0.00     0.278 HD
ENDBRANCH  20  21
BRANCH  20  25
HETATM   25  O4  UNL     1      62.365  47.999  35.990  1.00  0.00    -0.363 OA
ATOM     26  H4  UNL     1      63.213  48.210  36.365  1.00  0.00     0.212 HD
ENDBRANCH  20  25
ENDBRANCH  17  20
ENDBRANCH  14  16
ENDBRANCH  11  12
ENDBRANCH   4  11
BRANCH   1  27
HETATM   27  C1  UNL     1      63.964  38.593  38.587  1.00  0.00     0.293 C 
HETATM   28  N2  UNL     1      63.794  37.471  37.742  1.00  0.00    -0.271 N 
ATOM     29  H2  UNL     1      62.867  37.203  37.412  1.00  0.00     0.189 HD
HETATM   30  O1  UNL     1      65.109  38.899  38.977  1.00  0.00    -0.264 OA
BRANCH  28  31
HETATM   31  N1  UNL     1      64.925  36.738  37.368  1.00  0.00    -0.342 N 
ATOM     32  H12 UNL     1      65.807  37.221  37.194  1.00  0.00     0.176 HD
ATOM     33  H11 UNL     1      64.842  35.725  37.276  1.00  0.00     0.176 HD
ENDBRANCH  28  31
ENDBRANCH   1  27
TORSDOF 8
ENDMDL
MODEL 4
REMARK VINA RESULT: -7.699312632      3.368      4.862
REMARK  8 active torsions:
REMARK  status: ('A' for Active; 'I' for Inactive)
REMARK    1  A    between atoms: N1_1  and  N2_4 
REMARK       I    between atoms: N2_4  and  C1_6 
REMARK    2  A    between atoms: C1_6  and  C2_8 
REMARK    3  A    between atoms: N4_11  and  C3_12 
REMARK    4  A    between atoms: C3_12  and  C4_13 
REMARK       I    between atoms: C4_13  and  N5_15 
REMARK    5  A    between atoms: N5_15  and  N6_17 
REMARK       I    between atoms: N6_17  and  C5_19 
REMARK    6  A    between atoms: C5_19  and  C6_21 
REMARK    7  A    between atoms: C6_21  and  N7_22 
REMARK    8  A    between atoms: C6_21  and  O4_26 
ROOT
HETATM    1  C2  UNL     1      63.673  38.117  40.276  1.00  0.00     0.186 A 
HETATM    2  N3  UNL     1      62.981  39.236  40.147  1.00  0.00    -0.284 N 
ATOM      3  H3  UNL     1      63.105  39.777  39.291  1.00  0.00     0.187 HD
HETATM    4  N4  UNL     1      62.138  39.699  41.057  1.00  0.00    -0.233 N 
HETATM    5  C7  UNL     1      61.952  39.006  42.197  1.00  0.00     0.344 A 
HETATM    6  O5  UNL     1      61.171  39.373  43.111  1.00  0.00    -0.245 OA
HETATM    7  N8  UNL     1      62.642  37.855  42.366  1.00  0.00    -0.272 N 
ATOM      8  H8  UNL     1      62.509  37.324  43.226  1.00  0.00     0.174 HD
HETATM    9  C8  UNL     1      63.508  37.381  41.430  1.00  0.00     0.283 A 
HETATM   10  O6  UNL     1      64.152  36.307  41.589  1.00  0.00    -0.265 OA
ENDROOT
BRANCH   4  11
HETATM   11  C3  UNL     1      61.391  40.926  40.895  1.00  0.00     0.258 C 
BRANCH  11  12
HETATM   12  C4  UNL     1      60.747  41.078  39.591  1.00  0.00     0.256 C 
HETATM   13  O2  UNL     1      59.517  40.869  39.468  1.00  0.00    -0.270 OA
HETATM   14  N5  UNL     1      61.453  41.457  38.422  1.00  0.00    -0.266 N 
ATOM     15  H5  UNL     1      62.456  41.632  38.500  1.00  0.00     0.190 HD
BRANCH  14  16
HETATM   16  N6  UNL     1      60.855  41.604  37.178  1.00  0.00    -0.264 N 
HETATM   17  C5  UNL     1      61.438  42.288  36.095  1.00  0.00     0.292 C 
HETATM   18  O3  UNL     1      62.567  42.808  36.235  1.00  0.00    -0.267 OA
ATOM     19  H6  UNL     1      59.933  41.189  37.040  1.00  0.00     0.190 HD
BRANCH  17  20
HETATM   20  C6  UNL     1      60.742  42.403  34.804  1.00  0.00     0.411 C 
BRANCH  20  21
HETATM   21  N7  UNL     1      61.211  43.486  33.991  1.00  0.00    -0.044 N 
ATOM     22  H73 UNL     1      62.119  43.816  34.319  1.00  0.00     0.278 HD
ATOM     23  H72 UNL     1      61.476  43.152  33.064  1.00  0.00     0.278 HD
ATOM     24  H71 UNL     1      60.550  44.260  33.919  1.00  0.00     0.278 HD
ENDBRANCH  20  21
BRANCH  20  25
HETATM   25  O4  UNL     1      60.801  41.188  34.115  1.00  0.00    -0.363 OA
ATOM     26  H4  UNL     1      61.508  40.652  34.456  1.00  0.00     0.212 HD
ENDBRANCH  20  25
ENDBRANCH  17  20
ENDBRANCH  14  16
ENDBRANCH  11  12
ENDBRANCH   4  11
BRANCH   1  27
HETATM   27  C1  UNL     1      64.615  37.607  39.259  1.00  0.00     0.293 C 
HETATM   28  N2  UNL     1      65.933  37.264  39.640  1.00  0.00    -0.271 N 
ATOM     29  H2  UNL     1      66.239  37.366  40.608  1.00  0.00     0.189 HD
HETATM   30  O1  UNL     1      64.267  37.474  38.069  1.00  0.00    -0.264 OA
BRANCH  28  31
HETATM   31  N1  UNL     1      66.808  36.781  38.662  1.00  0.00    -0.342 N 
ATOM     32  H12 UNL     1      67.057  35.792  38.649  1.00  0.00     0.176 HD
ATOM     33  H11 UNL     1      67.183  37.436  37.975  1.00  0.00     0.176 HD
ENDBRANCH  28  31
ENDBRANCH   1  27
TORSDOF 8
ENDMDL
MODEL 5
REMARK VINA RESULT: -7.668626761      3.219      4.780
REMARK  8 active torsions:
REMARK  status: ('A' for Active; 'I' for Inactive)
REMARK    1  A    between atoms: N1_1  and  N2_4 
REMARK       I    between atoms: N2_4  and  C1_6 
REMARK    2  A    between atoms: C1_6  and  C2_8 
REMARK    3  A    between atoms: N4_11  and  C3_12 
REMARK    4  A    between atoms: C3_12  and  C4_13 
REMARK       I    between atoms: C4_13  and  N5_15 
REMARK    5  A    between atoms: N5_15  and  N6_17 
REMARK       I    between atoms: N6_17  and  C5_19 
REMARK    6  A    between atoms: C5_19  and  C6_21 
REMARK    7  A    between atoms: C6_21  and  N7_22 
REMARK    8  A    between atoms: C6_21  and  O4_26 
ROOT
HETATM    1  C2  UNL     1      64.257  37.676  40.443  1.00  0.00     0.186 A 
HETATM    2  N3  UNL     1      63.430  38.634  40.063  1.00  0.00    -0.284 N 
ATOM      3  H3  UNL     1      63.577  39.056  39.146  1.00  0.00     0.187 HD
HETATM    4  N4  UNL     1      62.421  39.081  40.796  1.00  0.00    -0.233 N 
HETATM    5  C7  UNL     1      62.199  38.542  42.011  1.00  0.00     0.344 A 
HETATM    6  O5  UNL     1      61.265  38.907  42.770  1.00  0.00    -0.245 OA
HETATM    7  N8  UNL     1      63.025  37.558  42.435  1.00  0.00    -0.272 N 
ATOM      8  H8  UNL     1      62.865  37.145  43.354  1.00  0.00     0.174 HD
HETATM    9  C8  UNL     1      64.060  37.100  41.681  1.00  0.00     0.283 A 
HETATM   10  O6  UNL     1      64.830  36.183  42.077  1.00  0.00    -0.265 OA
ENDROOT
BRANCH   4  11
HETATM   11  C3  UNL     1      61.528  40.131  40.361  1.00  0.00     0.258 C 
BRANCH  11  12
HETATM   12  C4  UNL     1      61.571  40.409  38.925  1.00  0.00     0.256 C 
HETATM   13  O2  UNL     1      62.409  39.829  38.196  1.00  0.00    -0.270 OA
HETATM   14  N5  UNL     1      60.694  41.325  38.292  1.00  0.00    -0.266 N 
ATOM     15  H5  UNL     1      60.004  41.809  38.867  1.00  0.00     0.190 HD
BRANCH  14  16
HETATM   16  N6  UNL     1      60.724  41.601  36.931  1.00  0.00    -0.264 N 
HETATM   17  C5  UNL     1      60.633  42.893  36.383  1.00  0.00     0.292 C 
HETATM   18  O3  UNL     1      60.516  43.876  37.148  1.00  0.00    -0.267 OA
ATOM     19  H6  UNL     1      60.819  40.814  36.288  1.00  0.00     0.190 HD
BRANCH  17  20
HETATM   20  C6  UNL     1      60.672  43.107  34.927  1.00  0.00     0.411 C 
BRANCH  20  21
HETATM   21  N7  UNL     1      60.794  41.895  34.171  1.00  0.00    -0.044 N 
ATOM     22  H73 UNL     1      61.748  41.536  34.219  1.00  0.00     0.278 HD
ATOM     23  H72 UNL     1      60.300  41.131  34.632  1.00  0.00     0.278 HD
ATOM     24  H71 UNL     1      60.492  41.986  33.201  1.00  0.00     0.278 HD
ENDBRANCH  20  21
BRANCH  20  25
HETATM   25  O4  UNL     1      59.561  43.851  34.520  1.00  0.00    -0.363 OA
ATOM     26  H4  UNL     1      59.842  44.627  34.050  1.00  0.00     0.212 HD
ENDBRANCH  20  25
ENDBRANCH  17  20
ENDBRANCH  14  16
ENDBRANCH  11  12
ENDBRANCH   4  11
BRANCH   1  27
HETATM   27  C1  UNL     1      65.382  37.184  39.623  1.00  0.00     0.293 C 
HETATM   28  N2  UNL     1      66.675  37.102  40.191  1.00  0.00    -0.271 N 
ATOM     29  H2  UNL     1      66.838  37.380  41.159  1.00  0.00     0.189 HD
HETATM   30  O1  UNL     1      65.211  36.838  38.436  1.00  0.00    -0.264 OA
BRANCH  28  31
HETATM   31  N1  UNL     1      67.726  36.631  39.397  1.00  0.00    -0.342 N 
ATOM     32  H12 UNL     1      68.685  36.904  39.614  1.00  0.00     0.176 HD
ATOM     33  H11 UNL     1      67.508  36.019  38.611  1.00  0.00     0.176 HD
ENDBRANCH  28  31
ENDBRANCH   1  27
TORSDOF 8
ENDMDL
