MODEL 1
REMARK VINA RESULT: -7.747625491      0.000      0.000
REMARK  8 active torsions:
REMARK  status: ('A' for Active; 'I' for Inactive)
REMARK    1  A    between atoms: N1_1  and  C1_4 
REMARK    2  A    between atoms: C4_10  and  N3_11 
REMARK    3  A    between atoms: N3_11  and  N4_13 
REMARK    4  A    between atoms: N6_20  and  C6_21 
REMARK    5  A    between atoms: C6_21  and  C7_22 
REMARK    6  A    between atoms: C7_22  and  C8_24 
REMARK    7  A    between atoms: C8_24  and  O4_25 
REMARK    8  A    between atoms: C8_24  and  C9_27 
ROOT
HETATM    1  C1  UNL     1      63.812  38.442  37.758  1.00  0.00     0.680 A 
HETATM    2  N2  UNL     1      64.257  37.681  38.768  1.00  0.00    -0.155 N 
ATOM      3  H2  UNL     1      65.004  37.003  38.620  1.00  0.00     0.187 HD
HETATM    4  C2  UNL     1      63.698  37.832  39.975  1.00  0.00     0.277 A 
HETATM    5  O1  UNL     1      64.065  37.147  40.981  1.00  0.00    -0.266 OA
HETATM    6  C3  UNL     1      62.687  38.759  40.156  1.00  0.00     0.123 A 
HETATM    7  C4  UNL     1      62.103  38.923  41.395  1.00  0.00     0.143 A 
HETATM    8  N5  UNL     1      61.126  39.840  41.500  1.00  0.00    -0.292 N 
ATOM      9  H5  UNL     1      60.674  39.985  42.403  1.00  0.00     0.172 HD
HETATM   10  C5  UNL     1      60.727  40.572  40.445  1.00  0.00     0.330 A 
HETATM   11  O2  UNL     1      59.795  41.426  40.606  1.00  0.00    -0.246 OA
HETATM   12  N6  UNL     1      61.273  40.445  39.207  1.00  0.00    -0.277 N 
HETATM   13  C10 UNL     1      62.244  39.539  39.088  1.00  0.00     0.147 A 
HETATM   14  N8  UNL     1      62.833  39.352  37.896  1.00  0.00    -0.175 N 
ATOM     15  H8  UNL     1      62.536  39.904  37.091  1.00  0.00     0.186 HD
ENDROOT
BRANCH  12  16
HETATM   16  C6  UNL     1      60.783  41.270  38.135  1.00  0.00     0.217 C 
BRANCH  16  17
HETATM   17  C7  UNL     1      61.626  42.478  37.929  1.00  0.00     0.182 C 
HETATM   18  O3  UNL     1      61.517  43.435  38.712  1.00  0.00    -0.293 OA
BRANCH  17  19
HETATM   19  C8  UNL     1      62.588  42.566  36.817  1.00  0.00     0.278 C 
BRANCH  19  20
HETATM   20  O4  UNL     1      62.398  41.508  35.914  1.00  0.00    -0.379 OA
ATOM     21  H4  UNL     1      63.021  41.562  35.199  1.00  0.00     0.211 HD
ENDBRANCH  19  20
BRANCH  19  22
HETATM   22  C9  UNL     1      62.595  43.840  36.091  1.00  0.00     0.267 C 
HETATM   23  N7  UNL     1      63.548  44.834  36.441  1.00  0.00    -0.059 NA
HETATM   24  O5  UNL     1      61.808  44.136  35.158  1.00  0.00    -0.274 OA
ENDBRANCH  19  22
ENDBRANCH  17  19
ENDBRANCH  16  17
ENDBRANCH  12  16
BRANCH   7  25
HETATM   25  N3  UNL     1      62.501  38.205  42.411  1.00  0.00    -0.291 N 
ATOM     26  H3  UNL     1      62.318  37.201  42.421  1.00  0.00     0.188 HD
BRANCH  25  27
HETATM   27  N4  UNL     1      63.169  38.791  43.477  1.00  0.00    -0.344 N 
ATOM     28  H42 UNL     1      62.858  38.579  44.424  1.00  0.00     0.176 HD
ATOM     29  H41 UNL     1      63.955  39.422  43.316  1.00  0.00     0.176 HD
ENDBRANCH  25  27
ENDBRANCH   7  25
BRANCH   1  30
HETATM   30  N1  UNL     1      64.363  38.282  36.599  1.00  0.00    -0.234 N 
ATOM     31  H12 UNL     1      65.348  38.024  36.551  1.00  0.00     0.174 HD
ATOM     32  H11 UNL     1      63.780  38.422  35.775  1.00  0.00     0.174 HD
ENDBRANCH   1  30
TORSDOF 8
ENDMDL
MODEL 2
REMARK VINA RESULT: -7.637500024      1.392      1.421
REMARK  8 active torsions:
REMARK  status: ('A' for Active; 'I' for Inactive)
REMARK    1  A    between atoms: N1_1  and  C1_4 
REMARK    2  A    between atoms: C4_10  and  N3_11 
REMARK    3  A    between atoms: N3_11  and  N4_13 
REMARK    4  A    between atoms: N6_20  and  C6_21 
REMARK    5  A    between atoms: C6_21  and  C7_22 
REMARK    6  A    between atoms: C7_22  and  C8_24 
REMARK    7  A    between atoms: C8_24  and  O4_25 
REMARK    8  A    between atoms: C8_24  and  C9_27 
ROOT
HETATM    1  C1  UNL     1      63.440  38.879  37.910  1.00  0.00     0.680 A 
HETATM    2  N2  UNL     1      63.871  38.261  39.019  1.00  0.00    -0.155 N 
ATOM      3  H2  UNL     1      64.659  37.615  38.982  1.00  0.00     0.187 HD
HETATM    4  C2  UNL     1      63.243  38.512  40.174  1.00  0.00     0.277 A 
HETATM    5  O1  UNL     1      63.593  37.964  41.267  1.00  0.00    -0.266 OA
HETATM    6  C3  UNL     1      62.177  39.392  40.202  1.00  0.00     0.123 A 
HETATM    7  C4  UNL     1      61.522  39.658  41.387  1.00  0.00     0.143 A 
HETATM    8  N5  UNL     1      60.493  40.523  41.343  1.00  0.00    -0.292 N 
ATOM      9  H5  UNL     1      59.988  40.740  42.202  1.00  0.00     0.172 HD
HETATM   10  C5  UNL     1      60.112  41.110  40.195  1.00  0.00     0.330 A 
HETATM   11  O2  UNL     1      59.130  41.921  40.215  1.00  0.00    -0.246 OA
HETATM   12  N6  UNL     1      60.728  40.879  39.006  1.00  0.00    -0.277 N 
HETATM   13  C10 UNL     1      61.749  40.023  39.034  1.00  0.00     0.147 A 
HETATM   14  N8  UNL     1      62.409  39.740  37.899  1.00  0.00    -0.175 N 
ATOM     15  H8  UNL     1      62.126  40.182  37.024  1.00  0.00     0.186 HD
ENDROOT
BRANCH  12  16
HETATM   16  C6  UNL     1      60.251  41.551  37.826  1.00  0.00     0.217 C 
BRANCH  16  17
HETATM   17  C7  UNL     1      61.224  42.560  37.325  1.00  0.00     0.182 C 
HETATM   18  O3  UNL     1      61.658  43.423  38.104  1.00  0.00    -0.293 OA
BRANCH  17  19
HETATM   19  C8  UNL     1      61.685  42.557  35.926  1.00  0.00     0.278 C 
BRANCH  19  20
HETATM   20  O4  UNL     1      62.478  41.429  35.669  1.00  0.00    -0.379 OA
ATOM     21  H4  UNL     1      63.156  41.633  35.036  1.00  0.00     0.211 HD
ENDBRANCH  19  20
BRANCH  19  22
HETATM   22  C9  UNL     1      60.627  42.659  34.916  1.00  0.00     0.267 C 
HETATM   23  N7  UNL     1      59.934  43.889  34.757  1.00  0.00    -0.059 NA
HETATM   24  O5  UNL     1      60.272  41.724  34.156  1.00  0.00    -0.274 OA
ENDBRANCH  19  22
ENDBRANCH  17  19
ENDBRANCH  16  17
ENDBRANCH  12  16
BRANCH   7  25
HETATM   25  N3  UNL     1      61.903  39.080  42.494  1.00  0.00    -0.291 N 
ATOM     26  H3  UNL     1      61.731  38.084  42.628  1.00  0.00     0.188 HD
BRANCH  25  27
HETATM   27  N4  UNL     1      62.539  39.807  43.491  1.00  0.00    -0.344 N 
ATOM     28  H42 UNL     1      61.998  40.497  44.013  1.00  0.00     0.176 HD
ATOM     29  H41 UNL     1      63.526  39.653  43.699  1.00  0.00     0.176 HD
ENDBRANCH  25  27
ENDBRANCH   7  25
BRANCH   1  30
HETATM   30  N1  UNL     1      64.058  38.625  36.803  1.00  0.00    -0.234 N 
ATOM     31  H12 UNL     1      63.965  37.700  36.385  1.00  0.00     0.174 HD
ATOM     32  H11 UNL     1      64.618  39.372  36.392  1.00  0.00     0.174 HD
ENDBRANCH   1  30
TORSDOF 8
ENDMDL
MODEL 3
REMARK VINA RESULT: -7.535586576      1.834      3.781
REMARK  8 active torsions:
REMARK  status: ('A' for Active; 'I' for Inactive)
REMARK    1  A    between atoms: N1_1  and  C1_4 
REMARK    2  A    between atoms: C4_10  and  N3_11 
REMARK    3  A    between atoms: N3_11  and  N4_13 
REMARK    4  A    between atoms: N6_20  and  C6_21 
REMARK    5  A    between atoms: C6_21  and  C7_22 
REMARK    6  A    between atoms: C7_22  and  C8_24 
REMARK    7  A    between atoms: C8_24  and  O4_25 
REMARK    8  A    between atoms: C8_24  and  C9_27 
ROOT
HETATM    1  C1  UNL     1      60.951  40.020  41.243  1.00  0.00     0.680 A 
HETATM    2  N2  UNL     1      61.883  39.058  41.210  1.00  0.00    -0.155 N 
ATOM      3  H2  UNL     1      62.015  38.433  42.005  1.00  0.00     0.187 HD
HETATM    4  C2  UNL     1      62.637  38.938  40.111  1.00  0.00     0.277 A 
HETATM    5  O1  UNL     1      63.541  38.050  40.004  1.00  0.00    -0.266 OA
HETATM    6  C3  UNL     1      62.441  39.795  39.043  1.00  0.00     0.123 A 
HETATM    7  C4  UNL     1      63.212  39.680  37.904  1.00  0.00     0.143 A 
HETATM    8  N5  UNL     1      62.970  40.547  36.905  1.00  0.00    -0.292 N 
ATOM      9  H5  UNL     1      63.524  40.488  36.051  1.00  0.00     0.172 HD
HETATM   10  C5  UNL     1      62.017  41.490  37.004  1.00  0.00     0.330 A 
HETATM   11  O2  UNL     1      61.834  42.284  36.023  1.00  0.00    -0.246 OA
HETATM   12  N6  UNL     1      61.234  41.640  38.104  1.00  0.00    -0.277 N 
HETATM   13  C10 UNL     1      61.463  40.787  39.103  1.00  0.00     0.147 A 
HETATM   14  N8  UNL     1      60.732  40.871  40.226  1.00  0.00    -0.175 N 
ATOM     15  H8  UNL     1      60.007  41.584  40.308  1.00  0.00     0.186 HD
ENDROOT
BRANCH  12  16
HETATM   16  C6  UNL     1      60.239  42.678  38.122  1.00  0.00     0.217 C 
BRANCH  16  17
HETATM   17  C7  UNL     1      60.759  43.941  38.713  1.00  0.00     0.182 C 
HETATM   18  O3  UNL     1      60.941  44.007  39.939  1.00  0.00    -0.293 OA
BRANCH  17  19
HETATM   19  C8  UNL     1      61.064  45.115  37.878  1.00  0.00     0.278 C 
BRANCH  19  20
HETATM   20  O4  UNL     1      62.363  45.024  37.353  1.00  0.00    -0.379 OA
ATOM     21  H4  UNL     1      62.400  45.403  36.483  1.00  0.00     0.211 HD
ENDBRANCH  19  20
BRANCH  19  22
HETATM   22  C9  UNL     1      60.111  45.381  36.796  1.00  0.00     0.267 C 
HETATM   23  N7  UNL     1      58.825  45.897  37.114  1.00  0.00    -0.059 NA
HETATM   24  O5  UNL     1      60.341  45.188  35.576  1.00  0.00    -0.274 OA
ENDBRANCH  19  22
ENDBRANCH  17  19
ENDBRANCH  16  17
ENDBRANCH  12  16
BRANCH   7  25
HETATM   25  N3  UNL     1      64.135  38.760  37.824  1.00  0.00    -0.291 N 
ATOM     26  H3  UNL     1      64.998  38.862  38.359  1.00  0.00     0.188 HD
BRANCH  25  27
HETATM   27  N4  UNL     1      63.955  37.644  37.018  1.00  0.00    -0.344 N 
ATOM     28  H42 UNL     1      63.060  37.156  37.053  1.00  0.00     0.176 HD
ATOM     29  H41 UNL     1      64.702  37.318  36.405  1.00  0.00     0.176 HD
ENDBRANCH  25  27
ENDBRANCH   7  25
BRANCH   1  30
HETATM   30  N1  UNL     1      60.232  40.123  42.314  1.00  0.00    -0.234 N 
ATOM     31  H12 UNL     1      59.955  39.275  42.807  1.00  0.00     0.174 HD
ATOM     32  H11 UNL     1      59.972  41.059  42.621  1.00  0.00     0.174 HD
ENDBRANCH   1  30
TORSDOF 8
ENDMDL
MODEL 4
REMARK VINA RESULT: -7.333679353      1.581      3.767
REMARK  8 active torsions:
REMARK  status: ('A' for Active; 'I' for Inactive)
REMARK    1  A    between atoms: N1_1  and  C1_4 
REMARK    2  A    between atoms: C4_10  and  N3_11 
REMARK    3  A    between atoms: N3_11  and  N4_13 
REMARK    4  A    between atoms: N6_20  and  C6_21 
REMARK    5  A    between atoms: C6_21  and  C7_22 
REMARK    6  A    between atoms: C7_22  and  C8_24 
REMARK    7  A    between atoms: C8_24  and  O4_25 
REMARK    8  A    between atoms: C8_24  and  C9_27 
ROOT
HETATM    1  C1  UNL     1      60.960  40.058  41.178  1.00  0.00     0.680 A 
HETATM    2  N2  UNL     1      61.891  39.095  41.179  1.00  0.00    -0.155 N 
ATOM      3  H2  UNL     1      62.015  38.491  41.991  1.00  0.00     0.187 HD
HETATM    4  C2  UNL     1      62.655  38.943  40.090  1.00  0.00     0.277 A 
HETATM    5  O1  UNL     1      63.559  38.053  40.016  1.00  0.00    -0.266 OA
HETATM    6  C3  UNL     1      62.470  39.772  38.998  1.00  0.00     0.123 A 
HETATM    7  C4  UNL     1      63.251  39.626  37.870  1.00  0.00     0.143 A 
HETATM    8  N5  UNL     1      63.019  40.466  36.846  1.00  0.00    -0.292 N 
ATOM      9  H5  UNL     1      63.581  40.383  35.998  1.00  0.00     0.172 HD
HETATM   10  C5  UNL     1      62.067  41.412  36.910  1.00  0.00     0.330 A 
HETATM   11  O2  UNL     1      61.893  42.179  35.907  1.00  0.00    -0.246 OA
HETATM   12  N6  UNL     1      61.274  41.592  37.999  1.00  0.00    -0.277 N 
HETATM   13  C10 UNL     1      61.492  40.767  39.023  1.00  0.00     0.147 A 
HETATM   14  N8  UNL     1      60.751  40.881  40.136  1.00  0.00    -0.175 N 
ATOM     15  H8  UNL     1      60.026  41.597  40.192  1.00  0.00     0.186 HD
ENDROOT
BRANCH  12  16
HETATM   16  C6  UNL     1      60.280  42.632  37.980  1.00  0.00     0.217 C 
BRANCH  16  17
HETATM   17  C7  UNL     1      60.786  43.901  38.569  1.00  0.00     0.182 C 
HETATM   18  O3  UNL     1      61.130  43.922  39.761  1.00  0.00    -0.293 OA
BRANCH  17  19
HETATM   19  C8  UNL     1      60.892  45.134  37.770  1.00  0.00     0.278 C 
BRANCH  19  20
HETATM   20  O4  UNL     1      60.483  46.247  38.521  1.00  0.00    -0.379 OA
ATOM     21  H4  UNL     1      61.161  46.911  38.531  1.00  0.00     0.211 HD
ENDBRANCH  19  20
BRANCH  19  22
HETATM   22  C9  UNL     1      62.210  45.391  37.182  1.00  0.00     0.267 C 
HETATM   23  N7  UNL     1      62.406  46.561  36.399  1.00  0.00    -0.059 NA
HETATM   24  O5  UNL     1      63.211  44.644  37.315  1.00  0.00    -0.274 OA
ENDBRANCH  19  22
ENDBRANCH  17  19
ENDBRANCH  16  17
ENDBRANCH  12  16
BRANCH   7  25
HETATM   25  N3  UNL     1      64.173  38.703  37.823  1.00  0.00    -0.291 N 
ATOM     26  H3  UNL     1      65.026  38.813  38.372  1.00  0.00     0.188 HD
BRANCH  25  27
HETATM   27  N4  UNL     1      64.006  37.573  37.034  1.00  0.00    -0.344 N 
ATOM     28  H42 UNL     1      63.140  37.470  36.505  1.00  0.00     0.176 HD
ATOM     29  H41 UNL     1      64.734  36.860  36.984  1.00  0.00     0.176 HD
ENDBRANCH  25  27
ENDBRANCH   7  25
BRANCH   1  30
HETATM   30  N1  UNL     1      60.232  40.190  42.238  1.00  0.00    -0.234 N 
ATOM     31  H12 UNL     1      60.078  41.122  42.621  1.00  0.00     0.174 HD
ATOM     32  H11 UNL     1      59.837  39.344  42.649  1.00  0.00     0.174 HD
ENDBRANCH   1  30
TORSDOF 8
ENDMDL
MODEL 5
REMARK VINA RESULT: -7.303589674      1.594      1.764
REMARK  8 active torsions:
REMARK  status: ('A' for Active; 'I' for Inactive)
REMARK    1  A    between atoms: N1_1  and  C1_4 
REMARK    2  A    between atoms: C4_10  and  N3_11 
REMARK    3  A    between atoms: N3_11  and  N4_13 
REMARK    4  A    between atoms: N6_20  and  C6_21 
REMARK    5  A    between atoms: C6_21  and  C7_22 
REMARK    6  A    between atoms: C7_22  and  C8_24 
REMARK    7  A    between atoms: C8_24  and  O4_25 
REMARK    8  A    between atoms: C8_24  and  C9_27 
ROOT
HETATM    1  C1  UNL     1      63.478  38.429  37.941  1.00  0.00     0.680 A 
HETATM    2  N2  UNL     1      63.804  37.946  39.148  1.00  0.00    -0.155 N 
ATOM      3  H2  UNL     1      64.454  37.165  39.239  1.00  0.00     0.187 HD
HETATM    4  C2  UNL     1      63.257  38.511  40.231  1.00  0.00     0.277 A 
HETATM    5  O1  UNL     1      63.516  38.109  41.409  1.00  0.00    -0.266 OA
HETATM    6  C3  UNL     1      62.378  39.570  40.086  1.00  0.00     0.123 A 
HETATM    7  C4  UNL     1      61.808  40.161  41.195  1.00  0.00     0.143 A 
HETATM    8  N5  UNL     1      60.962  41.184  40.982  1.00  0.00    -0.292 N 
ATOM      9  H5  UNL     1      60.523  41.642  41.782  1.00  0.00     0.172 HD
HETATM   10  C5  UNL     1      60.679  41.621  39.742  1.00  0.00     0.330 A 
HETATM   11  O2  UNL     1      59.869  42.595  39.603  1.00  0.00    -0.246 OA
HETATM   12  N6  UNL     1      61.217  41.071  38.623  1.00  0.00    -0.277 N 
HETATM   13  C10 UNL     1      62.057  40.054  38.818  1.00  0.00     0.147 A 
HETATM   14  N8  UNL     1      62.630  39.455  37.762  1.00  0.00    -0.175 N 
ATOM     15  H8  UNL     1      62.420  39.781  36.818  1.00  0.00     0.186 HD
ENDROOT
BRANCH  12  16
HETATM   16  C6  UNL     1      60.855  41.602  37.335  1.00  0.00     0.217 C 
BRANCH  16  17
HETATM   17  C7  UNL     1      61.907  42.499  36.785  1.00  0.00     0.182 C 
HETATM   18  O3  UNL     1      63.072  42.396  37.202  1.00  0.00    -0.293 OA
BRANCH  17  19
HETATM   19  C8  UNL     1      61.599  43.507  35.756  1.00  0.00     0.278 C 
BRANCH  19  20
HETATM   20  O4  UNL     1      62.743  43.807  34.999  1.00  0.00    -0.379 OA
ATOM     21  H4  UNL     1      62.544  43.790  34.071  1.00  0.00     0.211 HD
ENDBRANCH  19  20
BRANCH  19  22
HETATM   22  C9  UNL     1      60.488  43.171  34.861  1.00  0.00     0.267 C 
HETATM   23  N7  UNL     1      60.476  41.908  34.211  1.00  0.00    -0.059 NA
HETATM   24  O5  UNL     1      59.516  43.928  34.612  1.00  0.00    -0.274 OA
ENDBRANCH  19  22
ENDBRANCH  17  19
ENDBRANCH  16  17
ENDBRANCH  12  16
BRANCH   7  25
HETATM   25  N3  UNL     1      62.092  39.726  42.393  1.00  0.00    -0.291 N 
ATOM     26  H3  UNL     1      63.011  39.914  42.793  1.00  0.00     0.188 HD
BRANCH  25  27
HETATM   27  N4  UNL     1      61.158  39.009  43.127  1.00  0.00    -0.344 N 
ATOM     28  H42 UNL     1      60.241  38.836  42.715  1.00  0.00     0.176 HD
ATOM     29  H41 UNL     1      61.383  38.663  44.060  1.00  0.00     0.176 HD
ENDBRANCH  25  27
ENDBRANCH   7  25
BRANCH   1  30
HETATM   30  N1  UNL     1      64.016  37.870  36.907  1.00  0.00    -0.234 N 
ATOM     31  H12 UNL     1      63.452  37.246  36.331  1.00  0.00     0.174 HD
ATOM     32  H11 UNL     1      64.994  38.082  36.710  1.00  0.00     0.174 HD
ENDBRANCH   1  30
TORSDOF 8
ENDMDL
