MODEL 1
REMARK VINA RESULT: -6.587962047      0.000      0.000
REMARK  20 active torsions:
REMARK  status: ('A' for Active; 'I' for Inactive)
REMARK    1  A    between atoms: C2_2  and  C15_42 
REMARK    2  A    between atoms: C5_5  and  O1_6 
REMARK    3  A    between atoms: C5_5  and  C6_8 
REMARK    4  A    between atoms: C8_13  and  C9_14 
REMARK    5  A    between atoms: C9_14  and  N1_15 
REMARK    6  A    between atoms: C9_14  and  C13_31 
REMARK    7  A    between atoms: N1_15  and  O5_16 
REMARK    8  A    between atoms: O5_16  and  C10_17 
REMARK    9  A    between atoms: C10_17  and  N4_25 
REMARK   10  A    between atoms: N2_18  and  C11_20 
REMARK   11  A    between atoms: C12_21  and  N3_22 
REMARK   12  A    between atoms: N4_25  and  N5_27 
REMARK   13  A    between atoms: N5_27  and  N6_28 
REMARK   14  A    between atoms: C13_31  and  O6_32 
REMARK   15  A    between atoms: C13_31  and  C14_34 
REMARK   16  A    between atoms: C14_34  and  N7_35 
REMARK   17  A    between atoms: C14_34  and  O7_39 
REMARK   18  A    between atoms: C15_42  and  O9_43 
REMARK   19  A    between atoms: C15_42  and  C16_45 
REMARK   20  A    between atoms: C16_45  and  O10_46 
ROOT
HETATM    1  C9  UNL     1      61.505  41.659  37.999  1.00  0.00     0.165 C 
ENDROOT
BRANCH   1   2
HETATM    2  C8  UNL     1      60.533  42.646  38.523  1.00  0.00     0.267 C 
HETATM    3  C7  UNL     1      60.751  43.114  39.890  1.00  0.00     0.208 C 
HETATM    4  C5  UNL     1      59.636  43.851  40.536  1.00  0.00     0.215 C 
HETATM    5  O4  UNL     1      61.764  42.935  40.500  1.00  0.00    -0.291 OA
HETATM    6  C4  UNL     1      59.299  45.008  39.647  1.00  0.00     0.122 C 
HETATM    7  C3  UNL     1      60.128  45.011  38.410  1.00  0.00     0.056 C 
HETATM    8  C2  UNL     1      60.527  46.206  37.958  1.00  0.00    -0.024 C 
HETATM    9  O8  UNL     1      60.494  43.844  37.725  1.00  0.00    -0.335 OA
HETATM   10  C1  UNL     1      60.158  47.447  38.660  1.00  0.00     0.049 C 
BRANCH   4  11
HETATM   11  O1  UNL     1      58.530  42.977  40.567  1.00  0.00    -0.372 OA
ATOM     12  H1  UNL     1      57.874  43.344  41.148  1.00  0.00     0.211 HD
ENDBRANCH   4  11
BRANCH   4  13
HETATM   13  C6  UNL     1      59.934  44.266  41.901  1.00  0.00     0.217 C 
HETATM   14  O2  UNL     1      60.334  45.424  42.119  1.00  0.00    -0.645 OA
HETATM   15  O3  UNL     1      59.784  43.403  42.958  1.00  0.00    -0.645 OA
ENDBRANCH   4  13
BRANCH   8  16
HETATM   16  C15 UNL     1      61.343  46.295  36.743  1.00  0.00     0.172 C 
BRANCH  16  17
HETATM   17  O9  UNL     1      62.674  46.053  37.075  1.00  0.00    -0.389 OA
ATOM     18  H9  UNL     1      62.704  45.447  37.806  1.00  0.00     0.210 HD
ENDBRANCH  16  17
BRANCH  16  19
HETATM   19  C16 UNL     1      61.276  47.670  36.113  1.00  0.00     0.200 C 
BRANCH  19  20
HETATM   20  O10 UNL     1      62.504  48.247  35.932  1.00  0.00    -0.398 OA
ATOM     21  H10 UNL     1      63.138  47.666  35.529  1.00  0.00     0.209 HD
ENDBRANCH  19  20
ENDBRANCH  16  19
ENDBRANCH   8  16
ENDBRANCH   1   2
BRANCH   1  22
HETATM   22  N1  UNL     1      61.781  40.706  38.734  1.00  0.00    -0.276 NA
BRANCH  22  23
HETATM   23  O5  UNL     1      62.325  39.692  39.218  1.00  0.00    -0.126 OA
BRANCH  23  24
HETATM   24  C10 UNL     1      62.969  39.586  40.455  1.00  0.00     0.283 C 
HETATM   25  N2  UNL     1      63.947  38.780  40.499  1.00  0.00    -0.276 N 
ATOM     26  H2  UNL     1      64.438  38.681  41.387  1.00  0.00     0.180 HD
BRANCH  25  27
HETATM   27  C11 UNL     1      64.396  38.026  39.433  1.00  0.00     0.036 C 
HETATM   28  C12 UNL     1      64.823  37.359  38.497  1.00  0.00     0.027 C 
BRANCH  28  29
HETATM   29  N3  UNL     1      65.323  36.575  37.437  1.00  0.00    -0.358 N 
ATOM     30  H32 UNL     1      65.598  37.422  37.935  1.00  0.00     0.166 HD
ATOM     31  H31 UNL     1      65.669  35.996  36.672  1.00  0.00     0.166 HD
ENDBRANCH  28  29
ENDBRANCH  25  27
BRANCH  24  32
HETATM   32  N4  UNL     1      62.606  40.299  41.619  1.00  0.00    -0.246 N 
ATOM     33  H4  UNL     1      63.210  41.037  41.979  1.00  0.00     0.188 HD
BRANCH  32  34
HETATM   34  N5  UNL     1      61.420  39.985  42.271  1.00  0.00    -0.027 NA
BRANCH  34  35
HETATM   35  N6  UNL     1      60.278  40.506  41.659  1.00  0.00    -0.329 N 
ATOM     36  H62 UNL     1      60.321  41.021  40.779  1.00  0.00     0.174 HD
ATOM     37  H61 UNL     1      59.413  40.326  42.169  1.00  0.00     0.174 HD
ENDBRANCH  34  35
ENDBRANCH  32  34
ENDBRANCH  24  32
ENDBRANCH  23  24
ENDBRANCH  22  23
ENDBRANCH   1  22
BRANCH   1  38
HETATM   38  C13 UNL     1      62.144  41.741  36.673  1.00  0.00     0.239 C 
BRANCH  38  39
HETATM   39  O6  UNL     1      61.201  41.945  35.685  1.00  0.00    -0.384 OA
ATOM     40  H6  UNL     1      61.215  41.235  35.054  1.00  0.00     0.210 HD
ENDBRANCH  38  39
BRANCH  38  41
HETATM   41  C14 UNL     1      63.338  42.648  36.582  1.00  0.00     0.352 C 
BRANCH  41  42
HETATM   42  N7  UNL     1      63.548  43.460  37.764  1.00  0.00    -0.050 N 
ATOM     43  H73 UNL     1      62.710  43.999  37.984  1.00  0.00     0.277 HD
ATOM     44  H72 UNL     1      63.599  42.874  38.597  1.00  0.00     0.277 HD
ATOM     45  H71 UNL     1      64.362  44.072  37.704  1.00  0.00     0.277 HD
ENDBRANCH  41  42
BRANCH  41  46
HETATM   46  O7  UNL     1      63.229  43.535  35.498  1.00  0.00    -0.368 OA
ATOM     47  H7  UNL     1      63.754  43.251  34.760  1.00  0.00     0.212 HD
ENDBRANCH  41  46
ENDBRANCH  38  41
ENDBRANCH   1  38
TORSDOF 20
ENDMDL
MODEL 2
REMARK VINA RESULT: -6.523951746      2.506      5.014
REMARK  20 active torsions:
REMARK  status: ('A' for Active; 'I' for Inactive)
REMARK    1  A    between atoms: C2_2  and  C15_42 
REMARK    2  A    between atoms: C5_5  and  O1_6 
REMARK    3  A    between atoms: C5_5  and  C6_8 
REMARK    4  A    between atoms: C8_13  and  C9_14 
REMARK    5  A    between atoms: C9_14  and  N1_15 
REMARK    6  A    between atoms: C9_14  and  C13_31 
REMARK    7  A    between atoms: N1_15  and  O5_16 
REMARK    8  A    between atoms: O5_16  and  C10_17 
REMARK    9  A    between atoms: C10_17  and  N4_25 
REMARK   10  A    between atoms: N2_18  and  C11_20 
REMARK   11  A    between atoms: C12_21  and  N3_22 
REMARK   12  A    between atoms: N4_25  and  N5_27 
REMARK   13  A    between atoms: N5_27  and  N6_28 
REMARK   14  A    between atoms: C13_31  and  O6_32 
REMARK   15  A    between atoms: C13_31  and  C14_34 
REMARK   16  A    between atoms: C14_34  and  N7_35 
REMARK   17  A    between atoms: C14_34  and  O7_39 
REMARK   18  A    between atoms: C15_42  and  O9_43 
REMARK   19  A    between atoms: C15_42  and  C16_45 
REMARK   20  A    between atoms: C16_45  and  O10_46 
ROOT
HETATM    1  C9  UNL     1      61.880  44.652  37.906  1.00  0.00     0.165 C 
ENDROOT
BRANCH   1   2
HETATM    2  C8  UNL     1      60.735  45.242  38.635  1.00  0.00     0.267 C 
HETATM    3  C7  UNL     1      59.544  45.546  37.845  1.00  0.00     0.208 C 
HETATM    4  C5  UNL     1      58.516  46.410  38.479  1.00  0.00     0.215 C 
HETATM    5  O4  UNL     1      59.362  45.141  36.735  1.00  0.00    -0.291 OA
HETATM    6  C4  UNL     1      58.122  45.753  39.765  1.00  0.00     0.122 C 
HETATM    7  C3  UNL     1      58.907  44.514  40.014  1.00  0.00     0.056 C 
HETATM    8  C2  UNL     1      58.251  43.489  40.572  1.00  0.00    -0.024 C 
HETATM    9  O8  UNL     1      60.265  44.384  39.693  1.00  0.00    -0.335 OA
HETATM   10  C1  UNL     1      56.823  43.598  40.917  1.00  0.00     0.049 C 
BRANCH   4  11
HETATM   11  O1  UNL     1      59.141  47.638  38.780  1.00  0.00    -0.372 OA
ATOM     12  H1  UNL     1      58.864  48.281  38.137  1.00  0.00     0.211 HD
ENDBRANCH   4  11
BRANCH   4  13
HETATM   13  C6  UNL     1      57.372  46.674  37.614  1.00  0.00     0.217 C 
HETATM   14  O2  UNL     1      57.465  47.530  36.716  1.00  0.00    -0.645 OA
HETATM   15  O3  UNL     1      56.190  45.995  37.769  1.00  0.00    -0.645 OA
ENDBRANCH   4  13
BRANCH   8  16
HETATM   16  C15 UNL     1      58.954  42.234  40.853  1.00  0.00     0.172 C 
BRANCH  16  17
HETATM   17  O9  UNL     1      59.551  41.779  39.679  1.00  0.00    -0.389 OA
ATOM     18  H9  UNL     1      58.891  41.730  38.998  1.00  0.00     0.210 HD
ENDBRANCH  16  17
BRANCH  16  19
HETATM   19  C16 UNL     1      58.011  41.149  41.332  1.00  0.00     0.200 C 
BRANCH  19  20
HETATM   20  O10 UNL     1      57.507  40.380  40.318  1.00  0.00    -0.398 OA
ATOM     21  H10 UNL     1      56.803  39.805  40.595  1.00  0.00     0.209 HD
ENDBRANCH  19  20
ENDBRANCH  16  19
ENDBRANCH   8  16
ENDBRANCH   1   2
BRANCH   1  22
HETATM   22  N1  UNL     1      62.133  43.465  38.133  1.00  0.00    -0.276 NA
BRANCH  22  23
HETATM   23  O5  UNL     1      62.098  42.217  38.135  1.00  0.00    -0.126 OA
BRANCH  23  24
HETATM   24  C10 UNL     1      62.639  41.355  37.176  1.00  0.00     0.283 C 
HETATM   25  N2  UNL     1      62.954  40.198  37.592  1.00  0.00    -0.276 N 
ATOM     26  H2  UNL     1      63.351  39.546  36.917  1.00  0.00     0.180 HD
BRANCH  25  27
HETATM   27  C11 UNL     1      62.799  39.759  38.891  1.00  0.00     0.036 C 
HETATM   28  C12 UNL     1      62.687  39.352  40.043  1.00  0.00     0.027 C 
BRANCH  28  29
HETATM   29  N3  UNL     1      62.579  38.895  41.373  1.00  0.00    -0.358 N 
ATOM     30  H32 UNL     1      62.788  39.774  40.898  1.00  0.00     0.166 HD
ATOM     31  H31 UNL     1      62.498  38.548  42.328  1.00  0.00     0.166 HD
ENDBRANCH  28  29
ENDBRANCH  25  27
BRANCH  24  32
HETATM   32  N4  UNL     1      62.851  41.684  35.819  1.00  0.00    -0.246 N 
ATOM     33  H4  UNL     1      63.796  41.703  35.436  1.00  0.00     0.188 HD
BRANCH  32  34
HETATM   34  N5  UNL     1      61.762  41.982  35.010  1.00  0.00    -0.027 NA
BRANCH  34  35
HETATM   35  N6  UNL     1      60.601  42.308  35.713  1.00  0.00    -0.329 N 
ATOM     36  H62 UNL     1      60.482  42.077  36.699  1.00  0.00     0.174 HD
ATOM     37  H61 UNL     1      59.897  42.790  35.154  1.00  0.00     0.174 HD
ENDBRANCH  34  35
ENDBRANCH  32  34
ENDBRANCH  24  32
ENDBRANCH  23  24
ENDBRANCH  22  23
ENDBRANCH   1  22
BRANCH   1  38
HETATM   38  C13 UNL     1      62.715  45.382  36.935  1.00  0.00     0.239 C 
BRANCH  38  39
HETATM   39  O6  UNL     1      62.706  44.753  35.707  1.00  0.00    -0.384 OA
ATOM     40  H6  UNL     1      63.157  45.277  35.055  1.00  0.00     0.210 HD
ENDBRANCH  38  39
BRANCH  38  41
HETATM   41  C14 UNL     1      62.488  46.866  36.869  1.00  0.00     0.352 C 
BRANCH  41  42
HETATM   42  N7  UNL     1      61.477  47.260  35.908  1.00  0.00    -0.050 N 
ATOM     43  H73 UNL     1      61.669  48.195  35.547  1.00  0.00     0.277 HD
ATOM     44  H72 UNL     1      61.570  46.722  35.047  1.00  0.00     0.277 HD
ATOM     45  H71 UNL     1      60.524  47.203  36.266  1.00  0.00     0.277 HD
ENDBRANCH  41  42
BRANCH  41  46
HETATM   46  O7  UNL     1      63.664  47.552  36.520  1.00  0.00    -0.368 OA
ATOM     47  H7  UNL     1      63.760  48.354  37.019  1.00  0.00     0.212 HD
ENDBRANCH  41  46
ENDBRANCH  38  41
ENDBRANCH   1  38
TORSDOF 20
ENDMDL
MODEL 3
REMARK VINA RESULT: -6.503195671      1.990      4.176
REMARK  20 active torsions:
REMARK  status: ('A' for Active; 'I' for Inactive)
REMARK    1  A    between atoms: C2_2  and  C15_42 
REMARK    2  A    between atoms: C5_5  and  O1_6 
REMARK    3  A    between atoms: C5_5  and  C6_8 
REMARK    4  A    between atoms: C8_13  and  C9_14 
REMARK    5  A    between atoms: C9_14  and  N1_15 
REMARK    6  A    between atoms: C9_14  and  C13_31 
REMARK    7  A    between atoms: N1_15  and  O5_16 
REMARK    8  A    between atoms: O5_16  and  C10_17 
REMARK    9  A    between atoms: C10_17  and  N4_25 
REMARK   10  A    between atoms: N2_18  and  C11_20 
REMARK   11  A    between atoms: C12_21  and  N3_22 
REMARK   12  A    between atoms: N4_25  and  N5_27 
REMARK   13  A    between atoms: N5_27  and  N6_28 
REMARK   14  A    between atoms: C13_31  and  O6_32 
REMARK   15  A    between atoms: C13_31  and  C14_34 
REMARK   16  A    between atoms: C14_34  and  N7_35 
REMARK   17  A    between atoms: C14_34  and  O7_39 
REMARK   18  A    between atoms: C15_42  and  O9_43 
REMARK   19  A    between atoms: C15_42  and  C16_45 
REMARK   20  A    between atoms: C16_45  and  O10_46 
ROOT
HETATM    1  C9  UNL     1      61.731  43.240  38.066  1.00  0.00     0.165 C 
ENDROOT
BRANCH   1   2
HETATM    2  C8  UNL     1      60.988  44.395  38.617  1.00  0.00     0.267 C 
HETATM    3  C7  UNL     1      60.264  45.224  37.656  1.00  0.00     0.208 C 
HETATM    4  C5  UNL     1      59.778  46.543  38.136  1.00  0.00     0.215 C 
HETATM    5  O4  UNL     1      60.049  44.898  36.527  1.00  0.00    -0.291 OA
HETATM    6  C4  UNL     1      58.922  46.286  39.337  1.00  0.00     0.122 C 
HETATM    7  C3  UNL     1      58.885  44.840  39.688  1.00  0.00     0.056 C 
HETATM    8  C2  UNL     1      57.714  44.359  40.125  1.00  0.00    -0.024 C 
HETATM    9  O8  UNL     1      59.994  43.992  39.579  1.00  0.00    -0.335 OA
HETATM   10  C1  UNL     1      56.532  45.229  40.247  1.00  0.00     0.049 C 
BRANCH   4  11
HETATM   11  O1  UNL     1      60.911  47.274  38.545  1.00  0.00    -0.372 OA
ATOM     12  H1  UNL     1      61.328  47.638  37.773  1.00  0.00     0.211 HD
ENDBRANCH   4  11
BRANCH   4  13
HETATM   13  C6  UNL     1      59.081  47.308  37.108  1.00  0.00     0.217 C 
HETATM   14  O2  UNL     1      59.727  48.060  36.357  1.00  0.00    -0.645 OA
HETATM   15  O3  UNL     1      57.721  47.215  36.950  1.00  0.00    -0.645 OA
ENDBRANCH   4  13
BRANCH   8  16
HETATM   16  C15 UNL     1      57.595  42.945  40.495  1.00  0.00     0.172 C 
BRANCH  16  17
HETATM   17  O9  UNL     1      56.325  42.493  40.145  1.00  0.00    -0.389 OA
ATOM     18  H9  UNL     1      56.232  41.591  40.428  1.00  0.00     0.210 HD
ENDBRANCH  16  17
BRANCH  16  19
HETATM   19  C16 UNL     1      57.758  42.732  41.986  1.00  0.00     0.200 C 
BRANCH  19  20
HETATM   20  O10 UNL     1      59.059  42.791  42.406  1.00  0.00    -0.398 OA
ATOM     21  H10 UNL     1      59.150  43.039  43.318  1.00  0.00     0.209 HD
ENDBRANCH  19  20
ENDBRANCH  16  19
ENDBRANCH   8  16
ENDBRANCH   1   2
BRANCH   1  22
HETATM   22  N1  UNL     1      61.492  42.135  38.562  1.00  0.00    -0.276 NA
BRANCH  22  23
HETATM   23  O5  UNL     1      61.472  40.907  38.785  1.00  0.00    -0.126 OA
BRANCH  23  24
HETATM   24  C10 UNL     1      61.676  40.266  40.011  1.00  0.00     0.283 C 
HETATM   25  N2  UNL     1      62.591  39.386  40.026  1.00  0.00    -0.276 N 
ATOM     26  H2  UNL     1      62.765  38.902  40.906  1.00  0.00     0.180 HD
BRANCH  25  27
HETATM   27  C11 UNL     1      63.367  39.038  38.940  1.00  0.00     0.036 C 
HETATM   28  C12 UNL     1      64.043  38.702  37.973  1.00  0.00     0.027 C 
BRANCH  28  29
HETATM   29  N3  UNL     1      64.799  38.313  36.847  1.00  0.00    -0.358 N 
ATOM     30  H32 UNL     1      64.348  37.855  37.640  1.00  0.00     0.166 HD
ATOM     31  H31 UNL     1      65.346  38.051  36.029  1.00  0.00     0.166 HD
ENDBRANCH  28  29
ENDBRANCH  25  27
BRANCH  24  32
HETATM   32  N4  UNL     1      60.949  40.529  41.192  1.00  0.00    -0.246 N 
ATOM     33  H4  UNL     1      60.039  40.094  41.344  1.00  0.00     0.188 HD
BRANCH  32  34
HETATM   34  N5  UNL     1      61.483  41.385  42.148  1.00  0.00    -0.027 NA
BRANCH  34  35
HETATM   35  N6  UNL     1      61.868  42.630  41.647  1.00  0.00    -0.329 N 
ATOM     36  H62 UNL     1      61.229  43.221  41.114  1.00  0.00     0.174 HD
ATOM     37  H61 UNL     1      62.832  42.885  41.861  1.00  0.00     0.174 HD
ENDBRANCH  34  35
ENDBRANCH  32  34
ENDBRANCH  24  32
ENDBRANCH  23  24
ENDBRANCH  22  23
ENDBRANCH   1  22
BRANCH   1  38
HETATM   38  C13 UNL     1      62.717  43.328  36.973  1.00  0.00     0.239 C 
BRANCH  38  39
HETATM   39  O6  UNL     1      64.004  43.348  37.472  1.00  0.00    -0.384 OA
ATOM     40  H6  UNL     1      64.421  42.501  37.364  1.00  0.00     0.210 HD
ENDBRANCH  38  39
BRANCH  38  41
HETATM   41  C14 UNL     1      62.513  42.369  35.835  1.00  0.00     0.352 C 
BRANCH  41  42
HETATM   42  N7  UNL     1      61.122  42.047  35.582  1.00  0.00    -0.050 N 
ATOM     43  H73 UNL     1      61.045  41.182  35.047  1.00  0.00     0.277 HD
ATOM     44  H72 UNL     1      60.659  41.757  36.444  1.00  0.00     0.277 HD
ATOM     45  H71 UNL     1      60.601  42.797  35.129  1.00  0.00     0.277 HD
ENDBRANCH  41  42
BRANCH  41  46
HETATM   46  O7  UNL     1      63.173  41.150  36.063  1.00  0.00    -0.368 OA
ATOM     47  H7  UNL     1      63.328  40.680  35.253  1.00  0.00     0.212 HD
ENDBRANCH  41  46
ENDBRANCH  38  41
ENDBRANCH   1  38
TORSDOF 20
ENDMDL
MODEL 4
REMARK VINA RESULT: -6.481823434      2.564      6.882
REMARK  20 active torsions:
REMARK  status: ('A' for Active; 'I' for Inactive)
REMARK    1  A    between atoms: C2_2  and  C15_42 
REMARK    2  A    between atoms: C5_5  and  O1_6 
REMARK    3  A    between atoms: C5_5  and  C6_8 
REMARK    4  A    between atoms: C8_13  and  C9_14 
REMARK    5  A    between atoms: C9_14  and  N1_15 
REMARK    6  A    between atoms: C9_14  and  C13_31 
REMARK    7  A    between atoms: N1_15  and  O5_16 
REMARK    8  A    between atoms: O5_16  and  C10_17 
REMARK    9  A    between atoms: C10_17  and  N4_25 
REMARK   10  A    between atoms: N2_18  and  C11_20 
REMARK   11  A    between atoms: C12_21  and  N3_22 
REMARK   12  A    between atoms: N4_25  and  N5_27 
REMARK   13  A    between atoms: N5_27  and  N6_28 
REMARK   14  A    between atoms: C13_31  and  O6_32 
REMARK   15  A    between atoms: C13_31  and  C14_34 
REMARK   16  A    between atoms: C14_34  and  N7_35 
REMARK   17  A    between atoms: C14_34  and  O7_39 
REMARK   18  A    between atoms: C15_42  and  O9_43 
REMARK   19  A    between atoms: C15_42  and  C16_45 
REMARK   20  A    between atoms: C16_45  and  O10_46 
ROOT
HETATM    1  C9  UNL     1      62.589  40.909  38.010  1.00  0.00     0.165 C 
ENDROOT
BRANCH   1   2
HETATM    2  C8  UNL     1      62.894  39.585  38.597  1.00  0.00     0.267 C 
HETATM    3  C7  UNL     1      64.307  39.273  38.805  1.00  0.00     0.208 C 
HETATM    4  C5  UNL     1      64.649  37.857  39.096  1.00  0.00     0.215 C 
HETATM    5  O4  UNL     1      65.181  40.086  38.754  1.00  0.00    -0.291 OA
HETATM    6  C4  UNL     1      63.852  37.450  40.296  1.00  0.00     0.122 C 
HETATM    7  C3  UNL     1      62.958  38.545  40.761  1.00  0.00     0.056 C 
HETATM    8  C2  UNL     1      62.813  38.679  42.085  1.00  0.00    -0.024 C 
HETATM    9  O8  UNL     1      62.285  39.412  39.891  1.00  0.00    -0.335 OA
HETATM   10  C1  UNL     1      63.510  37.783  43.022  1.00  0.00     0.049 C 
BRANCH   4  11
HETATM   11  O1  UNL     1      64.212  37.095  37.993  1.00  0.00    -0.372 OA
ATOM     12  H1  UNL     1      64.583  37.470  37.203  1.00  0.00     0.211 HD
ENDBRANCH   4  11
BRANCH   4  13
HETATM   13  C6  UNL     1      66.079  37.635  39.273  1.00  0.00     0.217 C 
HETATM   14  O2  UNL     1      66.549  37.540  40.421  1.00  0.00    -0.645 OA
HETATM   15  O3  UNL     1      66.923  37.528  38.196  1.00  0.00    -0.645 OA
ENDBRANCH   4  13
BRANCH   8  16
HETATM   16  C15 UNL     1      61.946  39.732  42.624  1.00  0.00     0.172 C 
BRANCH  16  17
HETATM   17  O9  UNL     1      60.819  39.847  41.812  1.00  0.00    -0.389 OA
ATOM     18  H9  UNL     1      60.831  40.697  41.389  1.00  0.00     0.210 HD
ENDBRANCH  16  17
BRANCH  16  19
HETATM   19  C16 UNL     1      62.632  41.082  42.640  1.00  0.00     0.200 C 
BRANCH  19  20
HETATM   20  O10 UNL     1      62.268  41.890  41.598  1.00  0.00    -0.398 OA
ATOM     21  H10 UNL     1      62.958  42.014  40.957  1.00  0.00     0.209 HD
ENDBRANCH  19  20
ENDBRANCH  16  19
ENDBRANCH   8  16
ENDBRANCH   1   2
BRANCH   1  22
HETATM   22  N1  UNL     1      61.548  41.457  38.382  1.00  0.00    -0.276 NA
BRANCH  22  23
HETATM   23  O5  UNL     1      60.464  42.076  38.392  1.00  0.00    -0.126 OA
BRANCH  23  24
HETATM   24  C10 UNL     1      59.884  42.749  39.473  1.00  0.00     0.283 C 
HETATM   25  N2  UNL     1      59.720  43.997  39.318  1.00  0.00    -0.276 N 
ATOM     26  H2  UNL     1      59.298  44.517  40.088  1.00  0.00     0.180 HD
BRANCH  25  27
HETATM   27  C11 UNL     1      60.068  44.704  38.185  1.00  0.00     0.036 C 
HETATM   28  C12 UNL     1      60.388  45.355  37.195  1.00  0.00     0.027 C 
BRANCH  28  29
HETATM   29  N3  UNL     1      60.781  46.101  36.065  1.00  0.00    -0.358 N 
ATOM     30  H32 UNL     1      60.168  45.309  36.263  1.00  0.00     0.166 HD
ATOM     31  H31 UNL     1      61.075  46.651  35.259  1.00  0.00     0.166 HD
ENDBRANCH  28  29
ENDBRANCH  25  27
BRANCH  24  32
HETATM   32  N4  UNL     1      59.487  42.143  40.685  1.00  0.00    -0.246 N 
ATOM     33  H4  UNL     1      59.168  41.174  40.695  1.00  0.00     0.188 HD
BRANCH  32  34
HETATM   34  N5  UNL     1      59.534  42.876  41.864  1.00  0.00    -0.027 NA
BRANCH  34  35
HETATM   35  N6  UNL     1      59.277  42.125  43.013  1.00  0.00    -0.329 N 
ATOM     36  H62 UNL     1      59.328  41.106  43.017  1.00  0.00     0.174 HD
ATOM     37  H61 UNL     1      59.037  42.685  43.831  1.00  0.00     0.174 HD
ENDBRANCH  34  35
ENDBRANCH  32  34
ENDBRANCH  24  32
ENDBRANCH  23  24
ENDBRANCH  22  23
ENDBRANCH   1  22
BRANCH   1  38
HETATM   38  C13 UNL     1      63.445  41.603  37.029  1.00  0.00     0.239 C 
BRANCH  38  39
HETATM   39  O6  UNL     1      63.399  40.970  35.803  1.00  0.00    -0.384 OA
ATOM     40  H6  UNL     1      62.917  41.492  35.172  1.00  0.00     0.210 HD
ENDBRANCH  38  39
BRANCH  38  41
HETATM   41  C14 UNL     1      63.276  43.093  36.960  1.00  0.00     0.352 C 
BRANCH  41  42
HETATM   42  N7  UNL     1      63.305  43.624  35.611  1.00  0.00    -0.050 N 
ATOM     43  H73 UNL     1      63.721  42.950  34.968  1.00  0.00     0.277 HD
ATOM     44  H72 UNL     1      62.362  43.672  35.224  1.00  0.00     0.277 HD
ATOM     45  H71 UNL     1      63.772  44.528  35.534  1.00  0.00     0.277 HD
ENDBRANCH  41  42
BRANCH  41  46
HETATM   46  O7  UNL     1      64.285  43.760  37.675  1.00  0.00    -0.368 OA
ATOM     47  H7  UNL     1      63.983  44.598  38.005  1.00  0.00     0.212 HD
ENDBRANCH  41  46
ENDBRANCH  38  41
ENDBRANCH   1  38
TORSDOF 20
ENDMDL
MODEL 5
REMARK VINA RESULT: -6.480962962      1.961      4.619
REMARK  20 active torsions:
REMARK  status: ('A' for Active; 'I' for Inactive)
REMARK    1  A    between atoms: C2_2  and  C15_42 
REMARK    2  A    between atoms: C5_5  and  O1_6 
REMARK    3  A    between atoms: C5_5  and  C6_8 
REMARK    4  A    between atoms: C8_13  and  C9_14 
REMARK    5  A    between atoms: C9_14  and  N1_15 
REMARK    6  A    between atoms: C9_14  and  C13_31 
REMARK    7  A    between atoms: N1_15  and  O5_16 
REMARK    8  A    between atoms: O5_16  and  C10_17 
REMARK    9  A    between atoms: C10_17  and  N4_25 
REMARK   10  A    between atoms: N2_18  and  C11_20 
REMARK   11  A    between atoms: C12_21  and  N3_22 
REMARK   12  A    between atoms: N4_25  and  N5_27 
REMARK   13  A    between atoms: N5_27  and  N6_28 
REMARK   14  A    between atoms: C13_31  and  O6_32 
REMARK   15  A    between atoms: C13_31  and  C14_34 
REMARK   16  A    between atoms: C14_34  and  N7_35 
REMARK   17  A    between atoms: C14_34  and  O7_39 
REMARK   18  A    between atoms: C15_42  and  O9_43 
REMARK   19  A    between atoms: C15_42  and  C16_45 
REMARK   20  A    between atoms: C16_45  and  O10_46 
ROOT
HETATM    1  C9  UNL     1      61.607  43.036  37.348  1.00  0.00     0.165 C 
ENDROOT
BRANCH   1   2
HETATM    2  C8  UNL     1      61.424  44.313  38.074  1.00  0.00     0.267 C 
HETATM    3  C7  UNL     1      60.541  45.297  37.451  1.00  0.00     0.208 C 
HETATM    4  C5  UNL     1      60.586  46.680  37.991  1.00  0.00     0.215 C 
HETATM    5  O4  UNL     1      59.800  45.047  36.548  1.00  0.00    -0.291 OA
HETATM    6  C4  UNL     1      60.299  46.589  39.458  1.00  0.00     0.122 C 
HETATM    7  C3  UNL     1      60.124  45.178  39.899  1.00  0.00     0.056 C 
HETATM    8  C2  UNL     1      59.186  44.951  40.826  1.00  0.00    -0.024 C 
HETATM    9  O8  UNL     1      60.882  44.114  39.393  1.00  0.00    -0.335 OA
HETATM   10  C1  UNL     1      58.374  46.052  41.373  1.00  0.00     0.049 C 
BRANCH   4  11
HETATM   11  O1  UNL     1      61.907  47.143  37.825  1.00  0.00    -0.372 OA
ATOM     12  H1  UNL     1      62.293  46.689  37.084  1.00  0.00     0.211 HD
ENDBRANCH   4  11
BRANCH   4  13
HETATM   13  C6  UNL     1      59.686  47.596  37.302  1.00  0.00     0.217 C 
HETATM   14  O2  UNL     1      58.607  47.915  37.834  1.00  0.00    -0.645 OA
HETATM   15  O3  UNL     1      60.003  48.118  36.073  1.00  0.00    -0.645 OA
ENDBRANCH   4  13
BRANCH   8  16
HETATM   16  C15 UNL     1      58.955  43.589  41.316  1.00  0.00     0.172 C 
BRANCH  16  17
HETATM   17  O9  UNL     1      60.174  43.033  41.695  1.00  0.00    -0.389 OA
ATOM     18  H9  UNL     1      60.012  42.218  42.154  1.00  0.00     0.210 HD
ENDBRANCH  16  17
BRANCH  16  19
HETATM   19  C16 UNL     1      58.361  42.694  40.249  1.00  0.00     0.200 C 
BRANCH  19  20
HETATM   20  O10 UNL     1      59.156  41.627  39.928  1.00  0.00    -0.398 OA
ATOM     21  H10 UNL     1      59.632  41.742  39.114  1.00  0.00     0.209 HD
ENDBRANCH  19  20
ENDBRANCH  16  19
ENDBRANCH   8  16
ENDBRANCH   1   2
BRANCH   1  22
HETATM   22  N1  UNL     1      61.344  42.000  37.967  1.00  0.00    -0.276 NA
BRANCH  22  23
HETATM   23  O5  UNL     1      61.446  40.903  38.552  1.00  0.00    -0.126 OA
BRANCH  23  24
HETATM   24  C10 UNL     1      62.570  40.071  38.599  1.00  0.00     0.283 C 
HETATM   25  N2  UNL     1      62.804  39.527  39.721  1.00  0.00    -0.276 N 
ATOM     26  H2  UNL     1      63.616  38.914  39.787  1.00  0.00     0.180 HD
BRANCH  25  27
HETATM   27  C11 UNL     1      62.042  39.704  40.858  1.00  0.00     0.036 C 
HETATM   28  C12 UNL     1      61.387  39.876  41.880  1.00  0.00     0.027 C 
BRANCH  28  29
HETATM   29  N3  UNL     1      60.634  40.100  43.051  1.00  0.00    -0.358 N 
ATOM     30  H32 UNL     1      60.481  39.687  42.131  1.00  0.00     0.166 HD
ATOM     31  H31 UNL     1      60.105  40.270  43.906  1.00  0.00     0.166 HD
ENDBRANCH  28  29
ENDBRANCH  25  27
BRANCH  24  32
HETATM   32  N4  UNL     1      63.430  39.811  37.510  1.00  0.00    -0.246 N 
ATOM     33  H4  UNL     1      63.277  40.271  36.613  1.00  0.00     0.188 HD
BRANCH  32  34
HETATM   34  N5  UNL     1      64.486  38.923  37.669  1.00  0.00    -0.027 NA
BRANCH  34  35
HETATM   35  N6  UNL     1      64.301  37.695  37.031  1.00  0.00    -0.329 N 
ATOM     36  H62 UNL     1      63.635  37.577  36.267  1.00  0.00     0.174 HD
ATOM     37  H61 UNL     1      64.885  36.943  37.397  1.00  0.00     0.174 HD
ENDBRANCH  34  35
ENDBRANCH  32  34
ENDBRANCH  24  32
ENDBRANCH  23  24
ENDBRANCH  22  23
ENDBRANCH   1  22
BRANCH   1  38
HETATM   38  C13 UNL     1      62.069  42.930  35.951  1.00  0.00     0.239 C 
BRANCH  38  39
HETATM   39  O6  UNL     1      63.262  42.240  35.880  1.00  0.00    -0.384 OA
ATOM     40  H6  UNL     1      63.191  41.503  35.284  1.00  0.00     0.210 HD
ENDBRANCH  38  39
BRANCH  38  41
HETATM   41  C14 UNL     1      61.037  42.480  34.958  1.00  0.00     0.352 C 
BRANCH  41  42
HETATM   42  N7  UNL     1      61.491  41.418  34.081  1.00  0.00    -0.050 N 
ATOM     43  H73 UNL     1      62.318  41.711  33.561  1.00  0.00     0.277 HD
ATOM     44  H72 UNL     1      61.890  40.652  34.623  1.00  0.00     0.277 HD
ATOM     45  H71 UNL     1      60.771  41.073  33.446  1.00  0.00     0.277 HD
ENDBRANCH  41  42
BRANCH  41  46
HETATM   46  O7  UNL     1      60.625  43.537  34.128  1.00  0.00    -0.368 OA
ATOM     47  H7  UNL     1      60.082  43.228  33.413  1.00  0.00     0.212 HD
ENDBRANCH  41  46
ENDBRANCH  38  41
ENDBRANCH   1  38
TORSDOF 20
ENDMDL
