MODEL 1
REMARK VINA RESULT: -7.578899640      0.000      0.000
REMARK  13 active torsions:
REMARK  status: ('A' for Active; 'I' for Inactive)
REMARK    1  A    between atoms: N1_1  and  O1_4 
REMARK    2  A    between atoms: O1_4  and  C1_5 
REMARK    3  A    between atoms: C1_5  and  O2_6 
REMARK    4  A    between atoms: C1_5  and  C2_8 
REMARK    5  A    between atoms: C2_8  and  O3_9 
REMARK    6  A    between atoms: C2_8  and  C3_11 
REMARK    7  A    between atoms: C5_14  and  C6_15 
REMARK    8  A    between atoms: C7_18  and  N3_19 
REMARK       I    between atoms: N3_19  and  C8_21 
REMARK    9  A    between atoms: C8_21  and  C9_23 
REMARK   10  A    between atoms: C9_23  and  C10_24 
REMARK   11  A    between atoms: C11_27  and  O9_28 
REMARK   12  A    between atoms: C12_31  and  O11_32 
REMARK   13  A    between atoms: C13_34  and  N4_35 
ROOT
HETATM    1  C3  UNL     1      61.341  47.016  37.487  1.00  0.00     0.247 C 
HETATM    2  O4  UNL     1      60.927  45.930  38.253  1.00  0.00    -0.363 OA
HETATM    3  C4  UNL     1      61.667  44.770  37.968  1.00  0.00     0.198 C 
HETATM    4  C5  UNL     1      61.390  43.811  39.058  1.00  0.00     0.136 C 
HETATM    5  C7  UNL     1      61.414  42.368  38.847  1.00  0.00     0.154 C 
HETATM    6  C11 UNL     1      62.257  41.853  37.712  1.00  0.00     0.283 C 
HETATM    7  O10 UNL     1      61.714  42.069  36.482  1.00  0.00    -0.325 OA
HETATM    8  C12 UNL     1      60.762  43.037  36.378  1.00  0.00     0.318 C 
HETATM    9  C13 UNL     1      61.430  44.370  36.578  1.00  0.00     0.247 C 
HETATM   10  N5  UNL     1      60.647  45.345  35.841  1.00  0.00    -0.321 N 
ATOM     11  H5  UNL     1      59.923  45.061  35.181  1.00  0.00     0.165 HD
HETATM   12  C14 UNL     1      60.941  46.727  36.086  1.00  0.00     0.251 C 
HETATM   13  O14 UNL     1      60.859  47.587  35.173  1.00  0.00    -0.270 OA
ENDROOT
BRANCH   1  14
HETATM   14  C2  UNL     1      60.720  48.277  37.973  1.00  0.00     0.213 C 
BRANCH  14  15
HETATM   15  C1  UNL     1      60.878  48.542  39.449  1.00  0.00     0.317 C 
BRANCH  15  16
HETATM   16  O1  UNL     1      60.812  49.949  39.590  1.00  0.00    -0.252 OA
BRANCH  16  17
HETATM   17  N1  UNL     1      61.939  50.364  40.191  1.00  0.00    -0.308 N 
ATOM     18  H12 UNL     1      62.017  50.629  41.173  1.00  0.00     0.184 HD
ATOM     19  H11 UNL     1      62.687  50.366  39.498  1.00  0.00     0.184 HD
ENDBRANCH  16  17
ENDBRANCH  15  16
BRANCH  15  20
HETATM   20  O2  UNL     1      59.893  48.035  40.248  1.00  0.00    -0.367 OA
ATOM     21  H2  UNL     1      59.834  47.110  40.038  1.00  0.00     0.212 HD
ENDBRANCH  15  20
ENDBRANCH  14  15
BRANCH  14  22
HETATM   22  O3  UNL     1      61.343  49.338  37.298  1.00  0.00    -0.387 OA
ATOM     23  H3  UNL     1      62.226  49.402  37.640  1.00  0.00     0.210 HD
ENDBRANCH  14  22
ENDBRANCH   1  14
BRANCH   4  24
HETATM   24  C6  UNL     1      60.108  44.162  39.746  1.00  0.00     0.240 C 
HETATM   25  N2  UNL     1      60.074  45.084  40.835  1.00  0.00    -0.062 NA
HETATM   26  O5  UNL     1      59.003  43.678  39.411  1.00  0.00    -0.276 OA
ENDBRANCH   4  24
BRANCH   9  27
HETATM   27  N4  UNL     1      62.678  44.300  35.797  1.00  0.00    -0.116 N 
HETATM   28  O12 UNL     1      62.575  43.959  34.610  1.00  0.00    -0.534 OA
HETATM   29  O13 UNL     1      63.895  44.590  36.358  1.00  0.00    -0.534 OA
ENDBRANCH   9  27
BRANCH   5  30
HETATM   30  N3  UNL     1      61.804  41.731  40.115  1.00  0.00    -0.350 N 
HETATM   31  C8  UNL     1      60.995  40.916  40.894  1.00  0.00     0.228 C 
HETATM   32  O6  UNL     1      59.817  40.666  40.527  1.00  0.00    -0.273 OA
ATOM     33  H3  UNL     1      62.752  41.904  40.450  1.00  0.00     0.163 HD
BRANCH  31  34
HETATM   34  C9  UNL     1      61.444  40.307  42.164  1.00  0.00     0.215 C 
BRANCH  34  35
HETATM   35  C10 UNL     1      62.189  39.048  42.003  1.00  0.00     0.181 C 
HETATM   36  O7  UNL     1      62.328  38.217  42.933  1.00  0.00    -0.648 OA
HETATM   37  O8  UNL     1      62.765  38.750  40.798  1.00  0.00    -0.648 OA
ENDBRANCH  34  35
ENDBRANCH  31  34
ENDBRANCH   5  30
BRANCH   8  38
HETATM   38  O11 UNL     1      60.345  43.025  35.019  1.00  0.00    -0.367 OA
ATOM     39  H11 UNL     1      60.945  43.602  34.561  1.00  0.00     0.212 HD
ENDBRANCH   8  38
BRANCH   6  40
HETATM   40  O9  UNL     1      62.387  40.442  37.819  1.00  0.00    -0.369 OA
ATOM     41  H9  UNL     1      62.147  40.038  36.993  1.00  0.00     0.212 HD
ENDBRANCH   6  40
TORSDOF 13
ENDMDL
MODEL 2
REMARK VINA RESULT: -7.487607085      0.641      1.013
REMARK  13 active torsions:
REMARK  status: ('A' for Active; 'I' for Inactive)
REMARK    1  A    between atoms: N1_1  and  O1_4 
REMARK    2  A    between atoms: O1_4  and  C1_5 
REMARK    3  A    between atoms: C1_5  and  O2_6 
REMARK    4  A    between atoms: C1_5  and  C2_8 
REMARK    5  A    between atoms: C2_8  and  O3_9 
REMARK    6  A    between atoms: C2_8  and  C3_11 
REMARK    7  A    between atoms: C5_14  and  C6_15 
REMARK    8  A    between atoms: C7_18  and  N3_19 
REMARK       I    between atoms: N3_19  and  C8_21 
REMARK    9  A    between atoms: C8_21  and  C9_23 
REMARK   10  A    between atoms: C9_23  and  C10_24 
REMARK   11  A    between atoms: C11_27  and  O9_28 
REMARK   12  A    between atoms: C12_31  and  O11_32 
REMARK   13  A    between atoms: C13_34  and  N4_35 
ROOT
HETATM    1  C3  UNL     1      61.499  46.966  37.489  1.00  0.00     0.247 C 
HETATM    2  O4  UNL     1      61.006  45.920  38.262  1.00  0.00    -0.363 OA
HETATM    3  C4  UNL     1      61.719  44.727  38.054  1.00  0.00     0.198 C 
HETATM    4  C5  UNL     1      61.348  43.813  39.156  1.00  0.00     0.136 C 
HETATM    5  C7  UNL     1      61.334  42.364  38.989  1.00  0.00     0.154 C 
HETATM    6  C11 UNL     1      62.219  41.785  37.919  1.00  0.00     0.283 C 
HETATM    7  O10 UNL     1      61.752  41.980  36.654  1.00  0.00    -0.325 OA
HETATM    8  C12 UNL     1      60.842  42.976  36.469  1.00  0.00     0.318 C 
HETATM    9  C13 UNL     1      61.544  44.291  36.666  1.00  0.00     0.247 C 
HETATM   10  N5  UNL     1      60.838  45.268  35.857  1.00  0.00    -0.321 N 
ATOM     11  H5  UNL     1      60.141  44.988  35.166  1.00  0.00     0.165 HD
HETATM   12  C14 UNL     1      61.167  46.646  36.077  1.00  0.00     0.251 C 
HETATM   13  O14 UNL     1      61.166  47.480  35.136  1.00  0.00    -0.270 OA
ENDROOT
BRANCH   1  14
HETATM   14  C2  UNL     1      60.897  48.262  37.901  1.00  0.00     0.213 C 
BRANCH  14  15
HETATM   15  C1  UNL     1      61.115  48.639  39.345  1.00  0.00     0.317 C 
BRANCH  15  16
HETATM   16  O1  UNL     1      60.313  49.785  39.561  1.00  0.00    -0.252 OA
BRANCH  16  17
HETATM   17  N1  UNL     1      59.109  49.565  39.008  1.00  0.00    -0.308 N 
ATOM     18  H12 UNL     1      58.566  50.257  38.490  1.00  0.00     0.184 HD
ATOM     19  H11 UNL     1      58.843  48.599  39.198  1.00  0.00     0.184 HD
ENDBRANCH  16  17
ENDBRANCH  15  16
BRANCH  15  20
HETATM   20  O2  UNL     1      60.707  47.714  40.263  1.00  0.00    -0.367 OA
ATOM     21  H2  UNL     1      61.067  47.995  41.097  1.00  0.00     0.212 HD
ENDBRANCH  15  20
ENDBRANCH  14  15
BRANCH  14  22
HETATM   22  O3  UNL     1      61.492  49.267  37.122  1.00  0.00    -0.387 OA
ATOM     23  H3  UNL     1      61.259  49.090  36.219  1.00  0.00     0.210 HD
ENDBRANCH  14  22
ENDBRANCH   1  14
BRANCH   4  24
HETATM   24  C6  UNL     1      60.044  44.229  39.759  1.00  0.00     0.240 C 
HETATM   25  N2  UNL     1      59.969  44.754  41.084  1.00  0.00    -0.062 NA
HETATM   26  O5  UNL     1      58.955  44.144  39.147  1.00  0.00    -0.276 OA
ENDBRANCH   4  24
BRANCH   9  27
HETATM   27  N4  UNL     1      62.830  44.155  35.958  1.00  0.00    -0.116 N 
HETATM   28  O12 UNL     1      63.856  44.368  36.619  1.00  0.00    -0.534 OA
HETATM   29  O13 UNL     1      62.887  43.818  34.630  1.00  0.00    -0.534 OA
ENDBRANCH   9  27
BRANCH   5  30
HETATM   30  N3  UNL     1      61.631  41.755  40.295  1.00  0.00    -0.350 N 
HETATM   31  C8  UNL     1      60.764  40.963  41.036  1.00  0.00     0.228 C 
HETATM   32  O6  UNL     1      59.613  40.711  40.593  1.00  0.00    -0.273 OA
ATOM     33  H3  UNL     1      62.554  41.930  40.691  1.00  0.00     0.163 HD
BRANCH  31  34
HETATM   34  C9  UNL     1      61.121  40.382  42.347  1.00  0.00     0.215 C 
BRANCH  34  35
HETATM   35  C10 UNL     1      61.947  39.166  42.268  1.00  0.00     0.181 C 
HETATM   36  O7  UNL     1      62.558  38.828  41.225  1.00  0.00    -0.648 OA
HETATM   37  O8  UNL     1      62.068  38.355  43.363  1.00  0.00    -0.648 OA
ENDBRANCH  34  35
ENDBRANCH  31  34
ENDBRANCH   5  30
BRANCH   8  38
HETATM   38  O11 UNL     1      60.500  42.935  35.089  1.00  0.00    -0.367 OA
ATOM     39  H11 UNL     1      60.332  43.835  34.838  1.00  0.00     0.212 HD
ENDBRANCH   8  38
BRANCH   6  40
HETATM   40  O9  UNL     1      62.293  40.375  38.075  1.00  0.00    -0.369 OA
ATOM     41  H9  UNL     1      62.679  40.168  38.918  1.00  0.00     0.212 HD
ENDBRANCH   6  40
TORSDOF 13
ENDMDL
MODEL 3
REMARK VINA RESULT: -7.473741513      0.855      1.071
REMARK  13 active torsions:
REMARK  status: ('A' for Active; 'I' for Inactive)
REMARK    1  A    between atoms: N1_1  and  O1_4 
REMARK    2  A    between atoms: O1_4  and  C1_5 
REMARK    3  A    between atoms: C1_5  and  O2_6 
REMARK    4  A    between atoms: C1_5  and  C2_8 
REMARK    5  A    between atoms: C2_8  and  O3_9 
REMARK    6  A    between atoms: C2_8  and  C3_11 
REMARK    7  A    between atoms: C5_14  and  C6_15 
REMARK    8  A    between atoms: C7_18  and  N3_19 
REMARK       I    between atoms: N3_19  and  C8_21 
REMARK    9  A    between atoms: C8_21  and  C9_23 
REMARK   10  A    between atoms: C9_23  and  C10_24 
REMARK   11  A    between atoms: C11_27  and  O9_28 
REMARK   12  A    between atoms: C12_31  and  O11_32 
REMARK   13  A    between atoms: C13_34  and  N4_35 
ROOT
HETATM    1  C3  UNL     1      61.437  46.800  37.705  1.00  0.00     0.247 C 
HETATM    2  O4  UNL     1      61.049  45.672  38.420  1.00  0.00    -0.363 OA
HETATM    3  C4  UNL     1      61.782  44.531  38.049  1.00  0.00     0.198 C 
HETATM    4  C5  UNL     1      61.538  43.512  39.093  1.00  0.00     0.136 C 
HETATM    5  C7  UNL     1      61.558  42.083  38.800  1.00  0.00     0.154 C 
HETATM    6  C11 UNL     1      62.368  41.635  37.614  1.00  0.00     0.283 C 
HETATM    7  O10 UNL     1      61.788  41.918  36.414  1.00  0.00    -0.325 OA
HETATM    8  C12 UNL     1      60.831  42.887  36.393  1.00  0.00     0.318 C 
HETATM    9  C13 UNL     1      61.503  44.209  36.647  1.00  0.00     0.247 C 
HETATM   10  N5  UNL     1      60.697  45.221  35.989  1.00  0.00    -0.321 N 
ATOM     11  H5  UNL     1      59.954  44.972  35.336  1.00  0.00     0.165 HD
HETATM   12  C14 UNL     1      60.996  46.588  36.302  1.00  0.00     0.251 C 
HETATM   13  O14 UNL     1      60.886  47.498  35.442  1.00  0.00    -0.270 OA
ENDROOT
BRANCH   1  14
HETATM   14  C2  UNL     1      60.829  48.030  38.278  1.00  0.00     0.213 C 
BRANCH  14  15
HETATM   15  C1  UNL     1      59.812  47.794  39.366  1.00  0.00     0.317 C 
BRANCH  15  16
HETATM   16  O1  UNL     1      60.422  48.247  40.560  1.00  0.00    -0.252 OA
BRANCH  16  17
HETATM   17  N1  UNL     1      60.930  47.182  41.201  1.00  0.00    -0.308 N 
ATOM     18  H12 UNL     1      61.380  46.385  40.750  1.00  0.00     0.184 HD
ATOM     19  H11 UNL     1      60.785  47.314  42.202  1.00  0.00     0.184 HD
ENDBRANCH  16  17
ENDBRANCH  15  16
BRANCH  15  20
HETATM   20  O2  UNL     1      58.647  48.498  39.246  1.00  0.00    -0.367 OA
ATOM     21  H2  UNL     1      58.708  48.970  38.424  1.00  0.00     0.212 HD
ENDBRANCH  15  20
ENDBRANCH  14  15
BRANCH  14  22
HETATM   22  O3  UNL     1      61.867  48.784  38.847  1.00  0.00    -0.387 OA
ATOM     23  H3  UNL     1      62.381  49.132  38.129  1.00  0.00     0.210 HD
ENDBRANCH  14  22
ENDBRANCH   1  14
BRANCH   4  24
HETATM   24  C6  UNL     1      60.277  43.821  39.836  1.00  0.00     0.240 C 
HETATM   25  N2  UNL     1      60.292  44.161  41.222  1.00  0.00    -0.062 NA
HETATM   26  O5  UNL     1      59.147  43.801  39.295  1.00  0.00    -0.276 OA
ENDBRANCH   4  24
BRANCH   9  27
HETATM   27  N4  UNL     1      62.728  44.187  35.826  1.00  0.00    -0.116 N 
HETATM   28  O12 UNL     1      63.781  44.516  36.388  1.00  0.00    -0.534 OA
HETATM   29  O13 UNL     1      62.699  43.828  34.503  1.00  0.00    -0.534 OA
ENDBRANCH   9  27
BRANCH   5  30
HETATM   30  N3  UNL     1      61.987  41.378  40.018  1.00  0.00    -0.350 N 
HETATM   31  C8  UNL     1      61.167  40.630  40.852  1.00  0.00     0.228 C 
HETATM   32  O6  UNL     1      59.943  40.511  40.585  1.00  0.00    -0.273 OA
ATOM     33  H3  UNL     1      62.973  41.445  40.272  1.00  0.00     0.163 HD
BRANCH  31  34
HETATM   34  C9  UNL     1      61.658  39.947  42.068  1.00  0.00     0.215 C 
BRANCH  34  35
HETATM   35  C10 UNL     1      62.581  38.831  41.805  1.00  0.00     0.181 C 
HETATM   36  O7  UNL     1      63.028  38.091  42.715  1.00  0.00    -0.648 OA
HETATM   37  O8  UNL     1      62.982  38.570  40.523  1.00  0.00    -0.648 OA
ENDBRANCH  34  35
ENDBRANCH  31  34
ENDBRANCH   5  30
BRANCH   8  38
HETATM   38  O11 UNL     1      60.375  42.950  35.048  1.00  0.00    -0.367 OA
ATOM     39  H11 UNL     1      60.488  43.854  34.779  1.00  0.00     0.212 HD
ENDBRANCH   8  38
BRANCH   6  40
HETATM   40  O9  UNL     1      62.503  40.221  37.638  1.00  0.00    -0.369 OA
ATOM     41  H9  UNL     1      63.386  39.990  37.899  1.00  0.00     0.212 HD
ENDBRANCH   6  40
TORSDOF 13
ENDMDL
MODEL 4
REMARK VINA RESULT: -7.374557660      3.215      7.326
REMARK  13 active torsions:
REMARK  status: ('A' for Active; 'I' for Inactive)
REMARK    1  A    between atoms: N1_1  and  O1_4 
REMARK    2  A    between atoms: O1_4  and  C1_5 
REMARK    3  A    between atoms: C1_5  and  O2_6 
REMARK    4  A    between atoms: C1_5  and  C2_8 
REMARK    5  A    between atoms: C2_8  and  O3_9 
REMARK    6  A    between atoms: C2_8  and  C3_11 
REMARK    7  A    between atoms: C5_14  and  C6_15 
REMARK    8  A    between atoms: C7_18  and  N3_19 
REMARK       I    between atoms: N3_19  and  C8_21 
REMARK    9  A    between atoms: C8_21  and  C9_23 
REMARK   10  A    between atoms: C9_23  and  C10_24 
REMARK   11  A    between atoms: C11_27  and  O9_28 
REMARK   12  A    between atoms: C12_31  and  O11_32 
REMARK   13  A    between atoms: C13_34  and  N4_35 
ROOT
HETATM    1  C3  UNL     1      60.868  44.220  37.158  1.00  0.00     0.247 C 
HETATM    2  O4  UNL     1      59.941  44.957  37.889  1.00  0.00    -0.363 OA
HETATM    3  C4  UNL     1      59.712  46.225  37.328  1.00  0.00     0.198 C 
HETATM    4  C5  UNL     1      58.487  46.755  37.963  1.00  0.00     0.136 C 
HETATM    5  C7  UNL     1      58.272  48.185  38.157  1.00  0.00     0.154 C 
HETATM    6  C11 UNL     1      58.995  49.123  37.229  1.00  0.00     0.283 C 
HETATM    7  O10 UNL     1      60.325  49.242  37.494  1.00  0.00    -0.325 OA
HETATM    8  C12 UNL     1      60.910  48.252  38.226  1.00  0.00     0.318 C 
HETATM    9  C13 UNL     1      60.949  47.010  37.379  1.00  0.00     0.247 C 
HETATM   10  N5  UNL     1      62.088  46.231  37.830  1.00  0.00    -0.321 N 
ATOM     11  H5  UNL     1      62.787  46.622  38.463  1.00  0.00     0.165 HD
HETATM   12  C14 UNL     1      62.183  44.886  37.344  1.00  0.00     0.251 C 
HETATM   13  O14 UNL     1      63.295  44.351  37.106  1.00  0.00    -0.270 OA
ENDROOT
BRANCH   1  14
HETATM   14  C2  UNL     1      60.911  42.808  37.623  1.00  0.00     0.213 C 
BRANCH  14  15
HETATM   15  C1  UNL     1      61.229  41.792  36.555  1.00  0.00     0.317 C 
BRANCH  15  16
HETATM   16  O1  UNL     1      60.857  42.400  35.332  1.00  0.00    -0.252 OA
BRANCH  16  17
HETATM   17  N1  UNL     1      61.402  41.692  34.329  1.00  0.00    -0.308 N 
ATOM     18  H12 UNL     1      62.321  41.250  34.355  1.00  0.00     0.184 HD
ATOM     19  H11 UNL     1      60.741  41.679  33.553  1.00  0.00     0.184 HD
ENDBRANCH  16  17
ENDBRANCH  15  16
BRANCH  15  20
HETATM   20  O2  UNL     1      62.549  41.465  36.427  1.00  0.00    -0.367 OA
ATOM     21  H2  UNL     1      62.789  41.020  37.232  1.00  0.00     0.212 HD
ENDBRANCH  15  20
ENDBRANCH  14  15
BRANCH  14  22
HETATM   22  O3  UNL     1      61.925  42.716  38.589  1.00  0.00    -0.387 OA
ATOM     23  H3  UNL     1      62.130  43.602  38.860  1.00  0.00     0.210 HD
ENDBRANCH  14  22
ENDBRANCH   1  14
BRANCH   4  24
HETATM   24  C6  UNL     1      58.234  46.062  39.264  1.00  0.00     0.240 C 
HETATM   25  N2  UNL     1      57.093  45.227  39.455  1.00  0.00    -0.062 NA
HETATM   26  O5  UNL     1      58.998  46.169  40.251  1.00  0.00    -0.276 OA
ENDBRANCH   4  24
BRANCH   9  27
HETATM   27  N4  UNL     1      61.377  47.463  36.042  1.00  0.00    -0.116 N 
HETATM   28  O12 UNL     1      60.550  47.357  35.126  1.00  0.00    -0.534 OA
HETATM   29  O13 UNL     1      62.632  47.969  35.824  1.00  0.00    -0.534 OA
ENDBRANCH   9  27
BRANCH   5  30
HETATM   30  N3  UNL     1      56.822  48.433  38.121  1.00  0.00    -0.350 N 
HETATM   31  C8  UNL     1      56.043  48.844  39.195  1.00  0.00     0.228 C 
HETATM   32  O6  UNL     1      56.577  49.038  40.318  1.00  0.00    -0.273 OA
ATOM     33  H3  UNL     1      56.348  48.291  37.230  1.00  0.00     0.163 HD
BRANCH  31  34
HETATM   34  C9  UNL     1      54.586  49.073  39.096  1.00  0.00     0.215 C 
BRANCH  34  35
HETATM   35  C10 UNL     1      53.820  47.907  38.626  1.00  0.00     0.181 C 
HETATM   36  O7  UNL     1      54.366  46.878  38.159  1.00  0.00    -0.648 OA
HETATM   37  O8  UNL     1      52.453  47.923  38.692  1.00  0.00    -0.648 OA
ENDBRANCH  34  35
ENDBRANCH  31  34
ENDBRANCH   5  30
BRANCH   8  38
HETATM   38  O11 UNL     1      62.268  48.641  38.386  1.00  0.00    -0.367 OA
ATOM     39  H11 UNL     1      62.366  49.443  37.887  1.00  0.00     0.212 HD
ENDBRANCH   8  38
BRANCH   6  40
HETATM   40  O9  UNL     1      58.468  50.434  37.373  1.00  0.00    -0.369 OA
ATOM     41  H9  UNL     1      59.157  51.071  37.228  1.00  0.00     0.212 HD
ENDBRANCH   6  40
TORSDOF 13
ENDMDL
MODEL 5
REMARK VINA RESULT: -7.371342699      3.011      6.998
REMARK  13 active torsions:
REMARK  status: ('A' for Active; 'I' for Inactive)
REMARK    1  A    between atoms: N1_1  and  O1_4 
REMARK    2  A    between atoms: O1_4  and  C1_5 
REMARK    3  A    between atoms: C1_5  and  O2_6 
REMARK    4  A    between atoms: C1_5  and  C2_8 
REMARK    5  A    between atoms: C2_8  and  O3_9 
REMARK    6  A    between atoms: C2_8  and  C3_11 
REMARK    7  A    between atoms: C5_14  and  C6_15 
REMARK    8  A    between atoms: C7_18  and  N3_19 
REMARK       I    between atoms: N3_19  and  C8_21 
REMARK    9  A    between atoms: C8_21  and  C9_23 
REMARK   10  A    between atoms: C9_23  and  C10_24 
REMARK   11  A    between atoms: C11_27  and  O9_28 
REMARK   12  A    between atoms: C12_31  and  O11_32 
REMARK   13  A    between atoms: C13_34  and  N4_35 
ROOT
HETATM    1  C3  UNL     1      61.653  44.039  36.709  1.00  0.00     0.247 C 
HETATM    2  O4  UNL     1      60.773  44.496  37.685  1.00  0.00    -0.363 OA
HETATM    3  C4  UNL     1      60.246  45.761  37.372  1.00  0.00     0.198 C 
HETATM    4  C5  UNL     1      59.092  45.974  38.271  1.00  0.00     0.136 C 
HETATM    5  C7  UNL     1      58.693  47.305  38.717  1.00  0.00     0.154 C 
HETATM    6  C11 UNL     1      59.072  48.468  37.840  1.00  0.00     0.283 C 
HETATM    7  O10 UNL     1      60.393  48.794  37.902  1.00  0.00    -0.325 OA
HETATM    8  C12 UNL     1      61.253  47.845  38.367  1.00  0.00     0.318 C 
HETATM    9  C13 UNL     1      61.330  46.746  37.342  1.00  0.00     0.247 C 
HETATM   10  N5  UNL     1      62.642  46.140  37.477  1.00  0.00    -0.321 N 
ATOM     11  H5  UNL     1      63.375  46.571  38.041  1.00  0.00     0.165 HD
HETATM   12  C14 UNL     1      62.857  44.906  36.780  1.00  0.00     0.251 C 
HETATM   13  O14 UNL     1      63.976  44.617  36.285  1.00  0.00    -0.270 OA
ENDROOT
BRANCH   1  14
HETATM   14  C2  UNL     1      62.005  42.612  36.936  1.00  0.00     0.213 C 
BRANCH  14  15
HETATM   15  C1  UNL     1      61.562  42.046  38.262  1.00  0.00     0.317 C 
BRANCH  15  16
HETATM   16  O1  UNL     1      62.184  40.778  38.359  1.00  0.00    -0.252 OA
BRANCH  16  17
HETATM   17  N1  UNL     1      63.427  40.882  37.861  1.00  0.00    -0.308 N 
ATOM     18  H12 UNL     1      63.743  41.607  37.217  1.00  0.00     0.184 HD
ATOM     19  H11 UNL     1      63.986  40.116  38.238  1.00  0.00     0.184 HD
ENDBRANCH  16  17
ENDBRANCH  15  16
BRANCH  15  20
HETATM   20  O2  UNL     1      61.962  42.748  39.365  1.00  0.00    -0.367 OA
ATOM     21  H2  UNL     1      62.895  42.895  39.259  1.00  0.00     0.212 HD
ENDBRANCH  15  20
ENDBRANCH  14  15
BRANCH  14  22
HETATM   22  O3  UNL     1      61.367  41.859  35.938  1.00  0.00    -0.387 OA
ATOM     23  H3  UNL     1      61.998  41.735  35.240  1.00  0.00     0.210 HD
ENDBRANCH  14  22
ENDBRANCH   1  14
BRANCH   4  24
HETATM   24  C6  UNL     1      59.199  45.090  39.473  1.00  0.00     0.240 C 
HETATM   25  N2  UNL     1      58.154  44.186  39.830  1.00  0.00    -0.062 NA
HETATM   26  O5  UNL     1      60.199  45.088  40.228  1.00  0.00    -0.276 OA
ENDBRANCH   4  24
BRANCH   9  27
HETATM   27  N4  UNL     1      61.424  47.434  36.041  1.00  0.00    -0.116 N 
HETATM   28  O12 UNL     1      60.445  47.338  35.288  1.00  0.00    -0.534 OA
HETATM   29  O13 UNL     1      62.545  48.136  35.679  1.00  0.00    -0.534 OA
ENDBRANCH   9  27
BRANCH   5  30
HETATM   30  N3  UNL     1      57.241  47.286  38.955  1.00  0.00    -0.350 N 
HETATM   31  C8  UNL     1      56.274  46.907  38.034  1.00  0.00     0.228 C 
HETATM   32  O6  UNL     1      56.618  46.537  36.881  1.00  0.00    -0.273 OA
ATOM     33  H3  UNL     1      56.917  47.575  39.878  1.00  0.00     0.163 HD
BRANCH  31  34
HETATM   34  C9  UNL     1      54.826  46.913  38.332  1.00  0.00     0.215 C 
BRANCH  34  35
HETATM   35  C10 UNL     1      54.218  48.253  38.356  1.00  0.00     0.181 C 
HETATM   36  O7  UNL     1      52.978  48.437  38.294  1.00  0.00    -0.648 OA
HETATM   37  O8  UNL     1      55.018  49.360  38.447  1.00  0.00    -0.648 OA
ENDBRANCH  34  35
ENDBRANCH  31  34
ENDBRANCH   5  30
BRANCH   8  38
HETATM   38  O11 UNL     1      62.538  48.454  38.363  1.00  0.00    -0.367 OA
ATOM     39  H11 UNL     1      62.828  48.449  39.268  1.00  0.00     0.212 HD
ENDBRANCH   8  38
BRANCH   6  40
HETATM   40  O9  UNL     1      58.380  49.632  38.269  1.00  0.00    -0.369 OA
ATOM     41  H9  UNL     1      58.983  50.366  38.300  1.00  0.00     0.212 HD
ENDBRANCH   6  40
TORSDOF 13
ENDMDL
