MODEL 1
REMARK VINA RESULT: -7.071178887      0.000      0.000
REMARK  14 active torsions:
REMARK  status: ('A' for Active; 'I' for Inactive)
REMARK    1  A    between atoms: N1_1  and  C1_5 
REMARK    2  A    between atoms: C1_5  and  N2_6 
REMARK    3  A    between atoms: C1_5  and  C9_28 
REMARK       I    between atoms: N2_6  and  C2_8 
REMARK    4  A    between atoms: C2_8  and  C3_10 
REMARK    5  A    between atoms: C3_10  and  C4_12 
REMARK    6  A    between atoms: C5_14  and  O4_15 
REMARK    7  A    between atoms: C6_17  and  C7_18 
REMARK    8  A    between atoms: C7_18  and  O5_19 
REMARK    9  A    between atoms: C8_22  and  O7_23 
REMARK   10  A    between atoms: O7_23  and  S1_24 
REMARK   11  A    between atoms: C9_28  and  O11_29 
REMARK   12  A    between atoms: C9_28  and  N3_31 
REMARK   13  A    between atoms: N3_31  and  N4_33 
REMARK       I    between atoms: N4_33  and  C10_35 
REMARK       I    between atoms: C10_35  and  N5_37 
REMARK   14  A    between atoms: N5_37  and  N6_39 
ROOT
HETATM    1  C1  UNL     1      60.944  48.398  38.443  1.00  0.00     0.360 C 
ENDROOT
BRANCH   1   2
HETATM    2  N1  UNL     1      61.975  49.054  39.424  1.00  0.00    -0.051 N 
ATOM      3  H13 UNL     1      61.866  48.805  40.407  1.00  0.00     0.277 HD
ATOM      4  H12 UNL     1      62.932  48.709  39.350  1.00  0.00     0.277 HD
ATOM      5  H11 UNL     1      61.847  50.042  39.205  1.00  0.00     0.277 HD
ENDBRANCH   1   2
BRANCH   1   6
HETATM    6  N2  UNL     1      60.449  47.315  39.255  1.00  0.00    -0.320 N 
HETATM    7  C2  UNL     1      59.154  46.875  38.910  1.00  0.00     0.292 C 
HETATM    8  O1  UNL     1      58.507  47.483  37.963  1.00  0.00    -0.264 OA
ATOM      9  H2  UNL     1      60.989  46.902  40.014  1.00  0.00     0.165 HD
BRANCH   7  10
HETATM   10  C3  UNL     1      58.441  45.766  39.522  1.00  0.00     0.250 C 
HETATM   11  O2  UNL     1      57.457  46.012  40.248  1.00  0.00    -0.284 OA
BRANCH  10  12
HETATM   12  C4  UNL     1      58.879  44.371  39.269  1.00  0.00     0.260 C 
HETATM   13  O3  UNL     1      60.153  44.302  38.789  1.00  0.00    -0.341 OA
HETATM   14  C5  UNL     1      61.068  43.588  39.546  1.00  0.00     0.289 C 
HETATM   15  C6  UNL     1      61.041  44.006  40.949  1.00  0.00     0.203 C 
HETATM   16  O6  UNL     1      59.768  44.430  41.407  1.00  0.00    -0.345 OA
HETATM   17  C8  UNL     1      58.770  43.708  40.694  1.00  0.00     0.319 C 
BRANCH  14  18
HETATM   18  O4  UNL     1      62.330  43.929  38.958  1.00  0.00    -0.369 OA
ATOM     19  H4  UNL     1      62.358  43.401  38.169  1.00  0.00     0.212 HD
ENDBRANCH  14  18
BRANCH  15  20
HETATM   20  C7  UNL     1      61.603  42.986  41.887  1.00  0.00     0.201 C 
BRANCH  20  21
HETATM   21  O5  UNL     1      61.944  41.779  41.291  1.00  0.00    -0.398 OA
ATOM     22  H5  UNL     1      62.877  41.651  41.164  1.00  0.00     0.209 HD
ENDBRANCH  20  21
ENDBRANCH  15  20
BRANCH  17  23
HETATM   23  O7  UNL     1      59.070  42.416  40.689  1.00  0.00    -0.221 OA
BRANCH  23  24
HETATM   24  S1  UNL     1      58.243  41.403  41.668  1.00  0.00     0.254 S 
HETATM   25  O8  UNL     1      57.410  42.053  42.709  1.00  0.00    -0.572 OA
HETATM   26  O9  UNL     1      59.226  40.525  42.387  1.00  0.00    -0.572 OA
HETATM   27  O10 UNL     1      57.340  40.369  40.659  1.00  0.00    -0.572 OA
ENDBRANCH  23  24
ENDBRANCH  17  23
ENDBRANCH  10  12
ENDBRANCH   7  10
ENDBRANCH   1   6
BRANCH   1  28
HETATM   28  C9  UNL     1      61.765  47.936  37.323  1.00  0.00     0.181 C 
BRANCH  28  29
HETATM   29  O11 UNL     1      63.054  47.912  37.532  1.00  0.00    -0.345 OA
ATOM     30  H11 UNL     1      63.536  48.676  37.241  1.00  0.00     0.219 HD
ENDBRANCH  28  29
BRANCH  28  31
HETATM   31  N3  UNL     1      61.295  47.510  36.061  1.00  0.00    -0.276 N 
ATOM     32  H3  UNL     1      61.404  48.086  35.226  1.00  0.00     0.189 HD
BRANCH  31  33
HETATM   33  N4  UNL     1      60.668  46.244  36.012  1.00  0.00    -0.248 N 
HETATM   34  C10 UNL     1      61.473  45.105  35.996  1.00  0.00     0.356 C 
HETATM   35  O12 UNL     1      62.749  45.298  35.985  1.00  0.00    -0.244 OA
HETATM   36  N5  UNL     1      61.001  43.792  35.982  1.00  0.00    -0.214 N 
ATOM     37  H5  UNL     1      59.997  43.611  35.977  1.00  0.00     0.195 HD
ATOM     38  H4  UNL     1      59.651  46.165  35.990  1.00  0.00     0.192 HD
BRANCH  36  39
HETATM   39  N6  UNL     1      61.882  42.753  35.975  1.00  0.00    -0.094 N 
HETATM   40  N7  UNL     1      62.084  41.724  35.131  1.00  0.00    -0.194 N 
HETATM   41  N8  UNL     1      63.089  41.251  35.768  1.00  0.00    -0.206 N 
ATOM     42  H7  UNL     1      61.606  41.427  34.282  1.00  0.00     0.213 HD
HETATM   43  N9  UNL     1      62.948  42.269  36.671  1.00  0.00     0.036 NA
ATOM     44  H8  UNL     1      63.720  40.459  35.652  1.00  0.00     0.207 HD
ENDBRANCH  36  39
ENDBRANCH  31  33
ENDBRANCH  28  31
ENDBRANCH   1  28
TORSDOF 14
ENDMDL
MODEL 2
REMARK VINA RESULT: -6.967005642      4.951      8.002
REMARK  14 active torsions:
REMARK  status: ('A' for Active; 'I' for Inactive)
REMARK    1  A    between atoms: N1_1  and  C1_5 
REMARK    2  A    between atoms: C1_5  and  N2_6 
REMARK    3  A    between atoms: C1_5  and  C9_28 
REMARK       I    between atoms: N2_6  and  C2_8 
REMARK    4  A    between atoms: C2_8  and  C3_10 
REMARK    5  A    between atoms: C3_10  and  C4_12 
REMARK    6  A    between atoms: C5_14  and  O4_15 
REMARK    7  A    between atoms: C6_17  and  C7_18 
REMARK    8  A    between atoms: C7_18  and  O5_19 
REMARK    9  A    between atoms: C8_22  and  O7_23 
REMARK   10  A    between atoms: O7_23  and  S1_24 
REMARK   11  A    between atoms: C9_28  and  O11_29 
REMARK   12  A    between atoms: C9_28  and  N3_31 
REMARK   13  A    between atoms: N3_31  and  N4_33 
REMARK       I    between atoms: N4_33  and  C10_35 
REMARK       I    between atoms: C10_35  and  N5_37 
REMARK   14  A    between atoms: N5_37  and  N6_39 
ROOT
HETATM    1  C1  UNL     1      62.177  39.487  40.725  1.00  0.00     0.360 C 
ENDROOT
BRANCH   1   2
HETATM    2  N1  UNL     1      63.123  38.944  39.601  1.00  0.00    -0.051 N 
ATOM      3  H13 UNL     1      63.392  39.621  38.886  1.00  0.00     0.277 HD
ATOM      4  H12 UNL     1      64.079  38.739  39.892  1.00  0.00     0.277 HD
ATOM      5  H11 UNL     1      62.586  38.143  39.267  1.00  0.00     0.277 HD
ENDBRANCH   1   2
BRANCH   1   6
HETATM    6  N2  UNL     1      62.342  40.909  40.554  1.00  0.00    -0.320 N 
HETATM    7  C2  UNL     1      61.353  41.518  39.754  1.00  0.00     0.292 C 
HETATM    8  O1  UNL     1      60.435  40.780  39.208  1.00  0.00    -0.264 OA
ATOM      9  H2  UNL     1      63.109  41.431  40.977  1.00  0.00     0.165 HD
BRANCH   7  10
HETATM   10  C3  UNL     1      61.245  42.938  39.469  1.00  0.00     0.250 C 
HETATM   11  O2  UNL     1      60.477  43.634  40.163  1.00  0.00    -0.284 OA
BRANCH  10  12
HETATM   12  C4  UNL     1      62.048  43.540  38.375  1.00  0.00     0.260 C 
HETATM   13  O3  UNL     1      62.712  42.605  37.640  1.00  0.00    -0.341 OA
HETATM   14  C5  UNL     1      62.416  42.547  36.287  1.00  0.00     0.289 C 
HETATM   15  C6  UNL     1      60.971  42.487  36.060  1.00  0.00     0.203 C 
HETATM   16  O6  UNL     1      60.199  43.176  37.029  1.00  0.00    -0.345 OA
HETATM   17  C8  UNL     1      60.960  44.279  37.510  1.00  0.00     0.319 C 
BRANCH  14  18
HETATM   18  O4  UNL     1      63.030  41.325  35.859  1.00  0.00    -0.369 OA
ATOM     19  H4  UNL     1      62.353  40.904  35.342  1.00  0.00     0.212 HD
ENDBRANCH  14  18
BRANCH  15  20
HETATM   20  C7  UNL     1      60.563  42.917  34.687  1.00  0.00     0.201 C 
BRANCH  20  21
HETATM   21  O5  UNL     1      61.620  43.225  33.841  1.00  0.00    -0.398 OA
ATOM     22  H5  UNL     1      62.034  42.472  33.437  1.00  0.00     0.209 HD
ENDBRANCH  20  21
ENDBRANCH  15  20
BRANCH  17  23
HETATM   23  O7  UNL     1      61.477  44.945  36.485  1.00  0.00    -0.221 OA
BRANCH  23  24
HETATM   24  S1  UNL     1      61.573  46.574  36.563  1.00  0.00     0.254 S 
HETATM   25  O8  UNL     1      60.872  47.311  35.484  1.00  0.00    -0.572 OA
HETATM   26  O9  UNL     1      63.019  46.972  36.489  1.00  0.00    -0.572 OA
HETATM   27  O10 UNL     1      61.041  47.027  38.117  1.00  0.00    -0.572 OA
ENDBRANCH  23  24
ENDBRANCH  17  23
ENDBRANCH  10  12
ENDBRANCH   7  10
ENDBRANCH   1   6
BRANCH   1  28
HETATM   28  C9  UNL     1      62.778  38.992  41.964  1.00  0.00     0.181 C 
BRANCH  28  29
HETATM   29  O11 UNL     1      62.800  39.834  42.963  1.00  0.00    -0.345 OA
ATOM     30  H11 UNL     1      62.635  39.463  43.821  1.00  0.00     0.219 HD
ENDBRANCH  28  29
BRANCH  28  31
HETATM   31  N3  UNL     1      63.316  37.703  42.177  1.00  0.00    -0.276 N 
ATOM     32  H3  UNL     1      62.760  36.860  42.034  1.00  0.00     0.189 HD
BRANCH  31  33
HETATM   33  N4  UNL     1      64.663  37.641  42.599  1.00  0.00    -0.248 N 
HETATM   34  C10 UNL     1      65.627  37.226  41.681  1.00  0.00     0.356 C 
HETATM   35  O12 UNL     1      65.204  36.888  40.509  1.00  0.00    -0.244 OA
HETATM   36  N5  UNL     1      66.996  37.145  41.939  1.00  0.00    -0.214 N 
ATOM     37  H5  UNL     1      67.357  37.394  42.860  1.00  0.00     0.195 HD
ATOM     38  H4  UNL     1      64.924  37.893  43.553  1.00  0.00     0.192 HD
BRANCH  36  39
HETATM   39  N6  UNL     1      67.850  36.734  40.960  1.00  0.00    -0.094 N 
HETATM   40  N7  UNL     1      67.850  36.872  39.622  1.00  0.00    -0.194 N 
HETATM   41  N8  UNL     1      68.974  36.285  39.447  1.00  0.00    -0.206 N 
ATOM     42  H7  UNL     1      67.187  37.295  38.974  1.00  0.00     0.213 HD
HETATM   43  N9  UNL     1      69.048  36.105  40.801  1.00  0.00     0.036 NA
ATOM     44  H8  UNL     1      69.560  36.053  38.646  1.00  0.00     0.207 HD
ENDBRANCH  36  39
ENDBRANCH  31  33
ENDBRANCH  28  31
ENDBRANCH   1  28
TORSDOF 14
ENDMDL
MODEL 3
REMARK VINA RESULT: -6.936812122      3.163      5.859
REMARK  14 active torsions:
REMARK  status: ('A' for Active; 'I' for Inactive)
REMARK    1  A    between atoms: N1_1  and  C1_5 
REMARK    2  A    between atoms: C1_5  and  N2_6 
REMARK    3  A    between atoms: C1_5  and  C9_28 
REMARK       I    between atoms: N2_6  and  C2_8 
REMARK    4  A    between atoms: C2_8  and  C3_10 
REMARK    5  A    between atoms: C3_10  and  C4_12 
REMARK    6  A    between atoms: C5_14  and  O4_15 
REMARK    7  A    between atoms: C6_17  and  C7_18 
REMARK    8  A    between atoms: C7_18  and  O5_19 
REMARK    9  A    between atoms: C8_22  and  O7_23 
REMARK   10  A    between atoms: O7_23  and  S1_24 
REMARK   11  A    between atoms: C9_28  and  O11_29 
REMARK   12  A    between atoms: C9_28  and  N3_31 
REMARK   13  A    between atoms: N3_31  and  N4_33 
REMARK       I    between atoms: N4_33  and  C10_35 
REMARK       I    between atoms: C10_35  and  N5_37 
REMARK   14  A    between atoms: N5_37  and  N6_39 
ROOT
HETATM    1  C1  UNL     1      59.778  42.793  40.242  1.00  0.00     0.360 C 
ENDROOT
BRANCH   1   2
HETATM    2  N1  UNL     1      58.750  41.611  40.210  1.00  0.00    -0.051 N 
ATOM      3  H13 UNL     1      59.148  40.687  40.041  1.00  0.00     0.277 HD
ATOM      4  H12 UNL     1      58.335  41.366  41.109  1.00  0.00     0.277 HD
ATOM      5  H11 UNL     1      58.097  41.944  39.501  1.00  0.00     0.277 HD
ENDBRANCH   1   2
BRANCH   1   6
HETATM    6  N2  UNL     1      59.149  43.725  39.341  1.00  0.00    -0.320 N 
HETATM    7  C2  UNL     1      58.997  45.026  39.862  1.00  0.00     0.292 C 
HETATM    8  O1  UNL     1      59.370  45.269  41.082  1.00  0.00    -0.264 OA
ATOM      9  H2  UNL     1      58.840  43.465  38.404  1.00  0.00     0.165 HD
BRANCH   7  10
HETATM   10  C3  UNL     1      58.452  46.170  39.151  1.00  0.00     0.250 C 
HETATM   11  O2  UNL     1      57.729  46.975  39.771  1.00  0.00    -0.284 OA
BRANCH  10  12
HETATM   12  C4  UNL     1      58.768  46.372  37.715  1.00  0.00     0.260 C 
HETATM   13  O3  UNL     1      58.864  47.690  37.382  1.00  0.00    -0.341 OA
HETATM   14  C5  UNL     1      60.079  48.118  36.869  1.00  0.00     0.289 C 
HETATM   15  C6  UNL     1      61.194  47.692  37.716  1.00  0.00     0.203 C 
HETATM   16  O6  UNL     1      60.986  46.456  38.377  1.00  0.00    -0.345 OA
HETATM   17  C8  UNL     1      60.154  45.642  37.558  1.00  0.00     0.319 C 
BRANCH  14  18
HETATM   18  O4  UNL     1      59.967  49.547  36.889  1.00  0.00    -0.369 OA
ATOM     19  H4  UNL     1      60.505  49.823  36.156  1.00  0.00     0.212 HD
ENDBRANCH  14  18
BRANCH  15  20
HETATM   20  C7  UNL     1      62.510  47.672  37.005  1.00  0.00     0.201 C 
BRANCH  20  21
HETATM   21  O5  UNL     1      62.451  48.049  35.670  1.00  0.00    -0.398 OA
ATOM     22  H5  UNL     1      63.233  47.851  35.169  1.00  0.00     0.209 HD
ENDBRANCH  20  21
ENDBRANCH  15  20
BRANCH  17  23
HETATM   23  O7  UNL     1      60.607  45.653  36.311  1.00  0.00    -0.221 OA
BRANCH  23  24
HETATM   24  S1  UNL     1      61.019  44.240  35.601  1.00  0.00     0.254 S 
HETATM   25  O8  UNL     1      60.238  43.876  34.394  1.00  0.00    -0.572 OA
HETATM   26  O9  UNL     1      60.823  43.131  36.593  1.00  0.00    -0.572 OA
HETATM   27  O10 UNL     1      62.695  44.310  35.299  1.00  0.00    -0.572 OA
ENDBRANCH  23  24
ENDBRANCH  17  23
ENDBRANCH  10  12
ENDBRANCH   7  10
ENDBRANCH   1   6
BRANCH   1  28
HETATM   28  C9  UNL     1      61.003  42.212  39.691  1.00  0.00     0.181 C 
BRANCH  28  29
HETATM   29  O11 UNL     1      61.973  43.052  39.447  1.00  0.00    -0.345 OA
ATOM     30  H11 UNL     1      62.109  43.274  38.534  1.00  0.00     0.219 HD
ENDBRANCH  28  29
BRANCH  28  31
HETATM   31  N3  UNL     1      61.232  40.845  39.416  1.00  0.00    -0.276 N 
ATOM     32  H3  UNL     1      60.853  40.108  40.011  1.00  0.00     0.189 HD
BRANCH  31  33
HETATM   33  N4  UNL     1      62.012  40.550  38.276  1.00  0.00    -0.248 N 
HETATM   34  C10 UNL     1      63.010  39.582  38.386  1.00  0.00     0.356 C 
HETATM   35  O12 UNL     1      63.174  39.050  39.551  1.00  0.00    -0.244 OA
HETATM   36  N5  UNL     1      63.836  39.161  37.344  1.00  0.00    -0.214 N 
ATOM     37  H5  UNL     1      63.737  39.574  36.416  1.00  0.00     0.195 HD
ATOM     38  H4  UNL     1      61.849  41.033  37.392  1.00  0.00     0.192 HD
BRANCH  36  39
HETATM   39  N6  UNL     1      64.775  38.199  37.566  1.00  0.00    -0.094 N 
HETATM   40  N7  UNL     1      64.702  36.868  37.751  1.00  0.00    -0.194 N 
HETATM   41  N8  UNL     1      65.968  36.695  37.828  1.00  0.00    -0.206 N 
ATOM     42  H7  UNL     1      63.914  36.223  37.810  1.00  0.00     0.213 HD
HETATM   43  N9  UNL     1      66.126  38.041  37.644  1.00  0.00     0.036 NA
ATOM     44  H8  UNL     1      66.589  35.898  37.966  1.00  0.00     0.207 HD
ENDBRANCH  36  39
ENDBRANCH  31  33
ENDBRANCH  28  31
ENDBRANCH   1  28
TORSDOF 14
ENDMDL
MODEL 4
REMARK VINA RESULT: -6.920691868      3.632      6.464
REMARK  14 active torsions:
REMARK  status: ('A' for Active; 'I' for Inactive)
REMARK    1  A    between atoms: N1_1  and  C1_5 
REMARK    2  A    between atoms: C1_5  and  N2_6 
REMARK    3  A    between atoms: C1_5  and  C9_28 
REMARK       I    between atoms: N2_6  and  C2_8 
REMARK    4  A    between atoms: C2_8  and  C3_10 
REMARK    5  A    between atoms: C3_10  and  C4_12 
REMARK    6  A    between atoms: C5_14  and  O4_15 
REMARK    7  A    between atoms: C6_17  and  C7_18 
REMARK    8  A    between atoms: C7_18  and  O5_19 
REMARK    9  A    between atoms: C8_22  and  O7_23 
REMARK   10  A    between atoms: O7_23  and  S1_24 
REMARK   11  A    between atoms: C9_28  and  O11_29 
REMARK   12  A    between atoms: C9_28  and  N3_31 
REMARK   13  A    between atoms: N3_31  and  N4_33 
REMARK       I    between atoms: N4_33  and  C10_35 
REMARK       I    between atoms: C10_35  and  N5_37 
REMARK   14  A    between atoms: N5_37  and  N6_39 
ROOT
HETATM    1  C1  UNL     1      62.660  44.115  37.523  1.00  0.00     0.360 C 
ENDROOT
BRANCH   1   2
HETATM    2  N1  UNL     1      62.342  43.171  38.731  1.00  0.00    -0.051 N 
ATOM      3  H13 UNL     1      62.666  43.498  39.642  1.00  0.00     0.277 HD
ATOM      4  H12 UNL     1      61.360  43.118  39.001  1.00  0.00     0.277 HD
ATOM      5  H11 UNL     1      62.756  42.297  38.406  1.00  0.00     0.277 HD
ENDBRANCH   1   2
BRANCH   1   6
HETATM    6  N2  UNL     1      61.445  44.886  37.454  1.00  0.00    -0.320 N 
HETATM    7  C2  UNL     1      61.607  46.182  36.921  1.00  0.00     0.292 C 
HETATM    8  O1  UNL     1      62.795  46.590  36.593  1.00  0.00    -0.264 OA
ATOM      9  H2  UNL     1      60.543  44.525  37.765  1.00  0.00     0.165 HD
BRANCH   7  10
HETATM   10  C3  UNL     1      60.544  47.144  36.685  1.00  0.00     0.250 C 
HETATM   11  O2  UNL     1      60.474  47.702  35.571  1.00  0.00    -0.284 OA
BRANCH  10  12
HETATM   12  C4  UNL     1      59.558  47.440  37.754  1.00  0.00     0.260 C 
HETATM   13  O3  UNL     1      59.952  46.971  38.971  1.00  0.00    -0.341 OA
HETATM   14  C5  UNL     1      60.106  47.908  39.982  1.00  0.00     0.289 C 
HETATM   15  C6  UNL     1      60.932  49.034  39.544  1.00  0.00     0.203 C 
HETATM   16  O6  UNL     1      60.813  49.343  38.165  1.00  0.00    -0.345 OA
HETATM   17  C8  UNL     1      59.495  49.014  37.743  1.00  0.00     0.319 C 
BRANCH  14  18
HETATM   18  O4  UNL     1      60.780  47.179  41.016  1.00  0.00    -0.369 OA
ATOM     19  H4  UNL     1      61.325  47.836  41.433  1.00  0.00     0.212 HD
ENDBRANCH  14  18
BRANCH  15  20
HETATM   20  C7  UNL     1      60.737  50.272  40.360  1.00  0.00     0.201 C 
BRANCH  20  21
HETATM   21  O5  UNL     1      59.610  50.256  41.172  1.00  0.00    -0.398 OA
ATOM     22  H5  UNL     1      58.810  50.536  40.742  1.00  0.00     0.209 HD
ENDBRANCH  20  21
ENDBRANCH  15  20
BRANCH  17  23
HETATM   23  O7  UNL     1      58.613  49.503  38.605  1.00  0.00    -0.221 OA
BRANCH  23  24
HETATM   24  S1  UNL     1      57.595  50.684  38.119  1.00  0.00     0.254 S 
HETATM   25  O8  UNL     1      56.164  50.305  38.035  1.00  0.00    -0.572 OA
HETATM   26  O9  UNL     1      58.004  51.133  36.746  1.00  0.00    -0.572 OA
HETATM   27  O10 UNL     1      57.858  52.018  39.147  1.00  0.00    -0.572 OA
ENDBRANCH  23  24
ENDBRANCH  17  23
ENDBRANCH  10  12
ENDBRANCH   7  10
ENDBRANCH   1   6
BRANCH   1  28
HETATM   28  C9  UNL     1      62.816  43.202  36.390  1.00  0.00     0.181 C 
BRANCH  28  29
HETATM   29  O11 UNL     1      63.370  43.708  35.321  1.00  0.00    -0.345 OA
ATOM     30  H11 UNL     1      63.386  43.145  34.556  1.00  0.00     0.219 HD
ENDBRANCH  28  29
BRANCH  28  31
HETATM   31  N3  UNL     1      62.438  41.841  36.354  1.00  0.00    -0.276 N 
ATOM     32  H3  UNL     1      61.460  41.558  36.280  1.00  0.00     0.189 HD
BRANCH  31  33
HETATM   33  N4  UNL     1      63.482  40.891  36.424  1.00  0.00    -0.248 N 
HETATM   34  C10 UNL     1      63.531  40.039  37.527  1.00  0.00     0.356 C 
HETATM   35  O12 UNL     1      62.628  40.213  38.434  1.00  0.00    -0.244 OA
HETATM   36  N5  UNL     1      64.478  39.034  37.720  1.00  0.00    -0.214 N 
ATOM     37  H5  UNL     1      65.210  38.882  37.026  1.00  0.00     0.195 HD
ATOM     38  H4  UNL     1      64.183  40.830  35.685  1.00  0.00     0.192 HD
BRANCH  36  39
HETATM   39  N6  UNL     1      64.424  38.253  38.836  1.00  0.00    -0.094 N 
HETATM   40  N7  UNL     1      64.052  38.491  40.107  1.00  0.00    -0.194 N 
HETATM   41  N8  UNL     1      64.225  37.286  40.503  1.00  0.00    -0.206 N 
ATOM     42  H7  UNL     1      63.742  39.335  40.588  1.00  0.00     0.213 HD
HETATM   43  N9  UNL     1      64.616  36.964  39.233  1.00  0.00     0.036 NA
ATOM     44  H8  UNL     1      64.118  36.784  41.384  1.00  0.00     0.207 HD
ENDBRANCH  36  39
ENDBRANCH  31  33
ENDBRANCH  28  31
ENDBRANCH   1  28
TORSDOF 14
ENDMDL
MODEL 5
REMARK VINA RESULT: -6.862943313      3.772      6.651
REMARK  14 active torsions:
REMARK  status: ('A' for Active; 'I' for Inactive)
REMARK    1  A    between atoms: N1_1  and  C1_5 
REMARK    2  A    between atoms: C1_5  and  N2_6 
REMARK    3  A    between atoms: C1_5  and  C9_28 
REMARK       I    between atoms: N2_6  and  C2_8 
REMARK    4  A    between atoms: C2_8  and  C3_10 
REMARK    5  A    between atoms: C3_10  and  C4_12 
REMARK    6  A    between atoms: C5_14  and  O4_15 
REMARK    7  A    between atoms: C6_17  and  C7_18 
REMARK    8  A    between atoms: C7_18  and  O5_19 
REMARK    9  A    between atoms: C8_22  and  O7_23 
REMARK   10  A    between atoms: O7_23  and  S1_24 
REMARK   11  A    between atoms: C9_28  and  O11_29 
REMARK   12  A    between atoms: C9_28  and  N3_31 
REMARK   13  A    between atoms: N3_31  and  N4_33 
REMARK       I    between atoms: N4_33  and  C10_35 
REMARK       I    between atoms: C10_35  and  N5_37 
REMARK   14  A    between atoms: N5_37  and  N6_39 
ROOT
HETATM    1  C1  UNL     1      62.832  43.493  36.632  1.00  0.00     0.360 C 
ENDROOT
BRANCH   1   2
HETATM    2  N1  UNL     1      63.104  43.659  38.166  1.00  0.00    -0.051 N 
ATOM      3  H13 UNL     1      64.081  43.795  38.427  1.00  0.00     0.277 HD
ATOM      4  H12 UNL     1      62.780  44.534  38.577  1.00  0.00     0.277 HD
ATOM      5  H11 UNL     1      62.666  42.814  38.531  1.00  0.00     0.277 HD
ENDBRANCH   1   2
BRANCH   1   6
HETATM    6  N2  UNL     1      61.631  44.274  36.483  1.00  0.00    -0.320 N 
HETATM    7  C2  UNL     1      61.838  45.669  36.501  1.00  0.00     0.292 C 
HETATM    8  O1  UNL     1      63.036  46.131  36.695  1.00  0.00    -0.264 OA
ATOM      9  H2  UNL     1      60.708  43.854  36.373  1.00  0.00     0.165 HD
BRANCH   7  10
HETATM   10  C3  UNL     1      60.815  46.684  36.314  1.00  0.00     0.250 C 
HETATM   11  O2  UNL     1      60.831  47.368  35.270  1.00  0.00    -0.284 OA
BRANCH  10  12
HETATM   12  C4  UNL     1      59.769  46.885  37.347  1.00  0.00     0.260 C 
HETATM   13  O3  UNL     1      60.074  46.270  38.525  1.00  0.00    -0.341 OA
HETATM   14  C5  UNL     1      60.182  47.082  39.643  1.00  0.00     0.289 C 
HETATM   15  C6  UNL     1      61.057  48.227  39.388  1.00  0.00     0.203 C 
HETATM   16  O6  UNL     1      61.034  48.693  38.050  1.00  0.00    -0.345 OA
HETATM   17  C8  UNL     1      59.739  48.451  37.512  1.00  0.00     0.319 C 
BRANCH  14  18
HETATM   18  O4  UNL     1      60.772  46.223  40.626  1.00  0.00    -0.369 OA
ATOM     19  H4  UNL     1      60.110  46.171  41.305  1.00  0.00     0.212 HD
ENDBRANCH  14  18
BRANCH  15  20
HETATM   20  C7  UNL     1      60.836  49.369  40.328  1.00  0.00     0.201 C 
BRANCH  20  21
HETATM   21  O5  UNL     1      61.104  50.621  39.788  1.00  0.00    -0.398 OA
ATOM     22  H5  UNL     1      61.662  51.171  40.325  1.00  0.00     0.209 HD
ENDBRANCH  20  21
ENDBRANCH  15  20
BRANCH  17  23
HETATM   23  O7  UNL     1      58.814  48.864  38.369  1.00  0.00    -0.221 OA
BRANCH  23  24
HETATM   24  S1  UNL     1      57.934  50.193  38.011  1.00  0.00     0.254 S 
HETATM   25  O8  UNL     1      58.245  50.839  36.713  1.00  0.00    -0.572 OA
HETATM   26  O9  UNL     1      58.171  51.225  39.075  1.00  0.00    -0.572 OA
HETATM   27  O10 UNL     1      56.294  49.749  38.144  1.00  0.00    -0.572 OA
ENDBRANCH  23  24
ENDBRANCH  17  23
ENDBRANCH  10  12
ENDBRANCH   7  10
ENDBRANCH   1   6
BRANCH   1  28
HETATM   28  C9  UNL     1      62.598  42.058  36.466  1.00  0.00     0.181 C 
BRANCH  28  29
HETATM   29  O11 UNL     1      62.215  41.675  35.278  1.00  0.00    -0.345 OA
ATOM     30  H11 UNL     1      62.892  41.645  34.613  1.00  0.00     0.219 HD
ENDBRANCH  28  29
BRANCH  28  31
HETATM   31  N3  UNL     1      62.759  41.063  37.457  1.00  0.00    -0.276 N 
ATOM     32  H3  UNL     1      62.424  41.198  38.411  1.00  0.00     0.189 HD
BRANCH  31  33
HETATM   33  N4  UNL     1      63.407  39.872  37.060  1.00  0.00    -0.248 N 
HETATM   34  C10 UNL     1      64.331  39.296  37.932  1.00  0.00     0.356 C 
HETATM   35  O12 UNL     1      64.557  39.928  39.035  1.00  0.00    -0.244 OA
HETATM   36  N5  UNL     1      65.024  38.109  37.694  1.00  0.00    -0.214 N 
ATOM     37  H5  UNL     1      64.874  37.596  36.825  1.00  0.00     0.195 HD
ATOM     38  H4  UNL     1      63.204  39.443  36.156  1.00  0.00     0.192 HD
BRANCH  36  39
HETATM   39  N6  UNL     1      65.899  37.635  38.624  1.00  0.00    -0.094 N 
HETATM   40  N7  UNL     1      65.766  37.275  39.914  1.00  0.00    -0.194 N 
HETATM   41  N8  UNL     1      66.982  36.900  40.054  1.00  0.00    -0.206 N 
ATOM     42  H7  UNL     1      64.974  37.294  40.556  1.00  0.00     0.213 HD
HETATM   43  N9  UNL     1      67.198  37.242  38.747  1.00  0.00     0.036 NA
ATOM     44  H8  UNL     1      67.545  36.513  40.811  1.00  0.00     0.207 HD
ENDBRANCH  36  39
ENDBRANCH  31  33
ENDBRANCH  28  31
ENDBRANCH   1  28
TORSDOF 14
ENDMDL
