MODEL 1
REMARK VINA RESULT: -8.090744995      0.000      0.000
REMARK  12 active torsions:
REMARK  status: ('A' for Active; 'I' for Inactive)
REMARK    1  A    between atoms: C1_4  and  C2_6 
REMARK    2  A    between atoms: N3_8  and  C4_9 
REMARK    3  A    between atoms: C7_14  and  C8_15 
REMARK    4  A    between atoms: C8_15  and  O3_16 
REMARK    5  A    between atoms: C8_15  and  C9_18 
REMARK    6  A    between atoms: C9_18  and  O4_19 
REMARK    7  A    between atoms: C9_18  and  C10_21 
REMARK    8  A    between atoms: C10_21  and  O5_22 
REMARK    9  A    between atoms: C10_21  and  C11_24 
REMARK   10  A    between atoms: C11_24  and  O6_25 
REMARK   11  A    between atoms: C14_32  and  C15_33 
REMARK   12  A    between atoms: C16_38  and  O9_39 
ROOT
HETATM    1  C4  UNL     1      62.701  40.729  38.805  1.00  0.00     0.166 C 
HETATM    2  C5  UNL     1      61.306  40.256  39.126  1.00  0.00     0.142 C 
HETATM    3  C6  UNL     1      60.914  40.548  40.537  1.00  0.00     0.261 C 
HETATM    4  O1  UNL     1      61.444  39.763  41.373  1.00  0.00    -0.265 OA
HETATM    5  O2  UNL     1      60.090  41.545  40.775  1.00  0.00    -0.312 OA
HETATM    6  C7  UNL     1      60.013  42.854  41.166  1.00  0.00     0.181 C 
HETATM    7  C12 UNL     1      60.764  43.731  40.210  1.00  0.00     0.157 C 
HETATM    8  N4  UNL     1      60.251  43.624  38.872  1.00  0.00    -0.356 N 
ATOM      9  H4  UNL     1      59.308  43.254  38.761  1.00  0.00     0.162 HD
HETATM   10  C13 UNL     1      60.947  43.991  37.698  1.00  0.00     0.249 C 
HETATM   11  O7  UNL     1      60.330  44.186  36.608  1.00  0.00    -0.271 OA
HETATM   12  C14 UNL     1      62.421  44.168  37.653  1.00  0.00     0.262 C 
HETATM   13  N6  UNL     1      63.163  43.010  38.024  1.00  0.00    -0.376 N 
ATOM     14  H6  UNL     1      64.053  43.078  38.519  1.00  0.00     0.157 HD
HETATM   15  C16 UNL     1      62.597  41.751  37.669  1.00  0.00     0.240 C 
ENDROOT
BRANCH   1  16
HETATM   16  N3  UNL     1      63.564  39.628  38.415  1.00  0.00    -0.277 N 
HETATM   17  C3  UNL     1      64.755  39.333  38.979  1.00  0.00     0.146 A 
HETATM   18  C2  UNL     1      65.306  38.226  38.366  1.00  0.00     0.107 A 
HETATM   19  N8  UNL     1      64.410  37.877  37.425  1.00  0.00    -0.282 N 
HETATM   20  N7  UNL     1      63.384  38.726  37.474  1.00  0.00    -0.240 N 
ATOM     21  H8  UNL     1      64.501  37.092  36.780  1.00  0.00     0.188 HD
ATOM     22  H7  UNL     1      62.569  38.683  36.864  1.00  0.00     0.208 HD
BRANCH  18  23
HETATM   23  C1  UNL     1      66.582  37.593  38.687  1.00  0.00     0.139 C 
HETATM   24  N1  UNL     1      66.869  36.412  38.260  1.00  0.00    -0.386 N 
ATOM     25  H12 UNL     1      67.760  35.970  38.484  1.00  0.00     0.157 HD
ATOM     26  H11 UNL     1      66.172  35.934  37.690  1.00  0.00     0.157 HD
HETATM   27  N2  UNL     1      67.553  38.258  39.481  1.00  0.00    -0.081 NA
ENDBRANCH  18  23
ENDBRANCH   1  16
BRANCH  15  28
HETATM   28  O9  UNL     1      63.303  41.270  36.553  1.00  0.00    -0.375 OA
ATOM     29  H9  UNL     1      63.292  41.931  35.870  1.00  0.00     0.212 HD
ENDBRANCH  15  28
BRANCH  12  30
HETATM   30  C15 UNL     1      62.869  44.761  36.372  1.00  0.00     0.263 C 
HETATM   31  N5  UNL     1      63.179  43.990  35.228  1.00  0.00    -0.060 NA
HETATM   32  O8  UNL     1      62.965  46.033  36.339  1.00  0.00    -0.274 OA
ENDBRANCH  12  30
BRANCH   6  33
HETATM   33  C8  UNL     1      58.528  43.140  41.259  1.00  0.00     0.180 C 
BRANCH  33  34
HETATM   34  O3  UNL     1      58.422  44.518  40.958  1.00  0.00    -0.390 OA
ATOM     35  H3  UNL     1      58.909  44.945  41.653  1.00  0.00     0.210 HD
ENDBRANCH  33  34
BRANCH  33  36
HETATM   36  C9  UNL     1      57.620  42.340  40.442  1.00  0.00     0.180 C 
BRANCH  36  37
HETATM   37  O4  UNL     1      56.544  43.165  40.006  1.00  0.00    -0.390 OA
ATOM     38  H4  UNL     1      55.899  43.224  40.701  1.00  0.00     0.210 HD
ENDBRANCH  36  37
BRANCH  36  39
HETATM   39  C10 UNL     1      57.066  41.066  41.020  1.00  0.00     0.173 C 
BRANCH  39  40
HETATM   40  O5  UNL     1      56.705  41.434  42.356  1.00  0.00    -0.391 OA
ATOM     41  H5  UNL     1      56.083  42.141  42.231  1.00  0.00     0.210 HD
ENDBRANCH  39  40
BRANCH  39  42
HETATM   42  C11 UNL     1      55.758  40.656  40.392  1.00  0.00     0.198 C 
BRANCH  42  43
HETATM   43  O6  UNL     1      56.006  39.398  39.764  1.00  0.00    -0.398 OA
ATOM     44  H6  UNL     1      55.188  38.917  39.815  1.00  0.00     0.209 HD
ENDBRANCH  42  43
ENDBRANCH  39  42
ENDBRANCH  36  39
ENDBRANCH  33  36
ENDBRANCH   6  33
TORSDOF 12
ENDMDL
MODEL 2
REMARK VINA RESULT: -7.991137093      1.695      1.866
REMARK  12 active torsions:
REMARK  status: ('A' for Active; 'I' for Inactive)
REMARK    1  A    between atoms: C1_4  and  C2_6 
REMARK    2  A    between atoms: N3_8  and  C4_9 
REMARK    3  A    between atoms: C7_14  and  C8_15 
REMARK    4  A    between atoms: C8_15  and  O3_16 
REMARK    5  A    between atoms: C8_15  and  C9_18 
REMARK    6  A    between atoms: C9_18  and  O4_19 
REMARK    7  A    between atoms: C9_18  and  C10_21 
REMARK    8  A    between atoms: C10_21  and  O5_22 
REMARK    9  A    between atoms: C10_21  and  C11_24 
REMARK   10  A    between atoms: C11_24  and  O6_25 
REMARK   11  A    between atoms: C14_32  and  C15_33 
REMARK   12  A    between atoms: C16_38  and  O9_39 
ROOT
HETATM    1  C4  UNL     1      63.767  39.632  39.257  1.00  0.00     0.166 C 
HETATM    2  C5  UNL     1      62.560  39.068  39.963  1.00  0.00     0.142 C 
HETATM    3  C6  UNL     1      62.379  39.639  41.330  1.00  0.00     0.261 C 
HETATM    4  O1  UNL     1      63.182  39.162  42.180  1.00  0.00    -0.265 OA
HETATM    5  O2  UNL     1      61.443  40.544  41.522  1.00  0.00    -0.312 OA
HETATM    6  C7  UNL     1      61.200  41.886  41.633  1.00  0.00     0.181 C 
HETATM    7  C12 UNL     1      61.597  42.596  40.374  1.00  0.00     0.157 C 
HETATM    8  N4  UNL     1      60.884  42.097  39.232  1.00  0.00    -0.356 N 
ATOM      9  H4  UNL     1      60.019  41.586  39.408  1.00  0.00     0.162 HD
HETATM   10  C13 UNL     1      61.282  42.256  37.886  1.00  0.00     0.249 C 
HETATM   11  O7  UNL     1      60.457  42.094  36.937  1.00  0.00    -0.271 OA
HETATM   12  C14 UNL     1      62.668  42.615  37.488  1.00  0.00     0.262 C 
HETATM   13  N6  UNL     1      63.662  41.694  37.929  1.00  0.00    -0.376 N 
ATOM     14  H6  UNL     1      64.598  42.001  38.195  1.00  0.00     0.157 HD
HETATM   15  C16 UNL     1      63.279  40.322  37.979  1.00  0.00     0.240 C 
ENDROOT
BRANCH   1  16
HETATM   16  N3  UNL     1      64.733  38.596  38.934  1.00  0.00    -0.277 N 
HETATM   17  C3  UNL     1      65.977  38.503  39.448  1.00  0.00     0.146 A 
HETATM   18  C2  UNL     1      66.623  37.401  38.924  1.00  0.00     0.107 A 
HETATM   19  N8  UNL     1      65.726  36.848  38.087  1.00  0.00    -0.282 N 
HETATM   20  N7  UNL     1      64.612  37.578  38.110  1.00  0.00    -0.240 N 
ATOM     21  H8  UNL     1      65.876  36.009  37.526  1.00  0.00     0.188 HD
ATOM     22  H7  UNL     1      63.776  37.373  37.562  1.00  0.00     0.208 HD
BRANCH  18  23
HETATM   23  C1  UNL     1      67.979  36.955  39.228  1.00  0.00     0.139 C 
HETATM   24  N1  UNL     1      68.460  35.876  38.715  1.00  0.00    -0.386 N 
ATOM     25  H12 UNL     1      69.408  35.565  38.927  1.00  0.00     0.157 HD
ATOM     26  H11 UNL     1      67.858  35.343  38.087  1.00  0.00     0.157 HD
HETATM   27  N2  UNL     1      68.817  37.697  40.102  1.00  0.00    -0.081 NA
ENDBRANCH  18  23
ENDBRANCH   1  16
BRANCH  15  28
HETATM   28  O9  UNL     1      63.852  39.683  36.866  1.00  0.00    -0.375 OA
ATOM     29  H9  UNL     1      63.159  39.307  36.334  1.00  0.00     0.212 HD
ENDBRANCH  15  28
BRANCH  12  30
HETATM   30  C15 UNL     1      62.765  42.932  36.045  1.00  0.00     0.263 C 
HETATM   31  N5  UNL     1      63.182  44.192  35.555  1.00  0.00    -0.060 NA
HETATM   32  O8  UNL     1      62.451  41.997  35.236  1.00  0.00    -0.274 OA
ENDBRANCH  12  30
BRANCH   6  33
HETATM   33  C8  UNL     1      59.728  41.982  41.981  1.00  0.00     0.180 C 
BRANCH  33  34
HETATM   34  O3  UNL     1      59.286  43.135  41.291  1.00  0.00    -0.390 OA
ATOM     35  H3  UNL     1      59.593  43.858  41.827  1.00  0.00     0.210 HD
ENDBRANCH  33  34
BRANCH  33  36
HETATM   36  C9  UNL     1      58.878  40.828  41.701  1.00  0.00     0.180 C 
BRANCH  36  37
HETATM   37  O4  UNL     1      58.625  40.771  40.300  1.00  0.00    -0.390 OA
ATOM     38  H4  UNL     1      58.129  41.540  40.045  1.00  0.00     0.210 HD
ENDBRANCH  36  37
BRANCH  36  39
HETATM   39  C10 UNL     1      57.578  40.696  42.446  1.00  0.00     0.173 C 
BRANCH  39  40
HETATM   40  O5  UNL     1      57.456  41.947  43.130  1.00  0.00    -0.391 OA
ATOM     41  H5  UNL     1      56.967  41.726  43.913  1.00  0.00     0.210 HD
ENDBRANCH  39  40
BRANCH  39  42
HETATM   42  C11 UNL     1      56.378  40.666  41.533  1.00  0.00     0.198 C 
BRANCH  42  43
HETATM   43  O6  UNL     1      56.323  39.340  41.005  1.00  0.00    -0.398 OA
ATOM     44  H6  UNL     1      56.977  39.309  40.316  1.00  0.00     0.209 HD
ENDBRANCH  42  43
ENDBRANCH  39  42
ENDBRANCH  36  39
ENDBRANCH  33  36
ENDBRANCH   6  33
TORSDOF 12
ENDMDL
MODEL 3
REMARK VINA RESULT: -7.940697146      0.870      1.301
REMARK  12 active torsions:
REMARK  status: ('A' for Active; 'I' for Inactive)
REMARK    1  A    between atoms: C1_4  and  C2_6 
REMARK    2  A    between atoms: N3_8  and  C4_9 
REMARK    3  A    between atoms: C7_14  and  C8_15 
REMARK    4  A    between atoms: C8_15  and  O3_16 
REMARK    5  A    between atoms: C8_15  and  C9_18 
REMARK    6  A    between atoms: C9_18  and  O4_19 
REMARK    7  A    between atoms: C9_18  and  C10_21 
REMARK    8  A    between atoms: C10_21  and  O5_22 
REMARK    9  A    between atoms: C10_21  and  C11_24 
REMARK   10  A    between atoms: C11_24  and  O6_25 
REMARK   11  A    between atoms: C14_32  and  C15_33 
REMARK   12  A    between atoms: C16_38  and  O9_39 
ROOT
HETATM    1  C4  UNL     1      62.663  40.719  38.799  1.00  0.00     0.166 C 
HETATM    2  C5  UNL     1      61.263  40.245  39.095  1.00  0.00     0.142 C 
HETATM    3  C6  UNL     1      60.852  40.521  40.503  1.00  0.00     0.261 C 
HETATM    4  O1  UNL     1      61.368  39.725  41.337  1.00  0.00    -0.265 OA
HETATM    5  O2  UNL     1      60.026  41.518  40.741  1.00  0.00    -0.312 OA
HETATM    6  C7  UNL     1      59.946  42.822  41.146  1.00  0.00     0.181 C 
HETATM    7  C12 UNL     1      60.712  43.709  40.211  1.00  0.00     0.157 C 
HETATM    8  N4  UNL     1      60.218  43.618  38.866  1.00  0.00    -0.356 N 
ATOM      9  H4  UNL     1      59.276  43.251  38.737  1.00  0.00     0.162 HD
HETATM   10  C13 UNL     1      60.932  43.997  37.706  1.00  0.00     0.249 C 
HETATM   11  O7  UNL     1      60.331  44.207  36.609  1.00  0.00    -0.271 OA
HETATM   12  C14 UNL     1      62.407  44.172  37.684  1.00  0.00     0.262 C 
HETATM   13  N6  UNL     1      63.141  43.008  38.052  1.00  0.00    -0.376 N 
ATOM     14  H6  UNL     1      64.024  43.068  38.560  1.00  0.00     0.157 HD
HETATM   15  C16 UNL     1      62.578  41.755  37.674  1.00  0.00     0.240 C 
ENDROOT
BRANCH   1  16
HETATM   16  N3  UNL     1      63.530  39.621  38.409  1.00  0.00    -0.277 N 
HETATM   17  C3  UNL     1      64.719  39.327  38.975  1.00  0.00     0.146 A 
HETATM   18  C2  UNL     1      65.275  38.223  38.361  1.00  0.00     0.107 A 
HETATM   19  N8  UNL     1      64.382  37.874  37.416  1.00  0.00    -0.282 N 
HETATM   20  N7  UNL     1      63.355  38.721  37.465  1.00  0.00    -0.240 N 
ATOM     21  H8  UNL     1      64.477  37.091  36.769  1.00  0.00     0.188 HD
ATOM     22  H7  UNL     1      62.541  38.678  36.852  1.00  0.00     0.208 HD
BRANCH  18  23
HETATM   23  C1  UNL     1      66.551  37.591  38.683  1.00  0.00     0.139 C 
HETATM   24  N1  UNL     1      66.839  36.409  38.261  1.00  0.00    -0.386 N 
ATOM     25  H12 UNL     1      67.731  35.968  38.486  1.00  0.00     0.157 HD
ATOM     26  H11 UNL     1      66.142  35.928  37.692  1.00  0.00     0.157 HD
HETATM   27  N2  UNL     1      67.522  38.260  39.475  1.00  0.00    -0.081 NA
ENDBRANCH  18  23
ENDBRANCH   1  16
BRANCH  15  28
HETATM   28  O9  UNL     1      63.299  41.285  36.562  1.00  0.00    -0.375 OA
ATOM     29  H9  UNL     1      63.037  41.777  35.792  1.00  0.00     0.212 HD
ENDBRANCH  15  28
BRANCH  12  30
HETATM   30  C15 UNL     1      62.874  44.780  36.416  1.00  0.00     0.263 C 
HETATM   31  N5  UNL     1      63.200  44.021  35.268  1.00  0.00    -0.060 NA
HETATM   32  O8  UNL     1      62.972  46.051  36.399  1.00  0.00    -0.274 OA
ENDBRANCH  12  30
BRANCH   6  33
HETATM   33  C8  UNL     1      58.460  43.109  41.222  1.00  0.00     0.180 C 
BRANCH  33  34
HETATM   34  O3  UNL     1      57.947  42.595  40.007  1.00  0.00    -0.390 OA
ATOM     35  H3  UNL     1      57.021  42.805  40.039  1.00  0.00     0.210 HD
ENDBRANCH  33  34
BRANCH  33  36
HETATM   36  C9  UNL     1      57.718  42.606  42.374  1.00  0.00     0.180 C 
BRANCH  36  37
HETATM   37  O4  UNL     1      58.645  42.184  43.371  1.00  0.00    -0.390 OA
ATOM     38  H4  UNL     1      58.230  41.529  43.919  1.00  0.00     0.210 HD
ENDBRANCH  36  37
BRANCH  36  39
HETATM   39  C10 UNL     1      56.698  41.523  42.155  1.00  0.00     0.173 C 
BRANCH  39  40
HETATM   40  O5  UNL     1      57.479  40.417  41.692  1.00  0.00    -0.391 OA
ATOM     41  H5  UNL     1      56.829  39.813  41.352  1.00  0.00     0.210 HD
ENDBRANCH  39  40
BRANCH  39  42
HETATM   42  C11 UNL     1      56.087  41.023  43.441  1.00  0.00     0.198 C 
BRANCH  42  43
HETATM   43  O6  UNL     1      56.840  39.864  43.803  1.00  0.00    -0.398 OA
ATOM     44  H6  UNL     1      57.218  40.057  44.652  1.00  0.00     0.209 HD
ENDBRANCH  42  43
ENDBRANCH  39  42
ENDBRANCH  36  39
ENDBRANCH  33  36
ENDBRANCH   6  33
TORSDOF 12
ENDMDL
MODEL 4
REMARK VINA RESULT: -7.826686065      1.002      1.284
REMARK  12 active torsions:
REMARK  status: ('A' for Active; 'I' for Inactive)
REMARK    1  A    between atoms: C1_4  and  C2_6 
REMARK    2  A    between atoms: N3_8  and  C4_9 
REMARK    3  A    between atoms: C7_14  and  C8_15 
REMARK    4  A    between atoms: C8_15  and  O3_16 
REMARK    5  A    between atoms: C8_15  and  C9_18 
REMARK    6  A    between atoms: C9_18  and  O4_19 
REMARK    7  A    between atoms: C9_18  and  C10_21 
REMARK    8  A    between atoms: C10_21  and  O5_22 
REMARK    9  A    between atoms: C10_21  and  C11_24 
REMARK   10  A    between atoms: C11_24  and  O6_25 
REMARK   11  A    between atoms: C14_32  and  C15_33 
REMARK   12  A    between atoms: C16_38  and  O9_39 
ROOT
HETATM    1  C4  UNL     1      62.643  40.740  38.799  1.00  0.00     0.166 C 
HETATM    2  C5  UNL     1      61.237  40.278  39.089  1.00  0.00     0.142 C 
HETATM    3  C6  UNL     1      60.823  40.557  40.495  1.00  0.00     0.261 C 
HETATM    4  O1  UNL     1      61.328  39.756  41.331  1.00  0.00    -0.265 OA
HETATM    5  O2  UNL     1      60.005  41.561  40.730  1.00  0.00    -0.312 OA
HETATM    6  C7  UNL     1      59.935  42.865  41.136  1.00  0.00     0.181 C 
HETATM    7  C12 UNL     1      60.713  43.746  40.205  1.00  0.00     0.157 C 
HETATM    8  N4  UNL     1      60.224  43.661  38.857  1.00  0.00    -0.356 N 
ATOM      9  H4  UNL     1      59.279  43.302  38.724  1.00  0.00     0.162 HD
HETATM   10  C13 UNL     1      60.946  44.034  37.700  1.00  0.00     0.249 C 
HETATM   11  O7  UNL     1      60.352  44.249  36.602  1.00  0.00    -0.271 OA
HETATM   12  C14 UNL     1      62.422  44.195  37.684  1.00  0.00     0.262 C 
HETATM   13  N6  UNL     1      63.145  43.024  38.055  1.00  0.00    -0.376 N 
ATOM     14  H6  UNL     1      64.026  43.077  38.567  1.00  0.00     0.157 HD
HETATM   15  C16 UNL     1      62.572  41.777  37.674  1.00  0.00     0.240 C 
ENDROOT
BRANCH   1  16
HETATM   16  N3  UNL     1      63.502  39.634  38.412  1.00  0.00    -0.277 N 
HETATM   17  C3  UNL     1      64.693  39.338  38.973  1.00  0.00     0.146 A 
HETATM   18  C2  UNL     1      65.239  38.226  38.363  1.00  0.00     0.107 A 
HETATM   19  N8  UNL     1      64.338  37.875  37.427  1.00  0.00    -0.282 N 
HETATM   20  N7  UNL     1      63.315  38.728  37.476  1.00  0.00    -0.240 N 
ATOM     21  H8  UNL     1      64.424  37.086  36.786  1.00  0.00     0.188 HD
ATOM     22  H7  UNL     1      62.497  38.683  36.869  1.00  0.00     0.208 HD
BRANCH  18  23
HETATM   23  C1  UNL     1      66.514  37.590  38.682  1.00  0.00     0.139 C 
HETATM   24  N1  UNL     1      66.798  36.409  38.256  1.00  0.00    -0.386 N 
ATOM     25  H12 UNL     1      67.689  35.965  38.478  1.00  0.00     0.157 HD
ATOM     26  H11 UNL     1      66.099  35.932  37.686  1.00  0.00     0.157 HD
HETATM   27  N2  UNL     1      67.487  38.255  39.474  1.00  0.00    -0.081 NA
ENDBRANCH  18  23
ENDBRANCH   1  16
BRANCH  15  28
HETATM   28  O9  UNL     1      63.293  41.301  36.565  1.00  0.00    -0.375 OA
ATOM     29  H9  UNL     1      63.903  41.972  36.281  1.00  0.00     0.212 HD
ENDBRANCH  15  28
BRANCH  12  30
HETATM   30  C15 UNL     1      62.900  44.799  36.419  1.00  0.00     0.263 C 
HETATM   31  N5  UNL     1      63.222  44.038  35.271  1.00  0.00    -0.060 NA
HETATM   32  O8  UNL     1      63.012  46.070  36.404  1.00  0.00    -0.274 OA
ENDBRANCH  12  30
BRANCH   6  33
HETATM   33  C8  UNL     1      58.451  43.166  41.205  1.00  0.00     0.180 C 
BRANCH  33  34
HETATM   34  O3  UNL     1      57.906  42.470  40.101  1.00  0.00    -0.390 OA
ATOM     35  H3  UNL     1      57.119  42.065  40.447  1.00  0.00     0.210 HD
ENDBRANCH  33  34
BRANCH  33  36
HETATM   36  C9  UNL     1      57.742  42.853  42.443  1.00  0.00     0.180 C 
BRANCH  36  37
HETATM   37  O4  UNL     1      57.757  41.442  42.638  1.00  0.00    -0.390 OA
ATOM     38  H4  UNL     1      57.911  41.261  43.558  1.00  0.00     0.210 HD
ENDBRANCH  36  37
BRANCH  36  39
HETATM   39  C10 UNL     1      56.338  43.363  42.615  1.00  0.00     0.173 C 
BRANCH  39  40
HETATM   40  O5  UNL     1      56.111  44.125  41.424  1.00  0.00    -0.391 OA
ATOM     41  H5  UNL     1      55.403  43.660  40.994  1.00  0.00     0.210 HD
ENDBRANCH  39  40
BRANCH  39  42
HETATM   42  C11 UNL     1      55.302  42.269  42.547  1.00  0.00     0.198 C 
BRANCH  42  43
HETATM   43  O6  UNL     1      55.165  41.948  41.162  1.00  0.00    -0.398 OA
ATOM     44  H6  UNL     1      55.691  41.170  41.024  1.00  0.00     0.209 HD
ENDBRANCH  42  43
ENDBRANCH  39  42
ENDBRANCH  36  39
ENDBRANCH  33  36
ENDBRANCH   6  33
TORSDOF 12
ENDMDL
MODEL 5
REMARK VINA RESULT: -7.708809602      2.589      5.484
REMARK  12 active torsions:
REMARK  status: ('A' for Active; 'I' for Inactive)
REMARK    1  A    between atoms: C1_4  and  C2_6 
REMARK    2  A    between atoms: N3_8  and  C4_9 
REMARK    3  A    between atoms: C7_14  and  C8_15 
REMARK    4  A    between atoms: C8_15  and  O3_16 
REMARK    5  A    between atoms: C8_15  and  C9_18 
REMARK    6  A    between atoms: C9_18  and  O4_19 
REMARK    7  A    between atoms: C9_18  and  C10_21 
REMARK    8  A    between atoms: C10_21  and  O5_22 
REMARK    9  A    between atoms: C10_21  and  C11_24 
REMARK   10  A    between atoms: C11_24  and  O6_25 
REMARK   11  A    between atoms: C14_32  and  C15_33 
REMARK   12  A    between atoms: C16_38  and  O9_39 
ROOT
HETATM    1  C4  UNL     1      63.334  39.891  38.404  1.00  0.00     0.166 C 
HETATM    2  C5  UNL     1      63.877  41.221  37.947  1.00  0.00     0.142 C 
HETATM    3  C6  UNL     1      63.073  41.817  36.840  1.00  0.00     0.261 C 
HETATM    4  O1  UNL     1      63.285  41.271  35.720  1.00  0.00    -0.265 OA
HETATM    5  O2  UNL     1      62.255  42.811  37.111  1.00  0.00    -0.312 OA
HETATM    6  C7  UNL     1      60.952  43.140  37.365  1.00  0.00     0.181 C 
HETATM    7  C12 UNL     1      60.462  42.432  38.591  1.00  0.00     0.157 C 
HETATM    8  N4  UNL     1      61.248  42.760  39.748  1.00  0.00    -0.356 N 
ATOM      9  H4  UNL     1      61.805  43.612  39.707  1.00  0.00     0.162 HD
HETATM   10  C13 UNL     1      61.312  41.998  40.936  1.00  0.00     0.249 C 
HETATM   11  O7  UNL     1      61.745  42.505  42.014  1.00  0.00    -0.271 OA
HETATM   12  C14 UNL     1      60.890  40.575  41.010  1.00  0.00     0.262 C 
HETATM   13  N6  UNL     1      61.594  39.708  40.125  1.00  0.00    -0.376 N 
ATOM     14  H6  UNL     1      61.142  38.904  39.688  1.00  0.00     0.157 HD
HETATM   15  C16 UNL     1      62.963  40.021  39.884  1.00  0.00     0.240 C 
ENDROOT
BRANCH   1  16
HETATM   16  N3  UNL     1      64.301  38.823  38.218  1.00  0.00    -0.277 N 
HETATM   17  C3  UNL     1      65.480  38.717  38.867  1.00  0.00     0.146 A 
HETATM   18  C2  UNL     1      66.149  37.585  38.448  1.00  0.00     0.107 A 
HETATM   19  N8  UNL     1      65.335  37.028  37.534  1.00  0.00    -0.282 N 
HETATM   20  N7  UNL     1      64.244  37.783  37.414  1.00  0.00    -0.240 N 
ATOM     21  H8  UNL     1      65.522  36.168  37.017  1.00  0.00     0.188 HD
ATOM     22  H7  UNL     1      63.468  37.581  36.784  1.00  0.00     0.208 HD
BRANCH  18  23
HETATM   23  C1  UNL     1      67.453  37.117  38.911  1.00  0.00     0.139 C 
HETATM   24  N1  UNL     1      67.944  35.997  38.509  1.00  0.00    -0.386 N 
ATOM     25  H12 UNL     1      68.854  35.671  38.832  1.00  0.00     0.157 HD
ATOM     26  H11 UNL     1      67.388  35.446  37.854  1.00  0.00     0.157 HD
HETATM   27  N2  UNL     1      68.226  37.884  39.823  1.00  0.00    -0.081 NA
ENDBRANCH  18  23
ENDBRANCH   1  16
BRANCH  15  28
HETATM   28  O9  UNL     1      63.741  39.121  40.633  1.00  0.00    -0.375 OA
ATOM     29  H9  UNL     1      63.302  38.941  41.456  1.00  0.00     0.212 HD
ENDBRANCH  15  28
BRANCH  12  30
HETATM   30  C15 UNL     1      60.852  40.080  42.405  1.00  0.00     0.263 C 
HETATM   31  N5  UNL     1      61.893  39.320  42.986  1.00  0.00    -0.060 NA
HETATM   32  O8  UNL     1      59.812  40.375  43.083  1.00  0.00    -0.274 OA
ENDBRANCH  12  30
BRANCH   6  33
HETATM   33  C8  UNL     1      60.950  44.653  37.461  1.00  0.00     0.180 C 
BRANCH  33  34
HETATM   34  O3  UNL     1      61.742  44.927  38.601  1.00  0.00    -0.390 OA
ATOM     35  H3  UNL     1      61.631  45.860  38.741  1.00  0.00     0.210 HD
ENDBRANCH  33  34
BRANCH  33  36
HETATM   36  C9  UNL     1      61.395  45.418  36.299  1.00  0.00     0.180 C 
BRANCH  36  37
HETATM   37  O4  UNL     1      62.819  45.442  36.282  1.00  0.00    -0.390 OA
ATOM     38  H4  UNL     1      63.139  44.583  36.035  1.00  0.00     0.210 HD
ENDBRANCH  36  37
BRANCH  36  39
HETATM   39  C10 UNL     1      60.871  46.815  36.116  1.00  0.00     0.173 C 
BRANCH  39  40
HETATM   40  O5  UNL     1      59.682  46.834  36.913  1.00  0.00    -0.391 OA
ATOM     41  H5  UNL     1      60.011  46.917  37.800  1.00  0.00     0.210 HD
ENDBRANCH  39  40
BRANCH  39  42
HETATM   42  C11 UNL     1      61.751  47.861  36.754  1.00  0.00     0.198 C 
BRANCH  42  43
HETATM   43  O6  UNL     1      62.756  48.167  35.787  1.00  0.00    -0.398 OA
ATOM     44  H6  UNL     1      63.582  48.139  36.255  1.00  0.00     0.209 HD
ENDBRANCH  42  43
ENDBRANCH  39  42
ENDBRANCH  36  39
ENDBRANCH  33  36
ENDBRANCH   6  33
TORSDOF 12
ENDMDL
