MODEL 1
REMARK VINA RESULT: -6.718093654      0.000      0.000
REMARK  11 active torsions:
REMARK  status: ('A' for Active; 'I' for Inactive)
REMARK    1  A    between atoms: N1_1  and  N2_4 
REMARK    2  A    between atoms: N3_6  and  O1_7 
REMARK    3  A    between atoms: N3_6  and  C1_9 
REMARK    4  A    between atoms: C2_12  and  N5_13 
REMARK    5  A    between atoms: N5_13  and  C3_15 
REMARK    6  A    between atoms: C3_15  and  O4_24 
REMARK    7  A    between atoms: N6_16  and  C4_18 
REMARK    8  A    between atoms: C4_18  and  C5_19 
REMARK    9  A    between atoms: C5_19  and  O2_20 
REMARK   10  A    between atoms: O2_20  and  C6_21 
REMARK   11  A    between atoms: O4_24  and  N8_25 
ROOT
HETATM    1  C1  UNL     1      35.133  -5.375  13.269  1.00  0.00     0.198 A 
HETATM    2  N4  UNL     1      35.101  -4.035  13.184  1.00  0.00    -0.170 N 
ATOM      3  H4  UNL     1      34.281  -3.588  12.774  1.00  0.00     0.186 HD
HETATM    4  C2  UNL     1      36.118  -3.254  13.622  1.00  0.00     0.690 A 
HETATM    5  N9  UNL     1      37.205  -3.836  14.164  1.00  0.00    -0.154 N 
ATOM      6  H9  UNL     1      37.968  -3.245  14.493  1.00  0.00     0.187 HD
HETATM    7  C7  UNL     1      37.317  -5.170  14.286  1.00  0.00     0.287 A 
HETATM    8  O5  UNL     1      38.334  -5.707  14.793  1.00  0.00    -0.265 OA
HETATM    9  C8  UNL     1      36.270  -5.943  13.833  1.00  0.00     0.163 A 
HETATM   10  N10 UNL     1      36.304  -7.347  13.922  1.00  0.00    -0.092 NA
ENDROOT
BRANCH   4  11
HETATM   11  N5  UNL     1      36.042  -1.965  13.520  1.00  0.00    -0.153 N 
ATOM     12  H5  UNL     1      35.189  -1.483  13.804  1.00  0.00     0.188 HD
BRANCH  11  13
HETATM   13  C3  UNL     1      37.155  -1.210  13.006  1.00  0.00     0.256 C 
HETATM   14  N6  UNL     1      37.917  -0.545  13.790  1.00  0.00    -0.352 N 
ATOM     15  H6  UNL     1      37.713  -0.568  14.790  1.00  0.00     0.163 HD
BRANCH  14  16
HETATM   16  C4  UNL     1      39.052   0.238  13.346  1.00  0.00     0.150 C 
BRANCH  16  17
HETATM   17  C5  UNL     1      38.764   1.723  13.456  1.00  0.00     0.199 C 
BRANCH  17  18
HETATM   18  O2  UNL     1      37.900   2.134  12.451  1.00  0.00    -0.305 OA
BRANCH  18  19
HETATM   19  C6  UNL     1      36.673   2.666  12.636  1.00  0.00     0.372 C 
HETATM   20  N7  UNL     1      35.718   2.039  13.502  1.00  0.00    -0.032 NA
HETATM   21  O3  UNL     1      36.327   3.725  12.058  1.00  0.00    -0.242 OA
ENDBRANCH  18  19
ENDBRANCH  17  18
ENDBRANCH  16  17
ENDBRANCH  14  16
BRANCH  13  22
HETATM   22  O4  UNL     1      37.458  -1.161  11.647  1.00  0.00    -0.207 OA
BRANCH  22  23
HETATM   23  N8  UNL     1      36.725  -0.400  10.765  1.00  0.00    -0.302 N 
ATOM     24  H82 UNL     1      35.733  -0.265  10.958  1.00  0.00     0.184 HD
ATOM     25  H81 UNL     1      37.147   0.024   9.938  1.00  0.00     0.184 HD
ENDBRANCH  22  23
ENDBRANCH  13  22
ENDBRANCH  11  13
ENDBRANCH   4  11
BRANCH   1  26
HETATM   26  N3  UNL     1      34.065  -6.186  12.808  1.00  0.00    -0.129 N 
HETATM   27  N2  UNL     1      33.541  -5.996  11.677  1.00  0.00    -0.221 N 
ATOM     28  H2  UNL     1      33.894  -5.245  11.085  1.00  0.00     0.210 HD
BRANCH  27  29
HETATM   29  N1  UNL     1      32.491  -6.791  11.215  1.00  0.00    -0.329 N 
ATOM     30  H12 UNL     1      32.504  -7.786  11.440  1.00  0.00     0.178 HD
ATOM     31  H11 UNL     1      31.725  -6.398  10.667  1.00  0.00     0.178 HD
ENDBRANCH  27  29
BRANCH  26  32
HETATM   32  O1  UNL     1      33.578  -7.198  13.588  1.00  0.00    -0.265 OA
ATOM     33  H1  UNL     1      34.160  -7.597  14.224  1.00  0.00     0.247 HD
ENDBRANCH  26  32
ENDBRANCH   1  26
TORSDOF 11
ENDMDL
MODEL 2
REMARK VINA RESULT: -6.621264930      1.714      1.859
REMARK  11 active torsions:
REMARK  status: ('A' for Active; 'I' for Inactive)
REMARK    1  A    between atoms: N1_1  and  N2_4 
REMARK    2  A    between atoms: N3_6  and  O1_7 
REMARK    3  A    between atoms: N3_6  and  C1_9 
REMARK    4  A    between atoms: C2_12  and  N5_13 
REMARK    5  A    between atoms: N5_13  and  C3_15 
REMARK    6  A    between atoms: C3_15  and  O4_24 
REMARK    7  A    between atoms: N6_16  and  C4_18 
REMARK    8  A    between atoms: C4_18  and  C5_19 
REMARK    9  A    between atoms: C5_19  and  O2_20 
REMARK   10  A    between atoms: O2_20  and  C6_21 
REMARK   11  A    between atoms: O4_24  and  N8_25 
ROOT
HETATM    1  C1  UNL     1      34.696  -5.601  12.240  1.00  0.00     0.198 A 
HETATM    2  N4  UNL     1      34.853  -4.384  11.692  1.00  0.00    -0.170 N 
ATOM      3  H4  UNL     1      34.264  -4.122  10.902  1.00  0.00     0.186 HD
HETATM    4  C2  UNL     1      35.766  -3.493  12.150  1.00  0.00     0.690 A 
HETATM    5  N9  UNL     1      36.547  -3.833  13.193  1.00  0.00    -0.154 N 
ATOM      6  H9  UNL     1      37.233  -3.159  13.535  1.00  0.00     0.187 HD
HETATM    7  C7  UNL     1      36.455  -5.030  13.798  1.00  0.00     0.287 A 
HETATM    8  O5  UNL     1      37.188  -5.340  14.771  1.00  0.00    -0.265 OA
HETATM    9  C8  UNL     1      35.519  -5.919  13.314  1.00  0.00     0.163 A 
HETATM   10  N10 UNL     1      35.355  -7.193  13.888  1.00  0.00    -0.092 NA
ENDROOT
BRANCH   4  11
HETATM   11  N5  UNL     1      35.880  -2.331  11.590  1.00  0.00    -0.153 N 
ATOM     12  H5  UNL     1      35.375  -2.132  10.726  1.00  0.00     0.188 HD
BRANCH  11  13
HETATM   13  C3  UNL     1      36.717  -1.320  12.181  1.00  0.00     0.256 C 
HETATM   14  N6  UNL     1      36.226  -0.205  12.574  1.00  0.00    -0.352 N 
ATOM     15  H6  UNL     1      35.223  -0.057  12.458  1.00  0.00     0.163 HD
BRANCH  14  16
HETATM   16  C4  UNL     1      37.005   0.858  13.174  1.00  0.00     0.150 C 
BRANCH  16  17
HETATM   17  C5  UNL     1      36.588   2.211  12.631  1.00  0.00     0.199 C 
BRANCH  17  18
HETATM   18  O2  UNL     1      35.714   2.844  13.504  1.00  0.00    -0.305 OA
BRANCH  18  19
HETATM   19  C6  UNL     1      35.635   4.176  13.711  1.00  0.00     0.372 C 
HETATM   20  N7  UNL     1      36.552   4.843  14.589  1.00  0.00    -0.032 NA
HETATM   21  O3  UNL     1      34.760   4.874  13.144  1.00  0.00    -0.242 OA
ENDBRANCH  18  19
ENDBRANCH  17  18
ENDBRANCH  16  17
ENDBRANCH  14  16
BRANCH  13  22
HETATM   22  O4  UNL     1      38.089  -1.495  12.353  1.00  0.00    -0.207 OA
BRANCH  22  23
HETATM   23  N8  UNL     1      38.916  -1.835  11.306  1.00  0.00    -0.302 N 
ATOM     24  H82 UNL     1      38.503  -2.308  10.503  1.00  0.00     0.184 HD
ATOM     25  H81 UNL     1      39.915  -1.626  11.319  1.00  0.00     0.184 HD
ENDBRANCH  22  23
ENDBRANCH  13  22
ENDBRANCH  11  13
ENDBRANCH   4  11
BRANCH   1  26
HETATM   26  N3  UNL     1      33.739  -6.528  11.756  1.00  0.00    -0.129 N 
HETATM   27  N2  UNL     1      34.071  -7.701  11.432  1.00  0.00    -0.221 N 
ATOM     28  H2  UNL     1      35.046  -7.985  11.521  1.00  0.00     0.210 HD
BRANCH  27  29
HETATM   29  N1  UNL     1      33.135  -8.621  10.955  1.00  0.00    -0.329 N 
ATOM     30  H12 UNL     1      32.822  -8.532   9.989  1.00  0.00     0.178 HD
ATOM     31  H11 UNL     1      32.767  -9.365  11.548  1.00  0.00     0.178 HD
ENDBRANCH  27  29
BRANCH  26  32
HETATM   32  O1  UNL     1      32.427  -6.166  11.628  1.00  0.00    -0.265 OA
ATOM     33  H1  UNL     1      32.079  -5.513  12.223  1.00  0.00     0.247 HD
ENDBRANCH  26  32
ENDBRANCH   1  26
TORSDOF 11
ENDMDL
MODEL 3
REMARK VINA RESULT: -6.523662580      1.835      3.148
REMARK  11 active torsions:
REMARK  status: ('A' for Active; 'I' for Inactive)
REMARK    1  A    between atoms: N1_1  and  N2_4 
REMARK    2  A    between atoms: N3_6  and  O1_7 
REMARK    3  A    between atoms: N3_6  and  C1_9 
REMARK    4  A    between atoms: C2_12  and  N5_13 
REMARK    5  A    between atoms: N5_13  and  C3_15 
REMARK    6  A    between atoms: C3_15  and  O4_24 
REMARK    7  A    between atoms: N6_16  and  C4_18 
REMARK    8  A    between atoms: C4_18  and  C5_19 
REMARK    9  A    between atoms: C5_19  and  O2_20 
REMARK   10  A    between atoms: O2_20  and  C6_21 
REMARK   11  A    between atoms: O4_24  and  N8_25 
ROOT
HETATM    1  C1  UNL     1      36.399  -3.912  13.177  1.00  0.00     0.198 A 
HETATM    2  N4  UNL     1      37.066  -2.883  13.725  1.00  0.00    -0.170 N 
ATOM      3  H4  UNL     1      37.713  -3.070  14.491  1.00  0.00     0.186 HD
HETATM    4  C2  UNL     1      36.912  -1.606  13.298  1.00  0.00     0.690 A 
HETATM    5  N9  UNL     1      36.060  -1.352  12.287  1.00  0.00    -0.154 N 
ATOM      6  H9  UNL     1      35.946  -0.390  11.968  1.00  0.00     0.187 HD
HETATM    7  C7  UNL     1      35.353  -2.324  11.684  1.00  0.00     0.287 A 
HETATM    8  O5  UNL     1      34.559  -2.080  10.740  1.00  0.00    -0.265 OA
HETATM    9  C8  UNL     1      35.527  -3.615  12.136  1.00  0.00     0.163 A 
HETATM   10  N10 UNL     1      34.828  -4.692  11.562  1.00  0.00    -0.092 NA
ENDROOT
BRANCH   4  11
HETATM   11  N5  UNL     1      37.578  -0.647  13.856  1.00  0.00    -0.153 N 
ATOM     12  H5  UNL     1      37.689  -0.629  14.871  1.00  0.00     0.188 HD
BRANCH  11  13
HETATM   13  C3  UNL     1      38.162   0.396  13.054  1.00  0.00     0.256 C 
HETATM   14  N6  UNL     1      38.457   1.532  13.564  1.00  0.00    -0.352 N 
ATOM     15  H6  UNL     1      38.266   1.676  14.556  1.00  0.00     0.163 HD
BRANCH  14  16
HETATM   16  C4  UNL     1      39.044   2.627  12.819  1.00  0.00     0.150 C 
BRANCH  16  17
HETATM   17  C5  UNL     1      38.258   3.908  13.024  1.00  0.00     0.199 C 
BRANCH  17  18
HETATM   18  O2  UNL     1      36.995   3.807  12.458  1.00  0.00    -0.305 OA
BRANCH  18  19
HETATM   19  C6  UNL     1      35.833   3.709  13.139  1.00  0.00     0.372 C 
HETATM   20  N7  UNL     1      34.954   4.835  13.267  1.00  0.00    -0.032 NA
HETATM   21  O3  UNL     1      35.483   2.633  13.680  1.00  0.00    -0.242 OA
ENDBRANCH  18  19
ENDBRANCH  17  18
ENDBRANCH  16  17
ENDBRANCH  14  16
BRANCH  13  22
HETATM   22  O4  UNL     1      38.435   0.228  11.698  1.00  0.00    -0.207 OA
BRANCH  22  23
HETATM   23  N8  UNL     1      39.465  -0.572  11.257  1.00  0.00    -0.302 N 
ATOM     24  H82 UNL     1      39.588  -1.483  11.700  1.00  0.00     0.184 HD
ATOM     25  H81 UNL     1      40.095  -0.277  10.511  1.00  0.00     0.184 HD
ENDBRANCH  22  23
ENDBRANCH  13  22
ENDBRANCH  11  13
ENDBRANCH   4  11
BRANCH   1  26
HETATM   26  N3  UNL     1      36.565  -5.246  13.630  1.00  0.00    -0.129 N 
HETATM   27  N2  UNL     1      37.433  -6.006  13.120  1.00  0.00    -0.221 N 
ATOM     28  H2  UNL     1      38.025  -5.652  12.369  1.00  0.00     0.210 HD
BRANCH  27  29
HETATM   29  N1  UNL     1      37.603  -7.319  13.561  1.00  0.00    -0.329 N 
ATOM     30  H12 UNL     1      36.899  -8.010  13.300  1.00  0.00     0.178 HD
ATOM     31  H11 UNL     1      38.405  -7.593  14.129  1.00  0.00     0.178 HD
ENDBRANCH  27  29
BRANCH  26  32
HETATM   32  O1  UNL     1      35.780  -5.738  14.635  1.00  0.00    -0.265 OA
ATOM     33  H1  UNL     1      34.914  -5.367  14.754  1.00  0.00     0.247 HD
ENDBRANCH  26  32
ENDBRANCH   1  26
TORSDOF 11
ENDMDL
MODEL 4
REMARK VINA RESULT: -6.482065393      2.547      4.268
REMARK  11 active torsions:
REMARK  status: ('A' for Active; 'I' for Inactive)
REMARK    1  A    between atoms: N1_1  and  N2_4 
REMARK    2  A    between atoms: N3_6  and  O1_7 
REMARK    3  A    between atoms: N3_6  and  C1_9 
REMARK    4  A    between atoms: C2_12  and  N5_13 
REMARK    5  A    between atoms: N5_13  and  C3_15 
REMARK    6  A    between atoms: C3_15  and  O4_24 
REMARK    7  A    between atoms: N6_16  and  C4_18 
REMARK    8  A    between atoms: C4_18  and  C5_19 
REMARK    9  A    between atoms: C5_19  and  O2_20 
REMARK   10  A    between atoms: O2_20  and  C6_21 
REMARK   11  A    between atoms: O4_24  and  N8_25 
ROOT
HETATM    1  C1  UNL     1      37.076  -2.266  13.506  1.00  0.00     0.198 A 
HETATM    2  N4  UNL     1      37.836  -1.272  13.018  1.00  0.00    -0.170 N 
ATOM      3  H4  UNL     1      38.569  -0.878  13.608  1.00  0.00     0.186 HD
HETATM    4  C2  UNL     1      37.665  -0.772  11.770  1.00  0.00     0.690 A 
HETATM    5  N9  UNL     1      36.700  -1.286  10.985  1.00  0.00    -0.154 N 
ATOM      6  H9  UNL     1      36.574  -0.908  10.046  1.00  0.00     0.187 HD
HETATM    7  C7  UNL     1      35.895  -2.282  11.397  1.00  0.00     0.287 A 
HETATM    8  O5  UNL     1      34.996  -2.758  10.659  1.00  0.00    -0.265 OA
HETATM    9  C8  UNL     1      36.089  -2.773  12.670  1.00  0.00     0.163 A 
HETATM   10  N10 UNL     1      35.293  -3.814  13.182  1.00  0.00    -0.092 NA
ENDROOT
BRANCH   4  11
HETATM   11  N5  UNL     1      38.423   0.187  11.342  1.00  0.00    -0.153 N 
ATOM     12  H5  UNL     1      38.591   0.293  10.341  1.00  0.00     0.188 HD
BRANCH  11  13
HETATM   13  C3  UNL     1      39.029   1.103  12.271  1.00  0.00     0.256 C 
HETATM   14  N6  UNL     1      38.439   2.188  12.606  1.00  0.00    -0.352 N 
ATOM     15  H6  UNL     1      37.525   2.382  12.196  1.00  0.00     0.163 HD
BRANCH  14  16
HETATM   16  C4  UNL     1      38.988   3.157  13.532  1.00  0.00     0.150 C 
BRANCH  16  17
HETATM   17  C5  UNL     1      38.193   4.449  13.501  1.00  0.00     0.199 C 
BRANCH  17  18
HETATM   18  O2  UNL     1      36.993   4.306  14.182  1.00  0.00    -0.305 OA
BRANCH  18  19
HETATM   19  C6  UNL     1      35.808   3.972  13.628  1.00  0.00     0.372 C 
HETATM   20  N7  UNL     1      35.416   2.598  13.494  1.00  0.00    -0.032 NA
HETATM   21  O3  UNL     1      35.012   4.847  13.212  1.00  0.00    -0.242 OA
ENDBRANCH  18  19
ENDBRANCH  17  18
ENDBRANCH  16  17
ENDBRANCH  14  16
BRANCH  13  22
HETATM   22  O4  UNL     1      40.275   0.864  12.848  1.00  0.00    -0.207 OA
BRANCH  22  23
HETATM   23  N8  UNL     1      41.352   0.438  12.103  1.00  0.00    -0.302 N 
ATOM     24  H82 UNL     1      41.444   0.789  11.149  1.00  0.00     0.184 HD
ATOM     25  H81 UNL     1      42.045  -0.208  12.479  1.00  0.00     0.184 HD
ENDBRANCH  22  23
ENDBRANCH  13  22
ENDBRANCH  11  13
ENDBRANCH   4  11
BRANCH   1  26
HETATM   26  N3  UNL     1      37.261  -2.784  14.814  1.00  0.00    -0.129 N 
HETATM   27  N2  UNL     1      37.261  -2.027  15.823  1.00  0.00    -0.221 N 
ATOM     28  H2  UNL     1      37.126  -1.025  15.693  1.00  0.00     0.210 HD
BRANCH  27  29
HETATM   29  N1  UNL     1      37.441  -2.529  17.113  1.00  0.00    -0.329 N 
ATOM     30  H12 UNL     1      38.392  -2.713  17.430  1.00  0.00     0.178 HD
ATOM     31  H11 UNL     1      36.649  -2.712  17.730  1.00  0.00     0.178 HD
ENDBRANCH  27  29
BRANCH  26  32
HETATM   32  O1  UNL     1      37.445  -4.125  15.008  1.00  0.00    -0.265 OA
ATOM     33  H1  UNL     1      38.226  -4.411  15.467  1.00  0.00     0.247 HD
ENDBRANCH  26  32
ENDBRANCH   1  26
TORSDOF 11
ENDMDL
MODEL 5
REMARK VINA RESULT: -6.457064964      1.445      1.480
REMARK  11 active torsions:
REMARK  status: ('A' for Active; 'I' for Inactive)
REMARK    1  A    between atoms: N1_1  and  N2_4 
REMARK    2  A    between atoms: N3_6  and  O1_7 
REMARK    3  A    between atoms: N3_6  and  C1_9 
REMARK    4  A    between atoms: C2_12  and  N5_13 
REMARK    5  A    between atoms: N5_13  and  C3_15 
REMARK    6  A    between atoms: C3_15  and  O4_24 
REMARK    7  A    between atoms: N6_16  and  C4_18 
REMARK    8  A    between atoms: C4_18  and  C5_19 
REMARK    9  A    between atoms: C5_19  and  O2_20 
REMARK   10  A    between atoms: O2_20  and  C6_21 
REMARK   11  A    between atoms: O4_24  and  N8_25 
ROOT
HETATM    1  C1  UNL     1      35.755  -4.734  12.700  1.00  0.00     0.198 A 
HETATM    2  N4  UNL     1      35.642  -3.427  12.987  1.00  0.00    -0.170 N 
ATOM      3  H4  UNL     1      34.713  -3.038  13.146  1.00  0.00     0.186 HD
HETATM    4  C2  UNL     1      36.718  -2.606  13.072  1.00  0.00     0.690 A 
HETATM    5  N9  UNL     1      37.947  -3.113  12.863  1.00  0.00    -0.154 N 
ATOM      6  H9  UNL     1      38.754  -2.493  12.928  1.00  0.00     0.187 HD
HETATM    7  C7  UNL     1      38.147  -4.411  12.570  1.00  0.00     0.287 A 
HETATM    8  O5  UNL     1      39.298  -4.877  12.376  1.00  0.00    -0.265 OA
HETATM    9  C8  UNL     1      37.038  -5.225  12.489  1.00  0.00     0.163 A 
HETATM   10  N10 UNL     1      37.156  -6.594  12.188  1.00  0.00    -0.092 NA
ENDROOT
BRANCH   4  11
HETATM   11  N5  UNL     1      36.560  -1.352  13.353  1.00  0.00    -0.153 N 
ATOM     12  H5  UNL     1      35.854  -1.069  14.033  1.00  0.00     0.188 HD
BRANCH  11  13
HETATM   13  C3  UNL     1      37.376  -0.356  12.709  1.00  0.00     0.256 C 
HETATM   14  N6  UNL     1      37.987   0.537  13.394  1.00  0.00    -0.352 N 
ATOM     15  H6  UNL     1      37.879   0.519  14.408  1.00  0.00     0.163 HD
BRANCH  14  16
HETATM   16  C4  UNL     1      38.822   1.570  12.816  1.00  0.00     0.150 C 
BRANCH  16  17
HETATM   17  C5  UNL     1      38.369   2.947  13.261  1.00  0.00     0.199 C 
BRANCH  17  18
HETATM   18  O2  UNL     1      37.213   3.325  12.594  1.00  0.00    -0.305 OA
BRANCH  18  19
HETATM   19  C6  UNL     1      35.984   3.428  13.143  1.00  0.00     0.372 C 
HETATM   20  N7  UNL     1      35.298   4.687  13.189  1.00  0.00    -0.032 NA
HETATM   21  O3  UNL     1      35.401   2.430  13.631  1.00  0.00    -0.242 OA
ENDBRANCH  18  19
ENDBRANCH  17  18
ENDBRANCH  16  17
ENDBRANCH  14  16
BRANCH  13  22
HETATM   22  O4  UNL     1      37.542  -0.308  11.327  1.00  0.00    -0.207 OA
BRANCH  22  23
HETATM   23  N8  UNL     1      36.507   0.018  10.480  1.00  0.00    -0.302 N 
ATOM     24  H82 UNL     1      35.554  -0.162  10.797  1.00  0.00     0.184 HD
ATOM     25  H81 UNL     1      36.671   0.429   9.561  1.00  0.00     0.184 HD
ENDBRANCH  22  23
ENDBRANCH  13  22
ENDBRANCH  11  13
ENDBRANCH   4  11
BRANCH   1  26
HETATM   26  N3  UNL     1      34.625  -5.587  12.612  1.00  0.00    -0.129 N 
HETATM   27  N2  UNL     1      33.842  -5.536  11.624  1.00  0.00    -0.221 N 
ATOM     28  H2  UNL     1      34.027  -4.867  10.877  1.00  0.00     0.210 HD
BRANCH  27  29
HETATM   29  N1  UNL     1      32.729  -6.372  11.530  1.00  0.00    -0.329 N 
ATOM     30  H12 UNL     1      32.195  -6.561  12.378  1.00  0.00     0.178 HD
ATOM     31  H11 UNL     1      32.448  -6.789  10.642  1.00  0.00     0.178 HD
ENDBRANCH  27  29
BRANCH  26  32
HETATM   32  O1  UNL     1      34.360  -6.489  13.605  1.00  0.00    -0.265 OA
ATOM     33  H1  UNL     1      34.297  -7.409  13.374  1.00  0.00     0.247 HD
ENDBRANCH  26  32
ENDBRANCH   1  26
TORSDOF 11
ENDMDL
