MODEL 1
REMARK VINA RESULT: -7.072238183      0.000      0.000
REMARK  6 active torsions:
REMARK  status: ('A' for Active; 'I' for Inactive)
REMARK    1  A    between atoms: C2_2  and  C3_3 
REMARK    2  A    between atoms: C3_3  and  N2_6 
REMARK    3  A    between atoms: C7_15  and  N7_16 
REMARK    4  A    between atoms: N7_16  and  C8_18 
REMARK    5  A    between atoms: C8_18  and  C11_29 
REMARK    6  A    between atoms: N8_19  and  C9_21 
ROOT
HETATM    1  C3  UNL     1      40.048  -0.202  12.070  1.00  0.00     0.197 C 
HETATM    2  C4  UNL     1      40.887  -0.311  13.295  1.00  0.00     0.085 C 
HETATM    3  N1  UNL     1      41.528  -0.389  14.261  1.00  0.00    -0.195 NA
ENDROOT
BRANCH   1   4
HETATM    4  C2  UNL     1      40.924   0.154  10.966  1.00  0.00     0.036 C 
HETATM    5  C1  UNL     1      41.395  -0.971  10.096  1.00  0.00     0.008 C 
ENDBRANCH   1   4
BRANCH   1   6
HETATM    6  N2  UNL     1      38.876   0.490  12.416  1.00  0.00    -0.300 N 
HETATM    7  C5  UNL     1      38.844   1.910  12.611  1.00  0.00     0.197 A 
HETATM    8  N3  UNL     1      40.091   2.545  12.392  1.00  0.00    -0.063 NA
HETATM    9  N4  UNL     1      37.830   2.595  12.946  1.00  0.00    -0.305 N 
HETATM   10  C6  UNL     1      36.611   1.899  13.149  1.00  0.00     0.193 A 
ATOM     11  H4  UNL     1      37.889   3.607  13.065  1.00  0.00     0.171 HD
HETATM   12  N5  UNL     1      35.429   2.608  13.525  1.00  0.00    -0.063 NA
HETATM   13  N6  UNL     1      36.584   0.642  12.994  1.00  0.00    -0.326 N 
HETATM   14  C7  UNL     1      37.651  -0.246  12.625  1.00  0.00     0.297 A 
ATOM     15  H6  UNL     1      35.678   0.199  13.154  1.00  0.00     0.166 HD
BRANCH  14  16
HETATM   16  N7  UNL     1      37.309  -1.023  11.481  1.00  0.00    -0.333 N 
ATOM     17  H7  UNL     1      37.605  -0.730  10.549  1.00  0.00     0.165 HD
BRANCH  16  18
HETATM   18  C8  UNL     1      36.519  -2.260  11.665  1.00  0.00     0.184 C 
HETATM   19  N8  UNL     1      36.863  -3.075  12.502  1.00  0.00    -0.321 N 
ATOM     20  H8  UNL     1      37.701  -2.690  12.940  1.00  0.00     0.169 HD
BRANCH  19  21
HETATM   21  C9  UNL     1      36.633  -4.269  13.119  1.00  0.00     0.140 A 
HETATM   22  C10 UNL     1      37.485  -5.370  13.064  1.00  0.00     0.158 A 
HETATM   23  N9  UNL     1      36.920  -6.333  13.780  1.00  0.00    -0.294 N 
HETATM   24  N10 UNL     1      35.770  -5.873  14.265  1.00  0.00    -0.241 N 
ATOM     25  H9  UNL     1      37.302  -7.266  13.934  1.00  0.00     0.187 HD
HETATM   26  N11 UNL     1      35.574  -4.636  13.883  1.00  0.00    -0.270 N 
ATOM     27  H10 UNL     1      35.131  -6.409  14.852  1.00  0.00     0.208 HD
ATOM     28  H11 UNL     1      34.770  -4.053  14.117  1.00  0.00     0.190 HD
ENDBRANCH  19  21
BRANCH  18  29
HETATM   29  C11 UNL     1      35.352  -2.419  10.815  1.00  0.00     0.245 C 
HETATM   30  O1  UNL     1      35.207  -3.425  10.116  1.00  0.00    -0.642 OA
HETATM   31  O2  UNL     1      34.361  -1.449  10.761  1.00  0.00    -0.642 OA
ENDBRANCH  18  29
ENDBRANCH  16  18
ENDBRANCH  14  16
ENDBRANCH   1   6
TORSDOF 6
ENDMDL
MODEL 2
REMARK VINA RESULT: -6.963657841      0.983      1.552
REMARK  6 active torsions:
REMARK  status: ('A' for Active; 'I' for Inactive)
REMARK    1  A    between atoms: C2_2  and  C3_3 
REMARK    2  A    between atoms: C3_3  and  N2_6 
REMARK    3  A    between atoms: C7_15  and  N7_16 
REMARK    4  A    between atoms: N7_16  and  C8_18 
REMARK    5  A    between atoms: C8_18  and  C11_29 
REMARK    6  A    between atoms: N8_19  and  C9_21 
ROOT
HETATM    1  C3  UNL     1      40.420  -0.525  12.348  1.00  0.00     0.197 C 
HETATM    2  C4  UNL     1      40.655  -0.573  10.879  1.00  0.00     0.085 C 
HETATM    3  N1  UNL     1      40.825  -0.600   9.729  1.00  0.00    -0.195 NA
ENDROOT
BRANCH   1   4
HETATM    4  C2  UNL     1      40.718  -1.842  12.885  1.00  0.00     0.036 C 
HETATM    5  C1  UNL     1      41.086  -1.905  14.336  1.00  0.00     0.008 C 
ENDBRANCH   1   4
BRANCH   1   6
HETATM    6  N2  UNL     1      39.221   0.174  12.565  1.00  0.00    -0.300 N 
HETATM    7  C5  UNL     1      39.167   1.603  12.668  1.00  0.00     0.197 A 
HETATM    8  N3  UNL     1      40.421   2.237  12.499  1.00  0.00    -0.063 NA
HETATM    9  N4  UNL     1      38.126   2.297  12.886  1.00  0.00    -0.305 N 
HETATM   10  C6  UNL     1      36.901   1.601  13.046  1.00  0.00     0.193 A 
ATOM     11  H4  UNL     1      38.170   3.314  12.945  1.00  0.00     0.171 HD
HETATM   12  N5  UNL     1      35.691   2.320  13.291  1.00  0.00    -0.063 NA
HETATM   13  N6  UNL     1      36.893   0.337  12.969  1.00  0.00    -0.326 N 
HETATM   14  C7  UNL     1      37.990  -0.561  12.733  1.00  0.00     0.297 A 
ATOM     15  H6  UNL     1      35.982  -0.105  13.091  1.00  0.00     0.166 HD
BRANCH  14  16
HETATM   16  N7  UNL     1      37.736  -1.410  11.618  1.00  0.00    -0.333 N 
ATOM     17  H7  UNL     1      38.229  -1.269  10.735  1.00  0.00     0.165 HD
BRANCH  16  18
HETATM   18  C8  UNL     1      36.745  -2.500  11.759  1.00  0.00     0.184 C 
HETATM   19  N8  UNL     1      36.974  -3.427  12.515  1.00  0.00    -0.321 N 
ATOM     20  H8  UNL     1      37.886  -3.232  12.929  1.00  0.00     0.169 HD
BRANCH  19  21
HETATM   21  C9  UNL     1      36.561  -4.608  13.057  1.00  0.00     0.140 A 
HETATM   22  C10 UNL     1      37.147  -5.847  12.806  1.00  0.00     0.158 A 
HETATM   23  N9  UNL     1      36.468  -6.745  13.509  1.00  0.00    -0.294 N 
HETATM   24  N10 UNL     1      35.503  -6.115  14.171  1.00  0.00    -0.241 N 
ATOM     25  H9  UNL     1      36.655  -7.747  13.536  1.00  0.00     0.187 HD
HETATM   26  N11 UNL     1      35.537  -4.831  13.918  1.00  0.00    -0.270 N 
ATOM     27  H10 UNL     1      34.830  -6.569  14.789  1.00  0.00     0.208 HD
ATOM     28  H11 UNL     1      34.906  -4.125  14.299  1.00  0.00     0.190 HD
ENDBRANCH  19  21
BRANCH  18  29
HETATM   29  C11 UNL     1      35.532  -2.383  10.969  1.00  0.00     0.245 C 
HETATM   30  O1  UNL     1      35.098  -3.342  10.325  1.00  0.00    -0.642 OA
HETATM   31  O2  UNL     1      34.820  -1.194  10.912  1.00  0.00    -0.642 OA
ENDBRANCH  18  29
ENDBRANCH  16  18
ENDBRANCH  14  16
ENDBRANCH   1   6
TORSDOF 6
ENDMDL
MODEL 3
REMARK VINA RESULT: -6.947491558      2.531      3.534
REMARK  6 active torsions:
REMARK  status: ('A' for Active; 'I' for Inactive)
REMARK    1  A    between atoms: C2_2  and  C3_3 
REMARK    2  A    between atoms: C3_3  and  N2_6 
REMARK    3  A    between atoms: C7_15  and  N7_16 
REMARK    4  A    between atoms: N7_16  and  C8_18 
REMARK    5  A    between atoms: C8_18  and  C11_29 
REMARK    6  A    between atoms: N8_19  and  C9_21 
ROOT
HETATM    1  C3  UNL     1      38.083  -1.095  12.119  1.00  0.00     0.197 C 
HETATM    2  C4  UNL     1      39.373  -1.520  11.510  1.00  0.00     0.085 C 
HETATM    3  N1  UNL     1      40.384  -1.861  11.049  1.00  0.00    -0.195 NA
ENDROOT
BRANCH   1   4
HETATM    4  C2  UNL     1      37.806   0.258  11.664  1.00  0.00     0.036 C 
HETATM    5  C1  UNL     1      36.637   0.950  12.296  1.00  0.00     0.008 C 
ENDBRANCH   1   4
BRANCH   1   6
HETATM    6  N2  UNL     1      38.092  -1.499  13.463  1.00  0.00    -0.300 N 
HETATM    7  C5  UNL     1      38.916  -0.872  14.455  1.00  0.00     0.197 A 
HETATM    8  N3  UNL     1      39.688   0.207  13.958  1.00  0.00    -0.063 NA
HETATM    9  N4  UNL     1      38.992  -1.200  15.679  1.00  0.00    -0.305 N 
HETATM   10  C6  UNL     1      38.193  -2.287  16.113  1.00  0.00     0.193 A 
ATOM     11  H4  UNL     1      39.605  -0.700  16.324  1.00  0.00     0.171 HD
HETATM   12  N5  UNL     1      38.228  -2.707  17.478  1.00  0.00    -0.063 NA
HETATM   13  N6  UNL     1      37.450  -2.881  15.277  1.00  0.00    -0.326 N 
HETATM   14  C7  UNL     1      37.275  -2.616  13.875  1.00  0.00     0.297 A 
ATOM     15  H6  UNL     1      36.899  -3.654  15.650  1.00  0.00     0.166 HD
BRANCH  14  16
HETATM   16  N7  UNL     1      35.904  -2.403  13.554  1.00  0.00    -0.333 N 
ATOM     17  H7  UNL     1      35.375  -1.656  14.006  1.00  0.00     0.165 HD
BRANCH  16  18
HETATM   18  C8  UNL     1      35.258  -3.281  12.553  1.00  0.00     0.184 C 
HETATM   19  N8  UNL     1      34.892  -4.397  12.879  1.00  0.00    -0.321 N 
ATOM     20  H8  UNL     1      35.131  -4.493  13.866  1.00  0.00     0.169 HD
BRANCH  19  21
HETATM   21  C9  UNL     1      34.308  -5.574  12.519  1.00  0.00     0.140 A 
HETATM   22  C10 UNL     1      34.291  -6.727  13.302  1.00  0.00     0.158 A 
HETATM   23  N9  UNL     1      33.637  -7.653  12.613  1.00  0.00    -0.294 N 
HETATM   24  N10 UNL     1      33.257  -7.123  11.455  1.00  0.00    -0.241 N 
ATOM     25  H9  UNL     1      33.456  -8.609  12.920  1.00  0.00     0.187 HD
HETATM   26  N11 UNL     1      33.648  -5.875  11.373  1.00  0.00    -0.270 N 
ATOM     27  H10 UNL     1      32.736  -7.618  10.732  1.00  0.00     0.208 HD
ATOM     28  H11 UNL     1      33.484  -5.243  10.589  1.00  0.00     0.190 HD
ENDBRANCH  19  21
BRANCH  18  29
HETATM   29  C11 UNL     1      35.094  -2.736  11.218  1.00  0.00     0.245 C 
HETATM   30  O1  UNL     1      35.385  -3.400  10.219  1.00  0.00    -0.642 OA
HETATM   31  O2  UNL     1      34.605  -1.453  11.017  1.00  0.00    -0.642 OA
ENDBRANCH  18  29
ENDBRANCH  16  18
ENDBRANCH  14  16
ENDBRANCH   1   6
TORSDOF 6
ENDMDL
MODEL 4
REMARK VINA RESULT: -6.928572519      1.383      2.020
REMARK  6 active torsions:
REMARK  status: ('A' for Active; 'I' for Inactive)
REMARK    1  A    between atoms: C2_2  and  C3_3 
REMARK    2  A    between atoms: C3_3  and  N2_6 
REMARK    3  A    between atoms: C7_15  and  N7_16 
REMARK    4  A    between atoms: N7_16  and  C8_18 
REMARK    5  A    between atoms: C8_18  and  C11_29 
REMARK    6  A    between atoms: N8_19  and  C9_21 
ROOT
HETATM    1  C3  UNL     1      39.544   0.342  13.361  1.00  0.00     0.197 C 
HETATM    2  C4  UNL     1      39.891  -0.022  11.960  1.00  0.00     0.085 C 
HETATM    3  N1  UNL     1      40.150  -0.294  10.860  1.00  0.00    -0.195 NA
ENDROOT
BRANCH   1   4
HETATM    4  C2  UNL     1      39.589  -0.874  14.156  1.00  0.00     0.036 C 
HETATM    5  C1  UNL     1      39.545  -0.702  15.644  1.00  0.00     0.008 C 
ENDBRANCH   1   4
BRANCH   1   6
HETATM    6  N2  UNL     1      38.454   1.227  13.315  1.00  0.00    -0.300 N 
HETATM    7  C5  UNL     1      38.602   2.645  13.463  1.00  0.00     0.197 A 
HETATM    8  N3  UNL     1      39.944   3.066  13.627  1.00  0.00    -0.063 NA
HETATM    9  N4  UNL     1      37.663   3.499  13.456  1.00  0.00    -0.305 N 
HETATM   10  C6  UNL     1      36.342   3.013  13.286  1.00  0.00     0.193 A 
ATOM     11  H4  UNL     1      37.851   4.495  13.567  1.00  0.00     0.171 HD
HETATM   12  N5  UNL     1      35.237   3.919  13.265  1.00  0.00    -0.063 NA
HETATM   13  N6  UNL     1      36.153   1.767  13.155  1.00  0.00    -0.326 N 
HETATM   14  C7  UNL     1      37.119   0.703  13.150  1.00  0.00     0.297 A 
ATOM     15  H6  UNL     1      35.182   1.480  13.036  1.00  0.00     0.166 HD
BRANCH  14  16
HETATM   16  N7  UNL     1      37.014  -0.090  11.971  1.00  0.00    -0.333 N 
ATOM     17  H7  UNL     1      37.396   0.244  11.086  1.00  0.00     0.165 HD
BRANCH  16  18
HETATM   18  C8  UNL     1      36.340  -1.405  12.050  1.00  0.00     0.184 C 
HETATM   19  N8  UNL     1      36.683  -2.207  12.900  1.00  0.00    -0.321 N 
ATOM     20  H8  UNL     1      37.431  -1.754  13.426  1.00  0.00     0.169 HD
BRANCH  19  21
HETATM   21  C9  UNL     1      36.518  -3.436  13.465  1.00  0.00     0.140 A 
HETATM   22  C10 UNL     1      37.517  -4.148  14.128  1.00  0.00     0.158 A 
HETATM   23  N9  UNL     1      36.975  -5.290  14.531  1.00  0.00    -0.294 N 
HETATM   24  N10 UNL     1      35.702  -5.307  14.148  1.00  0.00    -0.241 N 
ATOM     25  H9  UNL     1      37.453  -6.029  15.047  1.00  0.00     0.187 HD
HETATM   26  N11 UNL     1      35.402  -4.206  13.506  1.00  0.00    -0.270 N 
ATOM     27  H10 UNL     1      35.051  -6.071  14.327  1.00  0.00     0.208 HD
ATOM     28  H11 UNL     1      34.493  -3.969  13.109  1.00  0.00     0.190 HD
ENDBRANCH  19  21
BRANCH  18  29
HETATM   29  C11 UNL     1      35.283  -1.653  11.086  1.00  0.00     0.245 C 
HETATM   30  O1  UNL     1      34.525  -0.749  10.726  1.00  0.00    -0.642 OA
HETATM   31  O2  UNL     1      35.088  -2.913  10.537  1.00  0.00    -0.642 OA
ENDBRANCH  18  29
ENDBRANCH  16  18
ENDBRANCH  14  16
ENDBRANCH   1   6
TORSDOF 6
ENDMDL
MODEL 5
REMARK VINA RESULT: -6.763229051      2.286      3.275
REMARK  6 active torsions:
REMARK  status: ('A' for Active; 'I' for Inactive)
REMARK    1  A    between atoms: C2_2  and  C3_3 
REMARK    2  A    between atoms: C3_3  and  N2_6 
REMARK    3  A    between atoms: C7_15  and  N7_16 
REMARK    4  A    between atoms: N7_16  and  C8_18 
REMARK    5  A    between atoms: C8_18  and  C11_29 
REMARK    6  A    between atoms: N8_19  and  C9_21 
ROOT
HETATM    1  C3  UNL     1      39.038  -0.876  12.395  1.00  0.00     0.197 C 
HETATM    2  C4  UNL     1      37.999   0.096  11.958  1.00  0.00     0.085 C 
HETATM    3  N1  UNL     1      37.181   0.855  11.633  1.00  0.00    -0.195 NA
ENDROOT
BRANCH   1   4
HETATM    4  C2  UNL     1      39.277  -1.791  11.291  1.00  0.00     0.036 C 
HETATM    5  C1  UNL     1      40.709  -2.119  10.993  1.00  0.00     0.008 C 
ENDBRANCH   1   4
BRANCH   1   6
HETATM    6  N2  UNL     1      38.728  -1.271  13.707  1.00  0.00    -0.300 N 
HETATM    7  C5  UNL     1      39.431  -0.770  14.852  1.00  0.00     0.197 A 
HETATM    8  N3  UNL     1      40.436   0.177  14.537  1.00  0.00    -0.063 NA
HETATM    9  N4  UNL     1      39.221  -1.099  16.060  1.00  0.00    -0.305 N 
HETATM   10  C6  UNL     1      38.200  -2.051  16.308  1.00  0.00     0.193 A 
ATOM     11  H4  UNL     1      39.766  -0.695  16.822  1.00  0.00     0.171 HD
HETATM   12  N5  UNL     1      37.908  -2.464  17.644  1.00  0.00    -0.063 NA
HETATM   13  N6  UNL     1      37.550  -2.529  15.332  1.00  0.00    -0.326 N 
HETATM   14  C7  UNL     1      37.689  -2.249  13.929  1.00  0.00     0.297 A 
ATOM     15  H6  UNL     1      36.828  -3.208  15.574  1.00  0.00     0.166 HD
BRANCH  14  16
HETATM   16  N7  UNL     1      36.453  -1.832  13.357  1.00  0.00    -0.333 N 
ATOM     17  H7  UNL     1      36.129  -0.870  13.466  1.00  0.00     0.165 HD
BRANCH  16  18
HETATM   18  C8  UNL     1      35.645  -2.816  12.603  1.00  0.00     0.184 C 
HETATM   19  N8  UNL     1      35.368  -3.886  13.115  1.00  0.00    -0.321 N 
ATOM     20  H8  UNL     1      35.792  -3.870  14.043  1.00  0.00     0.169 HD
BRANCH  19  21
HETATM   21  C9  UNL     1      34.748  -5.095  13.007  1.00  0.00     0.140 A 
HETATM   22  C10 UNL     1      35.007  -6.198  13.818  1.00  0.00     0.158 A 
HETATM   23  N9  UNL     1      34.213  -7.177  13.405  1.00  0.00    -0.294 N 
HETATM   24  N10 UNL     1      33.488  -6.726  12.387  1.00  0.00    -0.241 N 
ATOM     25  H9  UNL     1      34.167  -8.116  13.801  1.00  0.00     0.187 HD
HETATM   26  N11 UNL     1      33.789  -5.478  12.128  1.00  0.00    -0.270 N 
ATOM     27  H10 UNL     1      32.794  -7.274  11.879  1.00  0.00     0.208 HD
ATOM     28  H11 UNL     1      33.377  -4.898  11.396  1.00  0.00     0.190 HD
ENDBRANCH  19  21
BRANCH  18  29
HETATM   29  C11 UNL     1      35.220  -2.425  11.271  1.00  0.00     0.245 C 
HETATM   30  O1  UNL     1      34.755  -1.303  11.055  1.00  0.00    -0.642 OA
HETATM   31  O2  UNL     1      35.322  -3.297  10.196  1.00  0.00    -0.642 OA
ENDBRANCH  18  29
ENDBRANCH  16  18
ENDBRANCH  14  16
ENDBRANCH   1   6
TORSDOF 6
ENDMDL
