MODEL 1
REMARK VINA RESULT: -6.750239070      0.000      0.000
REMARK  6 active torsions:
REMARK  status: ('A' for Active; 'I' for Inactive)
REMARK    1  A    between atoms: N1_2  and  C3_4 
REMARK    2  A    between atoms: C4_7  and  N3_8 
REMARK    3  A    between atoms: N3_8  and  N4_9 
REMARK    4  A    between atoms: C6_15  and  C7_16 
REMARK       I    between atoms: C7_16  and  N7_18 
REMARK       I    between atoms: N7_18  and  C8_20 
REMARK    5  A    between atoms: C9_25  and  N10_26 
REMARK    6  A    between atoms: N10_26  and  O2_28 
ROOT
HETATM    1  N3  UNL     1      37.305  -0.682  12.066  1.00  0.00    -0.294 NA
ENDROOT
BRANCH   1   2
HETATM    2  C4  UNL     1      38.001   0.233  12.286  1.00  0.00     0.250 A 
HETATM    3  N2  UNL     1      39.302   0.345  11.856  1.00  0.00    -0.160 N 
HETATM    4  C3  UNL     1      40.078   1.394  12.115  1.00  0.00     0.683 A 
ATOM      5  H2  UNL     1      39.694  -0.420  11.307  1.00  0.00     0.187 HD
HETATM    6  N12 UNL     1      39.576   2.404  12.834  1.00  0.00    -0.176 N 
HETATM    7  C10 UNL     1      38.312   2.424  13.318  1.00  0.00     0.165 A 
ATOM      8  H12 UNL     1      40.179   3.204  13.028  1.00  0.00     0.185 HD
HETATM    9  C9  UNL     1      37.539   1.331  13.035  1.00  0.00     0.156 A 
HETATM   10  N11 UNL     1      37.832   3.518  14.073  1.00  0.00    -0.079 NA
BRANCH   4  11
HETATM   11  N1  UNL     1      41.436   1.471  11.646  1.00  0.00    -0.226 N 
HETATM   12  C1  UNL     1      42.413   2.287  12.309  1.00  0.00     0.168 C 
HETATM   13  C2  UNL     1      41.839   0.716  10.484  1.00  0.00     0.168 C 
ENDBRANCH   4  11
BRANCH   9  14
HETATM   14  N10 UNL     1      36.207   1.267  13.501  1.00  0.00    -0.261 N 
ATOM     15  H10 UNL     1      35.870   0.399  13.919  1.00  0.00     0.194 HD
BRANCH  14  16
HETATM   16  O2  UNL     1      35.430   2.242  13.418  1.00  0.00    -0.289 OA
ATOM     17  H2  UNL     1      34.972   2.586  14.175  1.00  0.00     0.244 HD
ENDBRANCH  14  16
ENDBRANCH   9  14
ENDBRANCH   1   2
BRANCH   1  18
HETATM   18  N4  UNL     1      36.532  -1.715  11.822  1.00  0.00    -0.160 N 
HETATM   19  C5  UNL     1      35.584  -1.826  10.865  1.00  0.00     0.239 A 
HETATM   20  N5  UNL     1      35.027  -3.016  10.942  1.00  0.00    -0.291 N 
HETATM   21  N6  UNL     1      35.599  -3.665  11.928  1.00  0.00    -0.278 N 
ATOM     22  H5  UNL     1      34.283  -3.371  10.341  1.00  0.00     0.188 HD
HETATM   23  C6  UNL     1      36.529  -2.908  12.498  1.00  0.00     0.224 A 
ATOM     24  H6  UNL     1      35.364  -4.614  12.215  1.00  0.00     0.189 HD
BRANCH  23  25
HETATM   25  C7  UNL     1      37.406  -3.245  13.634  1.00  0.00     0.296 C 
HETATM   26  O1  UNL     1      38.319  -4.098  13.465  1.00  0.00    -0.264 OA
HETATM   27  N7  UNL     1      37.181  -2.590  14.870  1.00  0.00    -0.295 N 
HETATM   28  C8  UNL     1      37.986  -2.856  16.022  1.00  0.00     0.188 C 
ATOM     29  H7  UNL     1      36.424  -1.910  14.941  1.00  0.00     0.171 HD
HETATM   30  N8  UNL     1      37.716  -2.220  17.104  1.00  0.00    -0.373 N 
HETATM   31  N9  UNL     1      39.059  -3.780  16.035  1.00  0.00    -0.064 NA
ATOM     32  H82 UNL     1      36.943  -1.554  17.095  1.00  0.00     0.158 HD
ATOM     33  H81 UNL     1      38.289  -2.410  17.925  1.00  0.00     0.158 HD
ENDBRANCH  23  25
ENDBRANCH   1  18
TORSDOF 6
ENDMDL
MODEL 2
REMARK VINA RESULT: -6.498105759      1.655      3.083
REMARK  6 active torsions:
REMARK  status: ('A' for Active; 'I' for Inactive)
REMARK    1  A    between atoms: N1_2  and  C3_4 
REMARK    2  A    between atoms: C4_7  and  N3_8 
REMARK    3  A    between atoms: N3_8  and  N4_9 
REMARK    4  A    between atoms: C6_15  and  C7_16 
REMARK       I    between atoms: C7_16  and  N7_18 
REMARK       I    between atoms: N7_18  and  C8_20 
REMARK    5  A    between atoms: C9_25  and  N10_26 
REMARK    6  A    between atoms: N10_26  and  O2_28 
ROOT
HETATM    1  N3  UNL     1      36.954  -0.021  12.210  1.00  0.00    -0.294 NA
ENDROOT
BRANCH   1   2
HETATM    2  C4  UNL     1      37.550   0.963  12.427  1.00  0.00     0.250 A 
HETATM    3  N2  UNL     1      36.974   2.170  12.744  1.00  0.00    -0.160 N 
HETATM    4  C3  UNL     1      37.669   3.279  12.988  1.00  0.00     0.683 A 
ATOM      5  H2  UNL     1      35.957   2.219  12.795  1.00  0.00     0.187 HD
HETATM    6  N12 UNL     1      39.004   3.229  12.924  1.00  0.00    -0.176 N 
HETATM    7  C10 UNL     1      39.698   2.106  12.623  1.00  0.00     0.165 A 
ATOM      8  H12 UNL     1      39.528   4.084  13.111  1.00  0.00     0.185 HD
HETATM    9  C9  UNL     1      38.956   0.983  12.378  1.00  0.00     0.156 A 
HETATM   10  N11 UNL     1      41.110   2.109  12.569  1.00  0.00    -0.079 NA
BRANCH   4  11
HETATM   11  N1  UNL     1      37.026   4.524  13.316  1.00  0.00    -0.226 N 
HETATM   12  C1  UNL     1      35.651   4.572  13.723  1.00  0.00     0.168 C 
HETATM   13  C2  UNL     1      37.769   5.758  13.239  1.00  0.00     0.168 C 
ENDBRANCH   4  11
BRANCH   9  14
HETATM   14  N10 UNL     1      39.599  -0.233  12.057  1.00  0.00    -0.261 N 
ATOM     15  H10 UNL     1      40.118  -0.726  12.783  1.00  0.00     0.194 HD
BRANCH  14  16
HETATM   16  O2  UNL     1      39.549  -0.724  10.908  1.00  0.00    -0.289 OA
ATOM     17  H2  UNL     1      38.807  -0.581  10.332  1.00  0.00     0.244 HD
ENDBRANCH  14  16
ENDBRANCH   9  14
ENDBRANCH   1   2
BRANCH   1  18
HETATM   18  N4  UNL     1      36.286  -1.127  11.977  1.00  0.00    -0.160 N 
HETATM   19  C5  UNL     1      35.289  -1.313  11.084  1.00  0.00     0.239 A 
HETATM   20  N5  UNL     1      34.875  -2.562  11.150  1.00  0.00    -0.291 N 
HETATM   21  N6  UNL     1      35.586  -3.173  12.067  1.00  0.00    -0.278 N 
ATOM     22  H5  UNL     1      34.133  -2.979  10.587  1.00  0.00     0.188 HD
HETATM   23  C6  UNL     1      36.464  -2.335  12.603  1.00  0.00     0.224 A 
ATOM     24  H6  UNL     1      35.479  -4.152  12.330  1.00  0.00     0.189 HD
BRANCH  23  25
HETATM   25  C7  UNL     1      37.454  -2.606  13.662  1.00  0.00     0.296 C 
HETATM   26  O1  UNL     1      38.576  -3.081  13.338  1.00  0.00    -0.264 OA
HETATM   27  N7  UNL     1      37.096  -2.318  15.002  1.00  0.00    -0.295 N 
HETATM   28  C8  UNL     1      37.996  -2.550  16.089  1.00  0.00     0.188 C 
ATOM     29  H7  UNL     1      36.171  -1.936  15.197  1.00  0.00     0.171 HD
HETATM   30  N8  UNL     1      37.593  -2.263  17.274  1.00  0.00    -0.373 N 
HETATM   31  N9  UNL     1      39.299  -3.079  15.931  1.00  0.00    -0.064 NA
ATOM     32  H82 UNL     1      36.654  -1.882  17.388  1.00  0.00     0.158 HD
ATOM     33  H81 UNL     1      38.235  -2.428  18.049  1.00  0.00     0.158 HD
ENDBRANCH  23  25
ENDBRANCH   1  18
TORSDOF 6
ENDMDL
MODEL 3
REMARK VINA RESULT: -6.366079994      4.528      7.313
REMARK  6 active torsions:
REMARK  status: ('A' for Active; 'I' for Inactive)
REMARK    1  A    between atoms: N1_2  and  C3_4 
REMARK    2  A    between atoms: C4_7  and  N3_8 
REMARK    3  A    between atoms: N3_8  and  N4_9 
REMARK    4  A    between atoms: C6_15  and  C7_16 
REMARK       I    between atoms: C7_16  and  N7_18 
REMARK       I    between atoms: N7_18  and  C8_20 
REMARK    5  A    between atoms: C9_25  and  N10_26 
REMARK    6  A    between atoms: N10_26  and  O2_28 
ROOT
HETATM    1  N3  UNL     1      35.153  -6.635  13.527  1.00  0.00    -0.294 NA
ENDROOT
BRANCH   1   2
HETATM    2  C4  UNL     1      35.505  -5.546  13.281  1.00  0.00     0.250 A 
HETATM    3  N2  UNL     1      36.369  -4.811  14.059  1.00  0.00    -0.160 N 
HETATM    4  C3  UNL     1      36.758  -3.573  13.763  1.00  0.00     0.683 A 
ATOM      5  H2  UNL     1      36.732  -5.239  14.910  1.00  0.00     0.187 HD
HETATM    6  N12 UNL     1      36.289  -2.999  12.650  1.00  0.00    -0.176 N 
HETATM    7  C10 UNL     1      35.434  -3.610  11.795  1.00  0.00     0.165 A 
ATOM      8  H12 UNL     1      36.592  -2.050  12.432  1.00  0.00     0.185 HD
HETATM    9  C9  UNL     1      35.052  -4.881  12.127  1.00  0.00     0.156 A 
HETATM   10  N11 UNL     1      34.969  -2.957  10.632  1.00  0.00    -0.079 NA
BRANCH   4  11
HETATM   11  N1  UNL     1      37.664  -2.838  14.605  1.00  0.00    -0.226 N 
HETATM   12  C1  UNL     1      37.836  -1.420  14.464  1.00  0.00     0.168 C 
HETATM   13  C2  UNL     1      38.423  -3.529  15.619  1.00  0.00     0.168 C 
ENDBRANCH   4  11
BRANCH   9  14
HETATM   14  N10 UNL     1      34.162  -5.592  11.292  1.00  0.00    -0.261 N 
ATOM     15  H10 UNL     1      33.207  -5.755  11.611  1.00  0.00     0.194 HD
BRANCH  14  16
HETATM   16  O2  UNL     1      34.510  -6.029  10.174  1.00  0.00    -0.289 OA
ATOM     17  H2  UNL     1      34.773  -5.450   9.468  1.00  0.00     0.244 HD
ENDBRANCH  14  16
ENDBRANCH   9  14
ENDBRANCH   1   2
BRANCH   1  18
HETATM   18  N4  UNL     1      34.750  -7.854  13.797  1.00  0.00    -0.160 N 
HETATM   19  C5  UNL     1      34.366  -8.347  14.996  1.00  0.00     0.239 A 
HETATM   20  N5  UNL     1      34.032  -9.613  14.858  1.00  0.00    -0.291 N 
HETATM   21  N6  UNL     1      34.197  -9.937  13.597  1.00  0.00    -0.278 N 
ATOM     22  H5  UNL     1      33.704 -10.233  15.599  1.00  0.00     0.188 HD
HETATM   23  C6  UNL     1      34.635  -8.892  12.907  1.00  0.00     0.224 A 
ATOM     24  H6  UNL     1      34.013 -10.860  13.204  1.00  0.00     0.189 HD
BRANCH  23  25
HETATM   25  C7  UNL     1      34.950  -8.816  11.468  1.00  0.00     0.296 C 
HETATM   26  O1  UNL     1      34.003  -8.860  10.637  1.00  0.00    -0.264 OA
HETATM   27  N7  UNL     1      36.308  -8.697  11.086  1.00  0.00    -0.295 N 
HETATM   28  C8  UNL     1      36.700  -8.617   9.712  1.00  0.00     0.188 C 
ATOM     29  H7  UNL     1      37.027  -8.669  11.809  1.00  0.00     0.171 HD
HETATM   30  N8  UNL     1      37.953  -8.511   9.451  1.00  0.00    -0.373 N 
HETATM   31  N9  UNL     1      35.787  -8.650   8.631  1.00  0.00    -0.064 NA
ATOM     32  H82 UNL     1      38.611  -8.487  10.230  1.00  0.00     0.158 HD
ATOM     33  H81 UNL     1      38.233  -8.454   8.472  1.00  0.00     0.158 HD
ENDBRANCH  23  25
ENDBRANCH   1  18
TORSDOF 6
ENDMDL
MODEL 4
REMARK VINA RESULT: -6.329226446      3.092      5.651
REMARK  6 active torsions:
REMARK  status: ('A' for Active; 'I' for Inactive)
REMARK    1  A    between atoms: N1_2  and  C3_4 
REMARK    2  A    between atoms: C4_7  and  N3_8 
REMARK    3  A    between atoms: N3_8  and  N4_9 
REMARK    4  A    between atoms: C6_15  and  C7_16 
REMARK       I    between atoms: C7_16  and  N7_18 
REMARK       I    between atoms: N7_18  and  C8_20 
REMARK    5  A    between atoms: C9_25  and  N10_26 
REMARK    6  A    between atoms: N10_26  and  O2_28 
ROOT
HETATM    1  N3  UNL     1      38.136  -2.663  12.940  1.00  0.00    -0.294 NA
ENDROOT
BRANCH   1   2
HETATM    2  C4  UNL     1      38.927  -3.511  13.097  1.00  0.00     0.250 A 
HETATM    3  N2  UNL     1      40.028  -3.710  12.298  1.00  0.00    -0.160 N 
HETATM    4  C3  UNL     1      40.917  -4.680  12.492  1.00  0.00     0.683 A 
ATOM      5  H2  UNL     1      40.171  -3.077  11.511  1.00  0.00     0.187 HD
HETATM    6  N12 UNL     1      40.742  -5.517  13.521  1.00  0.00    -0.176 N 
HETATM    7  C10 UNL     1      39.703  -5.435  14.385  1.00  0.00     0.165 A 
ATOM      8  H12 UNL     1      41.428  -6.259  13.661  1.00  0.00     0.185 HD
HETATM    9  C9  UNL     1      38.806  -4.427  14.159  1.00  0.00     0.156 A 
HETATM   10  N11 UNL     1      39.566  -6.347  15.456  1.00  0.00    -0.079 NA
BRANCH   4  11
HETATM   11  N1  UNL     1      42.056  -4.853  11.630  1.00  0.00    -0.226 N 
HETATM   12  C1  UNL     1      42.582  -3.766  10.855  1.00  0.00     0.168 C 
HETATM   13  C2  UNL     1      42.694  -6.144  11.533  1.00  0.00     0.168 C 
ENDBRANCH   4  11
BRANCH   9  14
HETATM   14  N10 UNL     1      37.691  -4.267  15.011  1.00  0.00    -0.261 N 
ATOM     15  H10 UNL     1      37.613  -3.418  15.570  1.00  0.00     0.194 HD
BRANCH  14  16
HETATM   16  O2  UNL     1      36.798  -5.136  15.102  1.00  0.00    -0.289 OA
ATOM     17  H2  UNL     1      37.002  -6.057  15.216  1.00  0.00     0.244 HD
ENDBRANCH  14  16
ENDBRANCH   9  14
ENDBRANCH   1   2
BRANCH   1  18
HETATM   18  N4  UNL     1      37.257  -1.706  12.760  1.00  0.00    -0.160 N 
HETATM   19  C5  UNL     1      37.396  -0.393  13.054  1.00  0.00     0.239 A 
HETATM   20  N5  UNL     1      36.292   0.244  12.726  1.00  0.00    -0.291 N 
HETATM   21  N6  UNL     1      35.452  -0.633  12.231  1.00  0.00    -0.278 N 
ATOM     22  H5  UNL     1      36.120   1.244  12.836  1.00  0.00     0.188 HD
HETATM   23  C6  UNL     1      35.998  -1.843  12.231  1.00  0.00     0.224 A 
ATOM     24  H6  UNL     1      34.514  -0.417  11.894  1.00  0.00     0.189 HD
BRANCH  23  25
HETATM   25  C7  UNL     1      35.406  -3.111  11.765  1.00  0.00     0.296 C 
HETATM   26  O1  UNL     1      35.042  -3.204  10.562  1.00  0.00    -0.264 OA
HETATM   27  N7  UNL     1      35.272  -4.169  12.697  1.00  0.00    -0.295 N 
HETATM   28  C8  UNL     1      34.708  -5.431  12.328  1.00  0.00     0.188 C 
ATOM     29  H7  UNL     1      35.585  -4.028  13.657  1.00  0.00     0.171 HD
HETATM   30  N8  UNL     1      34.623  -6.338  13.233  1.00  0.00    -0.373 N 
HETATM   31  N9  UNL     1      34.241  -5.733  11.026  1.00  0.00    -0.064 NA
ATOM     32  H82 UNL     1      34.960  -6.121  14.170  1.00  0.00     0.158 HD
ATOM     33  H81 UNL     1      34.221  -7.238  12.970  1.00  0.00     0.158 HD
ENDBRANCH  23  25
ENDBRANCH   1  18
TORSDOF 6
ENDMDL
MODEL 5
REMARK VINA RESULT: -6.325935611      1.352      1.517
REMARK  6 active torsions:
REMARK  status: ('A' for Active; 'I' for Inactive)
REMARK    1  A    between atoms: N1_2  and  C3_4 
REMARK    2  A    between atoms: C4_7  and  N3_8 
REMARK    3  A    between atoms: N3_8  and  N4_9 
REMARK    4  A    between atoms: C6_15  and  C7_16 
REMARK       I    between atoms: C7_16  and  N7_18 
REMARK       I    between atoms: N7_18  and  C8_20 
REMARK    5  A    between atoms: C9_25  and  N10_26 
REMARK    6  A    between atoms: N10_26  and  O2_28 
ROOT
HETATM    1  N3  UNL     1      37.250  -0.930  12.582  1.00  0.00    -0.294 NA
ENDROOT
BRANCH   1   2
HETATM    2  C4  UNL     1      37.956  -0.109  13.026  1.00  0.00     0.250 A 
HETATM    3  N2  UNL     1      39.275  -0.309  13.358  1.00  0.00    -0.160 N 
HETATM    4  C3  UNL     1      40.062   0.638  13.861  1.00  0.00     0.683 A 
ATOM      5  H2  UNL     1      39.672  -1.237  13.210  1.00  0.00     0.187 HD
HETATM    6  N12 UNL     1      39.554   1.859  14.060  1.00  0.00    -0.176 N 
HETATM    7  C10 UNL     1      38.272   2.193  13.777  1.00  0.00     0.165 A 
ATOM      8  H12 UNL     1      40.164   2.579  14.448  1.00  0.00     0.185 HD
HETATM    9  C9  UNL     1      37.488   1.198  13.261  1.00  0.00     0.156 A 
HETATM   10  N11 UNL     1      37.786   3.499  14.008  1.00  0.00    -0.079 NA
BRANCH   4  11
HETATM   11  N1  UNL     1      41.439   0.386  14.196  1.00  0.00    -0.226 N 
HETATM   12  C1  UNL     1      42.121  -0.786  13.727  1.00  0.00     0.168 C 
HETATM   13  C2  UNL     1      42.161   1.324  15.020  1.00  0.00     0.168 C 
ENDBRANCH   4  11
BRANCH   9  14
HETATM   14  N10 UNL     1      36.138   1.457  12.937  1.00  0.00    -0.261 N 
ATOM     15  H10 UNL     1      35.759   1.089  12.064  1.00  0.00     0.194 HD
BRANCH  14  16
HETATM   16  O2  UNL     1      35.394   2.125  13.687  1.00  0.00    -0.289 OA
ATOM     17  H2  UNL     1      34.448   2.092  13.614  1.00  0.00     0.244 HD
ENDBRANCH  14  16
ENDBRANCH   9  14
ENDBRANCH   1   2
BRANCH   1  18
HETATM   18  N4  UNL     1      36.459  -1.847  12.075  1.00  0.00    -0.160 N 
HETATM   19  C5  UNL     1      35.540  -1.691  11.096  1.00  0.00     0.239 A 
HETATM   20  N5  UNL     1      34.949  -2.846  10.869  1.00  0.00    -0.291 N 
HETATM   21  N6  UNL     1      35.470  -3.732  11.682  1.00  0.00    -0.278 N 
ATOM     22  H5  UNL     1      34.215  -3.020  10.181  1.00  0.00     0.188 HD
HETATM   23  C6  UNL     1      36.401  -3.168  12.442  1.00  0.00     0.224 A 
ATOM     24  H6  UNL     1      35.200  -4.714  11.725  1.00  0.00     0.189 HD
BRANCH  23  25
HETATM   25  C7  UNL     1      37.231  -3.798  13.485  1.00  0.00     0.296 C 
HETATM   26  O1  UNL     1      37.817  -4.882  13.222  1.00  0.00    -0.264 OA
HETATM   27  N7  UNL     1      37.332  -3.151  14.742  1.00  0.00    -0.295 N 
HETATM   28  C8  UNL     1      38.116  -3.693  15.808  1.00  0.00     0.188 C 
ATOM     29  H7  UNL     1      36.830  -2.275  14.891  1.00  0.00     0.171 HD
HETATM   30  N8  UNL     1      38.154  -3.044  16.915  1.00  0.00    -0.373 N 
HETATM   31  N9  UNL     1      38.848  -4.901  15.709  1.00  0.00    -0.064 NA
ATOM     32  H82 UNL     1      37.627  -2.174  16.986  1.00  0.00     0.158 HD
ATOM     33  H81 UNL     1      38.713  -3.431  17.675  1.00  0.00     0.158 HD
ENDBRANCH  23  25
ENDBRANCH   1  18
TORSDOF 6
ENDMDL
