MODEL 1
REMARK VINA RESULT: -7.093232318      0.000      0.000
REMARK  6 active torsions:
REMARK  status: ('A' for Active; 'I' for Inactive)
REMARK       I    between atoms: N1_2  and  C2_4 
REMARK    1  A    between atoms: C2_4  and  C3_6 
REMARK    2  A    between atoms: C4_7  and  C5_8 
REMARK    3  A    between atoms: C5_8  and  C7_16 
REMARK    4  A    between atoms: N2_9  and  N3_11 
REMARK       I    between atoms: N3_11  and  C6_13 
REMARK    5  A    between atoms: N8_23  and  C8_24 
REMARK    6  A    between atoms: C9_30  and  N11_31 
ROOT
HETATM    1  C3  UNL     1      36.545  -1.902  12.655  1.00  0.00     0.158 A 
HETATM    2  C4  UNL     1      35.809  -2.819  11.955  1.00  0.00     0.117 A 
HETATM    3  N6  UNL     1      35.069  -2.105  11.031  1.00  0.00    -0.281 N 
ATOM      4  H6  UNL     1      34.416  -2.498  10.355  1.00  0.00     0.188 HD
HETATM    5  N7  UNL     1      35.348  -0.866  11.174  1.00  0.00    -0.233 N 
ATOM      6  H7  UNL     1      34.938  -0.120  10.612  1.00  0.00     0.209 HD
HETATM    7  N8  UNL     1      36.244  -0.666  12.152  1.00  0.00    -0.212 N 
ENDROOT
BRANCH   2   8
HETATM    8  C5  UNL     1      35.785  -4.273  12.047  1.00  0.00     0.144 C 
HETATM    9  N2  UNL     1      34.902  -4.966  11.498  1.00  0.00    -0.290 N 
ATOM     10  H2  UNL     1      34.170  -4.496  10.965  1.00  0.00     0.187 HD
BRANCH   9  11
HETATM   11  N3  UNL     1      34.879  -6.350  11.585  1.00  0.00    -0.253 N 
HETATM   12  C6  UNL     1      33.652  -7.074  11.721  1.00  0.00     0.347 C 
HETATM   13  N4  UNL     1      33.630  -8.490  11.810  1.00  0.00    -0.038 NA
HETATM   14  O2  UNL     1      32.591  -6.381  11.758  1.00  0.00    -0.249 OA
ATOM     15  H3  UNL     1      35.759  -6.865  11.551  1.00  0.00     0.191 HD
ENDBRANCH   9  11
BRANCH   8  16
HETATM   16  C7  UNL     1      36.837  -4.956  12.813  1.00  0.00     0.285 C 
HETATM   17  N5  UNL     1      36.580  -5.373  14.162  1.00  0.00    -0.056 NA
HETATM   18  O3  UNL     1      37.978  -5.204  12.348  1.00  0.00    -0.269 OA
ENDBRANCH   8  16
ENDBRANCH   2   8
BRANCH   1  19
HETATM   19  C2  UNL     1      37.419  -2.111  13.789  1.00  0.00     0.272 C 
HETATM   20  N1  UNL     1      36.990  -2.227  15.145  1.00  0.00    -0.360 N 
HETATM   21  C1  UNL     1      37.926  -2.446  16.246  1.00  0.00     0.149 C 
ATOM     22  H1  UNL     1      35.995  -2.153  15.355  1.00  0.00     0.162 HD
HETATM   23  O1  UNL     1      38.664  -2.203  13.639  1.00  0.00    -0.266 OA
ENDBRANCH   1  19
BRANCH   7  24
HETATM   24  C8  UNL     1      36.742   0.587  12.579  1.00  0.00     0.196 A 
HETATM   25  N9  UNL     1      36.007   1.523  13.201  1.00  0.00    -0.220 N 
HETATM   26  O4  UNL     1      36.760   2.576  13.446  1.00  0.00    -0.153 OA
ATOM     27  H9  UNL     1      35.021   1.433  13.446  1.00  0.00     0.198 HD
HETATM   28  N10 UNL     1      37.966   2.371  13.011  1.00  0.00    -0.222 N 
HETATM   29  C9  UNL     1      38.001   1.130  12.456  1.00  0.00     0.169 A 
ATOM     30  H10 UNL     1      38.747   3.025  13.075  1.00  0.00     0.198 HD
BRANCH  29  31
HETATM   31  N11 UNL     1      38.997   0.534  11.911  1.00  0.00    -0.381 N 
ATOM     32 2H11 UNL     1      38.998  -0.344  11.391  1.00  0.00     0.157 HD
ATOM     33 1H11 UNL     1      39.956   0.881  11.930  1.00  0.00     0.157 HD
ENDBRANCH  29  31
ENDBRANCH   7  24
TORSDOF 6
ENDMDL
MODEL 2
REMARK VINA RESULT: -7.071059253      1.620      6.532
REMARK  6 active torsions:
REMARK  status: ('A' for Active; 'I' for Inactive)
REMARK       I    between atoms: N1_2  and  C2_4 
REMARK    1  A    between atoms: C2_4  and  C3_6 
REMARK    2  A    between atoms: C4_7  and  C5_8 
REMARK    3  A    between atoms: C5_8  and  C7_16 
REMARK    4  A    between atoms: N2_9  and  N3_11 
REMARK       I    between atoms: N3_11  and  C6_13 
REMARK    5  A    between atoms: N8_23  and  C8_24 
REMARK    6  A    between atoms: C9_30  and  N11_31 
ROOT
HETATM    1  C3  UNL     1      36.344  -2.468  12.826  1.00  0.00     0.158 A 
HETATM    2  C4  UNL     1      36.321  -1.341  12.049  1.00  0.00     0.117 A 
HETATM    3  N6  UNL     1      35.462  -1.606  11.000  1.00  0.00    -0.281 N 
ATOM      4  H6  UNL     1      35.227  -0.966  10.242  1.00  0.00     0.188 HD
HETATM    5  N7  UNL     1      35.012  -2.793  11.147  1.00  0.00    -0.233 N 
ATOM      6  H7  UNL     1      34.354  -3.238  10.507  1.00  0.00     0.209 HD
HETATM    7  N8  UNL     1      35.510  -3.383  12.244  1.00  0.00    -0.212 N 
ENDROOT
BRANCH   2   8
HETATM    8  C5  UNL     1      36.983  -0.057  12.237  1.00  0.00     0.144 C 
HETATM    9  N2  UNL     1      36.353   1.020  12.303  1.00  0.00    -0.290 N 
ATOM     10  H2  UNL     1      35.336   1.000  12.222  1.00  0.00     0.187 HD
BRANCH   9  11
HETATM   11  N3  UNL     1      36.982   2.243  12.483  1.00  0.00    -0.253 N 
HETATM   12  C6  UNL     1      36.337   3.328  13.155  1.00  0.00     0.347 C 
HETATM   13  N4  UNL     1      36.982   4.579  13.338  1.00  0.00    -0.038 NA
HETATM   14  O2  UNL     1      35.160   3.110  13.576  1.00  0.00    -0.249 OA
ATOM     15  H3  UNL     1      37.929   2.371  12.127  1.00  0.00     0.191 HD
ENDBRANCH   9  11
BRANCH   8  16
HETATM   16  C7  UNL     1      38.447  -0.020  12.355  1.00  0.00     0.285 C 
HETATM   17  N5  UNL     1      39.056   0.064  13.653  1.00  0.00    -0.056 NA
HETATM   18  O3  UNL     1      39.221  -0.057  11.365  1.00  0.00    -0.269 OA
ENDBRANCH   8  16
ENDBRANCH   2   8
BRANCH   1  19
HETATM   19  C2  UNL     1      37.146  -2.750  13.996  1.00  0.00     0.272 C 
HETATM   20  N1  UNL     1      37.070  -2.042  15.233  1.00  0.00    -0.360 N 
HETATM   21  C1  UNL     1      37.904  -2.383  16.383  1.00  0.00     0.149 C 
ATOM     22  H1  UNL     1      36.410  -1.268  15.317  1.00  0.00     0.162 HD
HETATM   23  O1  UNL     1      37.997  -3.676  13.992  1.00  0.00    -0.266 OA
ENDBRANCH   1  19
BRANCH   7  24
HETATM   24  C8  UNL     1      35.236  -4.701  12.676  1.00  0.00     0.196 A 
HETATM   25  N9  UNL     1      35.394  -5.135  13.937  1.00  0.00    -0.220 N 
HETATM   26  O4  UNL     1      35.073  -6.411  14.001  1.00  0.00    -0.153 OA
ATOM     27  H9  UNL     1      35.712  -4.565  14.721  1.00  0.00     0.198 HD
HETATM   28  N10 UNL     1      34.707  -6.838  12.832  1.00  0.00    -0.222 N 
HETATM   29  C9  UNL     1      34.795  -5.795  11.964  1.00  0.00     0.169 A 
ATOM     30  H10 UNL     1      34.407  -7.787  12.604  1.00  0.00     0.198 HD
BRANCH  29  31
HETATM   31  N11 UNL     1      34.526  -5.782  10.710  1.00  0.00    -0.381 N 
ATOM     32 2H11 UNL     1      34.706  -6.511  10.020  1.00  0.00     0.157 HD
ATOM     33 1H11 UNL     1      34.077  -5.005  10.225  1.00  0.00     0.157 HD
ENDBRANCH  29  31
ENDBRANCH   7  24
TORSDOF 6
ENDMDL
MODEL 3
REMARK VINA RESULT: -7.060893807      1.694      2.490
REMARK  6 active torsions:
REMARK  status: ('A' for Active; 'I' for Inactive)
REMARK       I    between atoms: N1_2  and  C2_4 
REMARK    1  A    between atoms: C2_4  and  C3_6 
REMARK    2  A    between atoms: C4_7  and  C5_8 
REMARK    3  A    between atoms: C5_8  and  C7_16 
REMARK    4  A    between atoms: N2_9  and  N3_11 
REMARK       I    between atoms: N3_11  and  C6_13 
REMARK    5  A    between atoms: N8_23  and  C8_24 
REMARK    6  A    between atoms: C9_30  and  N11_31 
ROOT
HETATM    1  C3  UNL     1      36.479  -2.641  12.650  1.00  0.00     0.158 A 
HETATM    2  C4  UNL     1      35.530  -3.487  12.143  1.00  0.00     0.117 A 
HETATM    3  N6  UNL     1      35.010  -2.866  11.024  1.00  0.00    -0.281 N 
ATOM      4  H6  UNL     1      34.278  -3.238  10.418  1.00  0.00     0.188 HD
HETATM    5  N7  UNL     1      35.605  -1.745  10.880  1.00  0.00    -0.233 N 
ATOM      6  H7  UNL     1      35.410  -1.087  10.126  1.00  0.00     0.209 HD
HETATM    7  N8  UNL     1      36.518  -1.539  11.840  1.00  0.00    -0.212 N 
ENDROOT
BRANCH   2   8
HETATM    8  C5  UNL     1      35.122  -4.815  12.585  1.00  0.00     0.144 C 
HETATM    9  N2  UNL     1      35.431  -5.275  13.704  1.00  0.00    -0.290 N 
ATOM     10  H2  UNL     1      35.993  -4.700  14.333  1.00  0.00     0.187 HD
BRANCH   9  11
HETATM   11  N3  UNL     1      35.042  -6.537  14.125  1.00  0.00    -0.253 N 
HETATM   12  C6  UNL     1      35.979  -7.612  14.246  1.00  0.00     0.347 C 
HETATM   13  N4  UNL     1      35.579  -8.904  14.677  1.00  0.00    -0.038 NA
HETATM   14  O2  UNL     1      37.182  -7.345  13.946  1.00  0.00    -0.249 OA
ATOM     15  H3  UNL     1      34.063  -6.704  14.356  1.00  0.00     0.191 HD
ENDBRANCH   9  11
BRANCH   8  16
HETATM   16  C7  UNL     1      34.312  -5.648  11.684  1.00  0.00     0.285 C 
HETATM   17  N5  UNL     1      33.012  -6.092  12.100  1.00  0.00    -0.056 NA
HETATM   18  O3  UNL     1      34.698  -6.007  10.543  1.00  0.00    -0.269 OA
ENDBRANCH   8  16
ENDBRANCH   2   8
BRANCH   1  19
HETATM   19  C2  UNL     1      37.262  -2.772  13.859  1.00  0.00     0.272 C 
HETATM   20  N1  UNL     1      37.068  -2.008  15.049  1.00  0.00    -0.360 N 
HETATM   21  C1  UNL     1      37.891  -2.196  16.242  1.00  0.00     0.149 C 
ATOM     22  H1  UNL     1      36.329  -1.306  15.067  1.00  0.00     0.162 HD
HETATM   23  O1  UNL     1      38.204  -3.601  13.935  1.00  0.00    -0.266 OA
ENDBRANCH   1  19
BRANCH   7  24
HETATM   24  C8  UNL     1      37.328  -0.389  11.985  1.00  0.00     0.196 A 
HETATM   25  N9  UNL     1      38.597  -0.295  11.555  1.00  0.00    -0.220 N 
HETATM   26  O4  UNL     1      39.073   0.895  11.861  1.00  0.00    -0.153 OA
ATOM     27  H9  UNL     1      39.111  -1.029  11.068  1.00  0.00     0.198 HD
HETATM   28  N10 UNL     1      38.167   1.593  12.475  1.00  0.00    -0.222 N 
HETATM   29  C9  UNL     1      37.050   0.823  12.576  1.00  0.00     0.169 A 
ATOM     30  H10 UNL     1      38.273   2.548  12.819  1.00  0.00     0.198 HD
BRANCH  29  31
HETATM   31  N11 UNL     1      35.925   1.127  13.112  1.00  0.00    -0.381 N 
ATOM     32 2H11 UNL     1      35.120   0.521  13.272  1.00  0.00     0.157 HD
ATOM     33 1H11 UNL     1      35.685   2.055  13.460  1.00  0.00     0.157 HD
ENDBRANCH  29  31
ENDBRANCH   7  24
TORSDOF 6
ENDMDL
MODEL 4
REMARK VINA RESULT: -7.048714422      1.589      2.240
REMARK  6 active torsions:
REMARK  status: ('A' for Active; 'I' for Inactive)
REMARK       I    between atoms: N1_2  and  C2_4 
REMARK    1  A    between atoms: C2_4  and  C3_6 
REMARK    2  A    between atoms: C4_7  and  C5_8 
REMARK    3  A    between atoms: C5_8  and  C7_16 
REMARK    4  A    between atoms: N2_9  and  N3_11 
REMARK       I    between atoms: N3_11  and  C6_13 
REMARK    5  A    between atoms: N8_23  and  C8_24 
REMARK    6  A    between atoms: C9_30  and  N11_31 
ROOT
HETATM    1  C3  UNL     1      36.255  -2.573  12.822  1.00  0.00     0.158 A 
HETATM    2  C4  UNL     1      35.365  -3.460  12.279  1.00  0.00     0.117 A 
HETATM    3  N6  UNL     1      34.759  -2.809  11.221  1.00  0.00    -0.281 N 
ATOM      4  H6  UNL     1      34.043  -3.199  10.609  1.00  0.00     0.188 HD
HETATM    5  N7  UNL     1      35.254  -1.634  11.145  1.00  0.00    -0.233 N 
ATOM      6  H7  UNL     1      34.981  -0.943  10.445  1.00  0.00     0.209 HD
HETATM    7  N8  UNL     1      36.177  -1.418  12.094  1.00  0.00    -0.212 N 
ENDROOT
BRANCH   2   8
HETATM    8  C5  UNL     1      35.083  -4.845  12.634  1.00  0.00     0.144 C 
HETATM    9  N2  UNL     1      35.458  -5.352  13.712  1.00  0.00    -0.290 N 
ATOM     10  H2  UNL     1      35.982  -4.775  14.370  1.00  0.00     0.187 HD
BRANCH   9  11
HETATM   11  N3  UNL     1      35.189  -6.670  14.051  1.00  0.00    -0.253 N 
HETATM   12  C6  UNL     1      36.229  -7.647  14.150  1.00  0.00     0.347 C 
HETATM   13  N4  UNL     1      35.952  -8.996  14.496  1.00  0.00    -0.038 NA
HETATM   14  O2  UNL     1      37.407  -7.242  13.911  1.00  0.00    -0.249 OA
ATOM     15  H3  UNL     1      34.225  -6.949  14.234  1.00  0.00     0.191 HD
ENDBRANCH   9  11
BRANCH   8  16
HETATM   16  C7  UNL     1      34.327  -5.682  11.691  1.00  0.00     0.285 C 
HETATM   17  N5  UNL     1      33.047  -6.209  12.074  1.00  0.00    -0.056 NA
HETATM   18  O3  UNL     1      34.742  -5.975  10.542  1.00  0.00    -0.269 OA
ENDBRANCH   8  16
ENDBRANCH   2   8
BRANCH   1  19
HETATM   19  C2  UNL     1      37.083  -2.721  13.999  1.00  0.00     0.272 C 
HETATM   20  N1  UNL     1      36.957  -1.950  15.193  1.00  0.00    -0.360 N 
HETATM   21  C1  UNL     1      37.823  -2.155  16.352  1.00  0.00     0.149 C 
ATOM     22  H1  UNL     1      36.236  -1.229  15.240  1.00  0.00     0.162 HD
HETATM   23  O1  UNL     1      38.007  -3.573  14.038  1.00  0.00    -0.266 OA
ENDBRANCH   1  19
BRANCH   7  24
HETATM   24  C8  UNL     1      36.891  -0.215  12.301  1.00  0.00     0.196 A 
HETATM   25  N9  UNL     1      36.398   0.860  12.938  1.00  0.00    -0.220 N 
HETATM   26  O4  UNL     1      37.305   1.816  12.943  1.00  0.00    -0.153 OA
ATOM     27  H9  UNL     1      35.468   0.926  13.352  1.00  0.00     0.198 HD
HETATM   28  N10 UNL     1      38.379   1.414  12.336  1.00  0.00    -0.222 N 
HETATM   29  C9  UNL     1      38.164   0.139  11.914  1.00  0.00     0.169 A 
ATOM     30  H10 UNL     1      39.233   1.957  12.200  1.00  0.00     0.198 HD
BRANCH  29  31
HETATM   31  N11 UNL     1      38.966  -0.630  11.273  1.00  0.00    -0.381 N 
ATOM     32 2H11 UNL     1      39.061  -1.643  11.347  1.00  0.00     0.157 HD
ATOM     33 1H11 UNL     1      39.639  -0.308  10.578  1.00  0.00     0.157 HD
ENDBRANCH  29  31
ENDBRANCH   7  24
TORSDOF 6
ENDMDL
MODEL 5
REMARK VINA RESULT: -6.996991127      1.086      1.471
REMARK  6 active torsions:
REMARK  status: ('A' for Active; 'I' for Inactive)
REMARK       I    between atoms: N1_2  and  C2_4 
REMARK    1  A    between atoms: C2_4  and  C3_6 
REMARK    2  A    between atoms: C4_7  and  C5_8 
REMARK    3  A    between atoms: C5_8  and  C7_16 
REMARK    4  A    between atoms: N2_9  and  N3_11 
REMARK       I    between atoms: N3_11  and  C6_13 
REMARK    5  A    between atoms: N8_23  and  C8_24 
REMARK    6  A    between atoms: C9_30  and  N11_31 
ROOT
HETATM    1  C3  UNL     1      37.181  -1.968  12.926  1.00  0.00     0.158 A 
HETATM    2  C4  UNL     1      36.470  -2.992  12.361  1.00  0.00     0.117 A 
HETATM    3  N6  UNL     1      35.953  -2.503  11.176  1.00  0.00    -0.281 N 
ATOM      4  H6  UNL     1      35.372  -3.021  10.517  1.00  0.00     0.188 HD
HETATM    5  N7  UNL     1      36.331  -1.289  11.051  1.00  0.00    -0.233 N 
ATOM      6  H7  UNL     1      36.087  -0.694  10.259  1.00  0.00     0.209 HD
HETATM    7  N8  UNL     1      37.086  -0.892  12.086  1.00  0.00    -0.212 N 
ENDROOT
BRANCH   2   8
HETATM    8  C5  UNL     1      36.285  -4.367  12.807  1.00  0.00     0.144 C 
HETATM    9  N2  UNL     1      35.161  -4.909  12.866  1.00  0.00    -0.290 N 
ATOM     10  H2  UNL     1      34.340  -4.368  12.591  1.00  0.00     0.187 HD
BRANCH   9  11
HETATM   11  N3  UNL     1      34.984  -6.217  13.290  1.00  0.00    -0.253 N 
HETATM   12  C6  UNL     1      33.760  -6.922  13.064  1.00  0.00     0.347 C 
HETATM   13  N4  UNL     1      33.581  -8.261  13.499  1.00  0.00    -0.038 NA
HETATM   14  O2  UNL     1      32.848  -6.284  12.457  1.00  0.00    -0.249 OA
ATOM     15  H3  UNL     1      35.747  -6.689  13.775  1.00  0.00     0.191 HD
ENDBRANCH   9  11
BRANCH   8  16
HETATM   16  C7  UNL     1      37.463  -5.152  13.203  1.00  0.00     0.285 C 
HETATM   17  N5  UNL     1      37.766  -5.330  14.595  1.00  0.00    -0.056 NA
HETATM   18  O3  UNL     1      38.243  -5.691  12.378  1.00  0.00    -0.269 OA
ENDBRANCH   8  16
ENDBRANCH   2   8
BRANCH   1  19
HETATM   19  C2  UNL     1      37.849  -1.923  14.207  1.00  0.00     0.272 C 
HETATM   20  N1  UNL     1      37.215  -2.121  15.471  1.00  0.00    -0.360 N 
HETATM   21  C1  UNL     1      37.951  -2.071  16.732  1.00  0.00     0.149 C 
ATOM     22  H1  UNL     1      36.212  -2.303  15.495  1.00  0.00     0.162 HD
HETATM   23  O1  UNL     1      39.083  -1.694  14.287  1.00  0.00    -0.266 OA
ENDBRANCH   1  19
BRANCH   7  24
HETATM   24  C8  UNL     1      37.637   0.397  12.266  1.00  0.00     0.196 A 
HETATM   25  N9  UNL     1      38.895   0.737  11.940  1.00  0.00    -0.220 N 
HETATM   26  O4  UNL     1      39.099   2.000  12.253  1.00  0.00    -0.153 OA
ATOM     27  H9  UNL     1      39.583   0.114  11.515  1.00  0.00     0.198 HD
HETATM   28  N10 UNL     1      38.025   2.510  12.772  1.00  0.00    -0.222 N 
HETATM   29  C9  UNL     1      37.077   1.535  12.801  1.00  0.00     0.169 A 
ATOM     30  H10 UNL     1      37.911   3.470  13.099  1.00  0.00     0.198 HD
BRANCH  29  31
HETATM   31  N11 UNL     1      35.873   1.614  13.235  1.00  0.00    -0.381 N 
ATOM     32 2H11 UNL     1      35.121   0.931  13.136  1.00  0.00     0.157 HD
ATOM     33 1H11 UNL     1      35.499   2.407  13.757  1.00  0.00     0.157 HD
ENDBRANCH  29  31
ENDBRANCH   7  24
TORSDOF 6
ENDMDL
