MODEL 1
REMARK VINA RESULT: -6.242510985      0.000      0.000
REMARK  9 active torsions:
REMARK  status: ('A' for Active; 'I' for Inactive)
REMARK    1  A    between atoms: C2_2  and  N1_3 
REMARK    2  A    between atoms: C2_2  and  N2_7 
REMARK    3  A    between atoms: C2_2  and  C3_11 
REMARK    4  A    between atoms: C3_11  and  C4_12 
REMARK    5  A    between atoms: C4_12  and  N3_13 
REMARK    6  A    between atoms: C5_14  and  N4_15 
REMARK    7  A    between atoms: N5_18  and  N6_19 
REMARK    8  A    between atoms: C7_25  and  S1_26 
REMARK    9  A    between atoms: S1_26  and  N8_27 
ROOT
HETATM    1  N3  UNL     1      37.225  -0.709  12.041  1.00  0.00    -0.163 N 
HETATM    2  C5  UNL     1      38.523  -1.032  11.779  1.00  0.00     0.702 A 
HETATM    3  N5  UNL     1      39.289   0.058  12.034  1.00  0.00    -0.072 N 
HETATM    4  C6  UNL     1      38.510   1.068  12.451  1.00  0.00     0.191 A 
HETATM    5  N7  UNL     1      38.681   2.347  12.838  1.00  0.00    -0.324 N 
ATOM      6  H7  UNL     1      39.624   2.737  12.845  1.00  0.00     0.168 HD
HETATM    7  C7  UNL     1      37.657   3.127  13.213  1.00  0.00     0.192 A 
HETATM    8  C8  UNL     1      36.390   2.608  13.201  1.00  0.00     0.158 A 
HETATM    9  N9  UNL     1      35.313   3.417  13.592  1.00  0.00    -0.079 NA
HETATM   10  N10 UNL     1      36.186   1.346  12.824  1.00  0.00    -0.325 N 
ATOM     11  H10 UNL     1      35.240   0.965  12.818  1.00  0.00     0.169 HD
HETATM   12  C9  UNL     1      37.228   0.569  12.449  1.00  0.00     0.172 A 
ENDROOT
BRANCH   1  13
HETATM   13  C4  UNL     1      36.103  -1.598  11.895  1.00  0.00     0.154 C 
BRANCH  13  14
HETATM   14  C3  UNL     1      36.074  -2.569  13.058  1.00  0.00     0.089 C 
BRANCH  14  15
HETATM   15  C2  UNL     1      35.743  -3.970  12.587  1.00  0.00     0.280 C 
HETATM   16  C1  UNL     1      36.967  -4.830  12.547  1.00  0.00     0.078 C 
BRANCH  15  17
HETATM   17  N1  UNL     1      34.840  -4.539  13.579  1.00  0.00    -0.045 N 
ATOM     18  H13 UNL     1      34.549  -5.490  13.353  1.00  0.00     0.277 HD
ATOM     19  H12 UNL     1      35.302  -4.748  14.464  1.00  0.00     0.277 HD
ATOM     20  H11 UNL     1      34.055  -3.896  13.683  1.00  0.00     0.277 HD
ENDBRANCH  15  17
BRANCH  15  21
HETATM   21  N2  UNL     1      35.079  -3.981  11.320  1.00  0.00    -0.045 N 
ATOM     22  H23 UNL     1      35.188  -4.876  10.843  1.00  0.00     0.277 HD
ATOM     23  H22 UNL     1      34.064  -3.987  11.425  1.00  0.00     0.277 HD
ATOM     24  H21 UNL     1      35.396  -3.203  10.742  1.00  0.00     0.277 HD
ENDBRANCH  15  21
ENDBRANCH  14  15
ENDBRANCH  13  14
ENDBRANCH   1  13
BRANCH   2  25
HETATM   25  N4  UNL     1      38.993  -2.160  11.361  1.00  0.00    -0.233 N 
ATOM     26  H42 UNL     1      38.411  -2.948  11.080  1.00  0.00     0.174 HD
ATOM     27  H41 UNL     1      39.970  -2.431  11.251  1.00  0.00     0.174 HD
ENDBRANCH   2  25
BRANCH   3  28
HETATM   28  N6  UNL     1      40.676   0.143  11.891  1.00  0.00    -0.322 N 
ATOM     29  H62 UNL     1      41.330   0.232  12.669  1.00  0.00     0.178 HD
ATOM     30  H61 UNL     1      41.193   0.128  11.012  1.00  0.00     0.178 HD
ENDBRANCH   3  28
BRANCH   7  31
HETATM   31  S1  UNL     1      37.924   4.756  13.700  1.00  0.00     0.275 S 
HETATM   32  O1  UNL     1      37.609   5.648  12.505  1.00  0.00    -0.199 OA
HETATM   33  O2  UNL     1      39.405   4.906  14.021  1.00  0.00    -0.199 OA
BRANCH  31  34
HETATM   34  N8  UNL     1      37.024   5.279  15.014  1.00  0.00    -0.323 N 
ATOM     35  H82 UNL     1      36.909   4.695  15.842  1.00  0.00     0.169 HD
ATOM     36  H81 UNL     1      36.609   6.206  14.925  1.00  0.00     0.169 HD
ENDBRANCH  31  34
ENDBRANCH   7  31
TORSDOF 9
ENDMDL
MODEL 2
REMARK VINA RESULT: -5.817380954      1.394      1.782
REMARK  9 active torsions:
REMARK  status: ('A' for Active; 'I' for Inactive)
REMARK    1  A    between atoms: C2_2  and  N1_3 
REMARK    2  A    between atoms: C2_2  and  N2_7 
REMARK    3  A    between atoms: C2_2  and  C3_11 
REMARK    4  A    between atoms: C3_11  and  C4_12 
REMARK    5  A    between atoms: C4_12  and  N3_13 
REMARK    6  A    between atoms: C5_14  and  N4_15 
REMARK    7  A    between atoms: N5_18  and  N6_19 
REMARK    8  A    between atoms: C7_25  and  S1_26 
REMARK    9  A    between atoms: S1_26  and  N8_27 
ROOT
HETATM    1  N3  UNL     1      38.743  -1.444  13.162  1.00  0.00    -0.163 N 
HETATM    2  C5  UNL     1      40.101  -1.483  13.063  1.00  0.00     0.702 A 
HETATM    3  N5  UNL     1      40.561  -0.206  13.058  1.00  0.00    -0.072 N 
HETATM    4  C6  UNL     1      39.527   0.644  13.152  1.00  0.00     0.191 A 
HETATM    5  N7  UNL     1      39.353   1.980  13.193  1.00  0.00    -0.324 N 
ATOM      6  H7  UNL     1      40.173   2.585  13.146  1.00  0.00     0.168 HD
HETATM    7  C7  UNL     1      38.141   2.543  13.294  1.00  0.00     0.192 A 
HETATM    8  C8  UNL     1      37.037   1.735  13.355  1.00  0.00     0.158 A 
HETATM    9  N9  UNL     1      35.765   2.316  13.460  1.00  0.00    -0.079 NA
HETATM   10  N10 UNL     1      37.175   0.410  13.315  1.00  0.00    -0.325 N 
ATOM     11  H10 UNL     1      36.349  -0.188  13.362  1.00  0.00     0.169 HD
HETATM   12  C9  UNL     1      38.404  -0.147  13.215  1.00  0.00     0.172 A 
ENDROOT
BRANCH   1  13
HETATM   13  C4  UNL     1      37.879  -2.595  13.199  1.00  0.00     0.154 C 
BRANCH  13  14
HETATM   14  C3  UNL     1      37.182  -2.745  11.861  1.00  0.00     0.089 C 
BRANCH  14  15
HETATM   15  C2  UNL     1      35.677  -2.722  12.029  1.00  0.00     0.280 C 
HETATM   16  C1  UNL     1      35.068  -1.580  11.280  1.00  0.00     0.078 C 
BRANCH  15  17
HETATM   17  N1  UNL     1      35.175  -3.954  11.435  1.00  0.00    -0.045 N 
ATOM     18  H13 UNL     1      34.173  -3.924  11.243  1.00  0.00     0.277 HD
ATOM     19  H12 UNL     1      35.491  -4.091  10.474  1.00  0.00     0.277 HD
ATOM     20  H11 UNL     1      35.438  -4.722  12.052  1.00  0.00     0.277 HD
ENDBRANCH  15  17
BRANCH  15  21
HETATM   21  N2  UNL     1      35.277  -2.694  13.402  1.00  0.00    -0.045 N 
ATOM     22  H23 UNL     1      34.309  -2.990  13.521  1.00  0.00     0.277 HD
ATOM     23  H22 UNL     1      35.730  -3.430  13.944  1.00  0.00     0.277 HD
ATOM     24  H21 UNL     1      35.442  -1.771  13.805  1.00  0.00     0.277 HD
ENDBRANCH  15  21
ENDBRANCH  14  15
ENDBRANCH  13  14
ENDBRANCH   1  13
BRANCH   2  25
HETATM   25  N4  UNL     1      40.863  -2.522  12.984  1.00  0.00    -0.233 N 
ATOM     26  H42 UNL     1      40.519  -3.482  13.011  1.00  0.00     0.174 HD
ATOM     27  H41 UNL     1      41.878  -2.550  12.888  1.00  0.00     0.174 HD
ENDBRANCH   2  25
BRANCH   3  28
HETATM   28  N6  UNL     1      41.898   0.188  12.970  1.00  0.00    -0.322 N 
ATOM     29  H62 UNL     1      42.691  -0.419  13.178  1.00  0.00     0.178 HD
ATOM     30  H61 UNL     1      42.237   1.110  12.695  1.00  0.00     0.178 HD
ENDBRANCH   3  28
BRANCH   7  31
HETATM   31  S1  UNL     1      37.967   4.255  13.344  1.00  0.00     0.275 S 
HETATM   32  O1  UNL     1      37.601   4.718  11.940  1.00  0.00    -0.199 OA
HETATM   33  O2  UNL     1      39.325   4.847  13.697  1.00  0.00    -0.199 OA
BRANCH  31  34
HETATM   34  N8  UNL     1      36.821   4.838  14.420  1.00  0.00    -0.323 N 
ATOM     35  H82 UNL     1      36.460   5.789  14.345  1.00  0.00     0.169 HD
ATOM     36  H81 UNL     1      36.516   4.183  15.139  1.00  0.00     0.169 HD
ENDBRANCH  31  34
ENDBRANCH   7  31
TORSDOF 9
ENDMDL
MODEL 3
REMARK VINA RESULT: -5.777418103      5.497      8.013
REMARK  9 active torsions:
REMARK  status: ('A' for Active; 'I' for Inactive)
REMARK    1  A    between atoms: C2_2  and  N1_3 
REMARK    2  A    between atoms: C2_2  and  N2_7 
REMARK    3  A    between atoms: C2_2  and  C3_11 
REMARK    4  A    between atoms: C3_11  and  C4_12 
REMARK    5  A    between atoms: C4_12  and  N3_13 
REMARK    6  A    between atoms: C5_14  and  N4_15 
REMARK    7  A    between atoms: N5_18  and  N6_19 
REMARK    8  A    between atoms: C7_25  and  S1_26 
REMARK    9  A    between atoms: S1_26  and  N8_27 
ROOT
HETATM    1  N3  UNL     1      37.787  -2.768  12.199  1.00  0.00    -0.163 N 
HETATM    2  C5  UNL     1      37.080  -1.701  11.731  1.00  0.00     0.702 A 
HETATM    3  N5  UNL     1      35.815  -2.114  11.469  1.00  0.00    -0.072 N 
HETATM    4  C6  UNL     1      35.699  -3.419  11.759  1.00  0.00     0.191 A 
HETATM    5  N7  UNL     1      34.730  -4.355  11.711  1.00  0.00    -0.324 N 
ATOM      6  H7  UNL     1      33.804  -4.088  11.377  1.00  0.00     0.168 HD
HETATM    7  C7  UNL     1      34.940  -5.625  12.087  1.00  0.00     0.192 A 
HETATM    8  C8  UNL     1      36.183  -5.988  12.534  1.00  0.00     0.158 A 
HETATM    9  N9  UNL     1      36.410  -7.314  12.930  1.00  0.00    -0.079 NA
HETATM   10  N10 UNL     1      37.162  -5.086  12.593  1.00  0.00    -0.325 N 
ATOM     11  H10 UNL     1      38.086  -5.362  12.928  1.00  0.00     0.169 HD
HETATM   12  C9  UNL     1      36.938  -3.808  12.212  1.00  0.00     0.172 A 
ENDROOT
BRANCH   1  13
HETATM   13  C4  UNL     1      39.171  -2.740  12.591  1.00  0.00     0.154 C 
BRANCH  13  14
HETATM   14  C3  UNL     1      40.047  -2.847  11.359  1.00  0.00     0.089 C 
BRANCH  14  15
HETATM   15  C2  UNL     1      41.032  -1.699  11.292  1.00  0.00     0.280 C 
HETATM   16  C1  UNL     1      42.424  -2.195  11.061  1.00  0.00     0.078 C 
BRANCH  15  17
HETATM   17  N1  UNL     1      40.655  -0.896  10.136  1.00  0.00    -0.045 N 
ATOM     18  H13 UNL     1      40.522   0.090  10.362  1.00  0.00     0.277 HD
ATOM     19  H12 UNL     1      41.416  -0.779   9.467  1.00  0.00     0.277 HD
ATOM     20  H11 UNL     1      39.826  -1.324   9.722  1.00  0.00     0.277 HD
ENDBRANCH  15  17
BRANCH  15  21
HETATM   21  N2  UNL     1      40.981  -0.863  12.452  1.00  0.00    -0.045 N 
ATOM     22  H23 UNL     1      40.066  -0.893  12.901  1.00  0.00     0.277 HD
ATOM     23  H22 UNL     1      41.540  -1.243  13.217  1.00  0.00     0.277 HD
ATOM     24  H21 UNL     1      41.257   0.090  12.218  1.00  0.00     0.277 HD
ENDBRANCH  15  21
ENDBRANCH  14  15
ENDBRANCH  13  14
ENDBRANCH   1  13
BRANCH   2  25
HETATM   25  N4  UNL     1      37.494  -0.492  11.550  1.00  0.00    -0.233 N 
ATOM     26  H42 UNL     1      38.298  -0.247  10.972  1.00  0.00     0.174 HD
ATOM     27  H41 UNL     1      37.105   0.369  11.934  1.00  0.00     0.174 HD
ENDBRANCH   2  25
BRANCH   3  28
HETATM   28  N6  UNL     1      34.775  -1.324  10.973  1.00  0.00    -0.322 N 
ATOM     29  H62 UNL     1      34.889  -0.614  10.248  1.00  0.00     0.178 HD
ATOM     30  H61 UNL     1      33.800  -1.358  11.268  1.00  0.00     0.178 HD
ENDBRANCH   3  28
BRANCH   7  31
HETATM   31  S1  UNL     1      33.672  -6.786  12.009  1.00  0.00     0.275 S 
HETATM   32  O1  UNL     1      32.404  -6.052  11.593  1.00  0.00    -0.199 OA
HETATM   33  O2  UNL     1      33.460  -7.332  13.415  1.00  0.00    -0.199 OA
BRANCH  31  34
HETATM   34  N8  UNL     1      33.923  -8.067  10.958  1.00  0.00    -0.323 N 
ATOM     35  H82 UNL     1      34.533  -7.974  10.145  1.00  0.00     0.169 HD
ATOM     36  H81 UNL     1      33.432  -8.931  11.187  1.00  0.00     0.169 HD
ENDBRANCH  31  34
ENDBRANCH   7  31
TORSDOF 9
ENDMDL
MODEL 4
REMARK VINA RESULT: -5.773760991      1.386      1.703
REMARK  9 active torsions:
REMARK  status: ('A' for Active; 'I' for Inactive)
REMARK    1  A    between atoms: C2_2  and  N1_3 
REMARK    2  A    between atoms: C2_2  and  N2_7 
REMARK    3  A    between atoms: C2_2  and  C3_11 
REMARK    4  A    between atoms: C3_11  and  C4_12 
REMARK    5  A    between atoms: C4_12  and  N3_13 
REMARK    6  A    between atoms: C5_14  and  N4_15 
REMARK    7  A    between atoms: N5_18  and  N6_19 
REMARK    8  A    between atoms: C7_25  and  S1_26 
REMARK    9  A    between atoms: S1_26  and  N8_27 
ROOT
HETATM    1  N3  UNL     1      38.634  -0.774  11.834  1.00  0.00    -0.163 N 
HETATM    2  C5  UNL     1      39.961  -0.617  11.564  1.00  0.00     0.702 A 
HETATM    3  N5  UNL     1      40.309   0.654  11.883  1.00  0.00    -0.072 N 
HETATM    4  C6  UNL     1      39.236   1.311  12.349  1.00  0.00     0.191 A 
HETATM    5  N7  UNL     1      38.963   2.550  12.807  1.00  0.00    -0.324 N 
ATOM      6  H7  UNL     1      39.715   3.238  12.842  1.00  0.00     0.168 HD
HETATM    7  C7  UNL     1      37.739   2.909  13.216  1.00  0.00     0.192 A 
HETATM    8  C8  UNL     1      36.725   1.989  13.167  1.00  0.00     0.158 A 
HETATM    9  N9  UNL     1      35.441   2.357  13.593  1.00  0.00    -0.079 NA
HETATM   10  N10 UNL     1      36.962   0.756  12.720  1.00  0.00    -0.325 N 
ATOM     11  H10 UNL     1      36.205   0.074  12.686  1.00  0.00     0.169 HD
HETATM   12  C9  UNL     1      38.203   0.404  12.310  1.00  0.00     0.172 A 
ENDROOT
BRANCH   1  13
HETATM   13  C4  UNL     1      37.882  -1.984  11.632  1.00  0.00     0.154 C 
BRANCH  13  14
HETATM   14  C3  UNL     1      38.083  -2.907  12.817  1.00  0.00     0.089 C 
BRANCH  14  15
HETATM   15  C2  UNL     1      36.820  -3.009  13.645  1.00  0.00     0.280 C 
HETATM   16  C1  UNL     1      35.603  -2.791  12.802  1.00  0.00     0.078 C 
BRANCH  15  17
HETATM   17  N1  UNL     1      36.764  -4.375  14.150  1.00  0.00    -0.045 N 
ATOM     18  H13 UNL     1      35.849  -4.810  14.021  1.00  0.00     0.277 HD
ATOM     19  H12 UNL     1      37.304  -5.030  13.585  1.00  0.00     0.277 HD
ATOM     20  H11 UNL     1      37.060  -4.353  15.126  1.00  0.00     0.277 HD
ENDBRANCH  15  17
BRANCH  15  21
HETATM   21  N2  UNL     1      36.822  -2.119  14.765  1.00  0.00    -0.045 N 
ATOM     22  H23 UNL     1      37.768  -1.856  15.038  1.00  0.00     0.277 HD
ATOM     23  H22 UNL     1      36.473  -1.193  14.514  1.00  0.00     0.277 HD
ATOM     24  H21 UNL     1      36.301  -2.522  15.544  1.00  0.00     0.277 HD
ENDBRANCH  15  21
ENDBRANCH  14  15
ENDBRANCH  13  14
ENDBRANCH   1  13
BRANCH   2  25
HETATM   25  N4  UNL     1      40.783  -1.492  11.089  1.00  0.00    -0.233 N 
ATOM     26  H42 UNL     1      40.525  -2.452  10.866  1.00  0.00     0.174 HD
ATOM     27  H41 UNL     1      41.772  -1.369  10.872  1.00  0.00     0.174 HD
ENDBRANCH   2  25
BRANCH   3  28
HETATM   28  N6  UNL     1      41.582   1.217  11.755  1.00  0.00    -0.322 N 
ATOM     29  H62 UNL     1      41.757   2.183  11.478  1.00  0.00     0.178 HD
ATOM     30  H61 UNL     1      42.469   0.743  11.918  1.00  0.00     0.178 HD
ENDBRANCH   3  28
BRANCH   7  31
HETATM   31  S1  UNL     1      37.436   4.503  13.793  1.00  0.00     0.275 S 
HETATM   32  O1  UNL     1      38.359   5.447  13.033  1.00  0.00    -0.199 OA
HETATM   33  O2  UNL     1      37.829   4.543  15.263  1.00  0.00    -0.199 OA
BRANCH  31  34
HETATM   34  N8  UNL     1      35.858   5.046  13.633  1.00  0.00    -0.323 N 
ATOM     35  H82 UNL     1      35.065   4.439  13.842  1.00  0.00     0.169 HD
ATOM     36  H81 UNL     1      35.752   6.010  13.320  1.00  0.00     0.169 HD
ENDBRANCH  31  34
ENDBRANCH   7  31
TORSDOF 9
ENDMDL
MODEL 5
REMARK VINA RESULT: -5.755665633      4.014      5.556
REMARK  9 active torsions:
REMARK  status: ('A' for Active; 'I' for Inactive)
REMARK    1  A    between atoms: C2_2  and  N1_3 
REMARK    2  A    between atoms: C2_2  and  N2_7 
REMARK    3  A    between atoms: C2_2  and  C3_11 
REMARK    4  A    between atoms: C3_11  and  C4_12 
REMARK    5  A    between atoms: C4_12  and  N3_13 
REMARK    6  A    between atoms: C5_14  and  N4_15 
REMARK    7  A    between atoms: N5_18  and  N6_19 
REMARK    8  A    between atoms: C7_25  and  S1_26 
REMARK    9  A    between atoms: S1_26  and  N8_27 
ROOT
HETATM    1  N3  UNL     1      36.095  -3.881  12.486  1.00  0.00    -0.163 N 
HETATM    2  C5  UNL     1      35.686  -2.696  11.952  1.00  0.00     0.702 A 
HETATM    3  N5  UNL     1      36.258  -1.692  12.662  1.00  0.00    -0.072 N 
HETATM    4  C6  UNL     1      37.022  -2.210  13.636  1.00  0.00     0.191 A 
HETATM    5  N7  UNL     1      37.808  -1.739  14.625  1.00  0.00    -0.324 N 
ATOM      6  H7  UNL     1      37.906  -0.730  14.738  1.00  0.00     0.168 HD
HETATM    7  C7  UNL     1      38.465  -2.549  15.467  1.00  0.00     0.192 A 
HETATM    8  C8  UNL     1      38.334  -3.905  15.320  1.00  0.00     0.158 A 
HETATM    9  N9  UNL     1      39.019  -4.760  16.197  1.00  0.00    -0.079 NA
HETATM   10  N10 UNL     1      37.565  -4.403  14.353  1.00  0.00    -0.325 N 
ATOM     11  H10 UNL     1      37.471  -5.413  14.248  1.00  0.00     0.169 HD
HETATM   12  C9  UNL     1      36.907  -3.574  13.509  1.00  0.00     0.172 A 
ENDROOT
BRANCH   1  13
HETATM   13  C4  UNL     1      35.707  -5.183  12.012  1.00  0.00     0.154 C 
BRANCH  13  14
HETATM   14  C3  UNL     1      34.454  -5.631  12.737  1.00  0.00     0.089 C 
BRANCH  14  15
HETATM   15  C2  UNL     1      33.765  -6.752  11.987  1.00  0.00     0.280 C 
HETATM   16  C1  UNL     1      34.644  -7.299  10.907  1.00  0.00     0.078 C 
BRANCH  15  17
HETATM   17  N1  UNL     1      33.541  -7.821  12.952  1.00  0.00    -0.045 N 
ATOM     18  H13 UNL     1      34.377  -8.379  13.130  1.00  0.00     0.277 HD
ATOM     19  H12 UNL     1      33.406  -7.476  13.903  1.00  0.00     0.277 HD
ATOM     20  H11 UNL     1      32.755  -8.377  12.616  1.00  0.00     0.277 HD
ENDBRANCH  15  17
BRANCH  15  21
HETATM   21  N2  UNL     1      32.497  -6.359  11.454  1.00  0.00    -0.045 N 
ATOM     22  H23 UNL     1      32.599  -5.818  10.595  1.00  0.00     0.277 HD
ATOM     23  H22 UNL     1      31.983  -7.154  11.073  1.00  0.00     0.277 HD
ATOM     24  H21 UNL     1      31.953  -5.857  12.155  1.00  0.00     0.277 HD
ENDBRANCH  15  21
ENDBRANCH  14  15
ENDBRANCH  13  14
ENDBRANCH   1  13
BRANCH   2  25
HETATM   25  N4  UNL     1      34.895  -2.507  10.949  1.00  0.00    -0.233 N 
ATOM     26  H42 UNL     1      34.100  -3.108  10.731  1.00  0.00     0.174 HD
ATOM     27  H41 UNL     1      34.934  -1.766  10.249  1.00  0.00     0.174 HD
ENDBRANCH   2  25
BRANCH   3  28
HETATM   28  N6  UNL     1      36.093  -0.323  12.436  1.00  0.00    -0.322 N 
ATOM     29  H62 UNL     1      36.846   0.363  12.495  1.00  0.00     0.178 HD
ATOM     30  H61 UNL     1      35.222   0.146  12.191  1.00  0.00     0.178 HD
ENDBRANCH   3  28
BRANCH   7  31
HETATM   31  S1  UNL     1      39.458  -1.903  16.715  1.00  0.00     0.275 S 
HETATM   32  O1  UNL     1      38.686  -2.027  18.023  1.00  0.00    -0.199 OA
HETATM   33  O2  UNL     1      39.659  -0.422  16.426  1.00  0.00    -0.199 OA
BRANCH  31  34
HETATM   34  N8  UNL     1      40.956  -2.632  16.903  1.00  0.00    -0.323 N 
ATOM     35  H82 UNL     1      41.762  -2.105  17.240  1.00  0.00     0.169 HD
ATOM     36  H81 UNL     1      41.000  -3.621  16.660  1.00  0.00     0.169 HD
ENDBRANCH  31  34
ENDBRANCH   7  31
TORSDOF 9
ENDMDL
