MODEL 1
REMARK VINA RESULT: -8.000453385      0.000      0.000
REMARK  5 active torsions:
REMARK  status: ('A' for Active; 'I' for Inactive)
REMARK    1  A    between atoms: N1_1  and  N2_4 
REMARK       I    between atoms: N2_4  and  C1_5 
REMARK       I    between atoms: C1_5  and  N3_7 
REMARK    2  A    between atoms: N7_17  and  C5_19 
REMARK    3  A    between atoms: C5_19  and  C6_20 
REMARK    4  A    between atoms: N8_21  and  N9_23 
REMARK    5  A    between atoms: N9_23  and  C7_25 
ROOT
HETATM    1  N2  UNL     1      34.021  -9.624  15.714  1.00  0.00    -0.271 NA
HETATM    2  C1  UNL     1      34.374  -8.616  14.928  1.00  0.00     0.439 C 
HETATM    3  O1  UNL     1      35.041  -7.591  15.287  1.00  0.00    -0.226 OA
HETATM    4  N3  UNL     1      33.997  -8.622  13.515  1.00  0.00    -0.170 N 
HETATM    5  N4  UNL     1      33.481  -9.817  12.952  1.00  0.00    -0.283 N 
ATOM      6  H4  UNL     1      33.328 -10.649  13.521  1.00  0.00     0.188 HD
HETATM    7  C2  UNL     1      33.186  -9.806  11.568  1.00  0.00     0.199 A 
HETATM    8  N5  UNL     1      33.378  -8.753  10.841  1.00  0.00    -0.334 N 
ATOM      9  H5  UNL     1      33.150  -8.800   9.848  1.00  0.00     0.168 HD
HETATM   10  C3  UNL     1      33.889  -7.539  11.358  1.00  0.00     0.169 A 
HETATM   11  N6  UNL     1      34.163  -6.353  10.836  1.00  0.00    -0.173 N 
ATOM     12  H6  UNL     1      34.039  -6.095   9.856  1.00  0.00     0.186 HD
HETATM   13  C4  UNL     1      34.637  -5.533  11.820  1.00  0.00     0.681 A 
HETATM   14  N7  UNL     1      35.043  -4.333  11.671  1.00  0.00    -0.221 N 
ATOM     15  H7  UNL     1      35.012  -3.958  10.723  1.00  0.00     0.178 HD
HETATM   16  N13 UNL     1      34.646  -6.248  12.957  1.00  0.00    -0.171 N 
ATOM     17  H13 UNL     1      34.948  -5.899  13.867  1.00  0.00     0.186 HD
HETATM   18  C9  UNL     1      34.200  -7.483  12.719  1.00  0.00     0.193 A 
ENDROOT
BRANCH  14  19
HETATM   19  C5  UNL     1      35.533  -3.463  12.678  1.00  0.00     0.184 C 
BRANCH  19  20
HETATM   20  C6  UNL     1      37.012  -3.349  12.481  1.00  0.00     0.100 C 
HETATM   21  N8  UNL     1      37.534  -2.430  11.799  1.00  0.00    -0.300 N 
ATOM     22  H8  UNL     1      38.551  -2.436  11.722  1.00  0.00     0.186 HD
BRANCH  21  23
HETATM   23  N9  UNL     1      36.874  -1.420  11.149  1.00  0.00    -0.131 N 
ATOM     24  H9  UNL     1      36.357  -1.573  10.283  1.00  0.00     0.205 HD
BRANCH  23  25
HETATM   25  C7  UNL     1      36.957  -0.238  11.723  1.00  0.00     0.719 A 
HETATM   26  N10 UNL     1      35.966   0.414  12.402  1.00  0.00    -0.153 N 
HETATM   27  C8  UNL     1      36.431   1.577  12.826  1.00  0.00     0.271 A 
ATOM     28  H10 UNL     1      35.022   0.060  12.556  1.00  0.00     0.187 HD
HETATM   29  N11 UNL     1      35.623   2.500  13.572  1.00  0.00    -0.054 NA
HETATM   30  O2  UNL     1      37.664   1.668  12.438  1.00  0.00    -0.189 OA
HETATM   31  N12 UNL     1      38.005   0.593  11.774  1.00  0.00    -0.087 N 
ATOM     32  H12 UNL     1      38.921   0.417  11.361  1.00  0.00     0.214 HD
ENDBRANCH  23  25
ENDBRANCH  21  23
ENDBRANCH  19  20
ENDBRANCH  14  19
BRANCH   1  33
HETATM   33  N1  UNL     1      33.663 -10.648  16.514  1.00  0.00    -0.275 N 
ATOM     34  H12 UNL     1      33.890  -9.850  15.920  1.00  0.00     0.191 HD
ATOM     35  H11 UNL     1      33.392 -11.423  17.120  1.00  0.00     0.191 HD
ENDBRANCH   1  33
TORSDOF 5
ENDMDL
MODEL 2
REMARK VINA RESULT: -7.813198613      1.963      9.808
REMARK  5 active torsions:
REMARK  status: ('A' for Active; 'I' for Inactive)
REMARK    1  A    between atoms: N1_1  and  N2_4 
REMARK       I    between atoms: N2_4  and  C1_5 
REMARK       I    between atoms: C1_5  and  N3_7 
REMARK    2  A    between atoms: N7_17  and  C5_19 
REMARK    3  A    between atoms: C5_19  and  C6_20 
REMARK    4  A    between atoms: N8_21  and  N9_23 
REMARK    5  A    between atoms: N9_23  and  C7_25 
ROOT
HETATM    1  N2  UNL     1      36.321   4.216  14.019  1.00  0.00    -0.271 NA
HETATM    2  C1  UNL     1      36.420   3.048  13.398  1.00  0.00     0.439 C 
HETATM    3  O1  UNL     1      35.451   2.268  13.122  1.00  0.00    -0.226 OA
HETATM    4  N3  UNL     1      37.727   2.557  12.965  1.00  0.00    -0.170 N 
HETATM    5  N4  UNL     1      38.833   3.445  12.991  1.00  0.00    -0.283 N 
ATOM      6  H4  UNL     1      38.740   4.398  13.345  1.00  0.00     0.188 HD
HETATM    7  C2  UNL     1      40.069   2.956  12.506  1.00  0.00     0.199 A 
HETATM    8  N5  UNL     1      40.191   1.748  12.056  1.00  0.00    -0.334 N 
ATOM      9  H5  UNL     1      41.105   1.447  11.716  1.00  0.00     0.168 HD
HETATM   10  C3  UNL     1      39.119   0.827  12.012  1.00  0.00     0.169 A 
HETATM   11  N6  UNL     1      38.995  -0.430  11.614  1.00  0.00    -0.173 N 
ATOM     12  H6  UNL     1      39.742  -1.004  11.223  1.00  0.00     0.186 HD
HETATM   13  C4  UNL     1      37.704  -0.834  11.813  1.00  0.00     0.681 A 
HETATM   14  N7  UNL     1      37.214  -1.969  11.503  1.00  0.00    -0.221 N 
ATOM     15  H7  UNL     1      37.849  -2.633  11.061  1.00  0.00     0.178 HD
HETATM   16  N13 UNL     1      37.044   0.208  12.343  1.00  0.00    -0.171 N 
ATOM     17  H13 UNL     1      36.058   0.207  12.603  1.00  0.00     0.186 HD
HETATM   18  C9  UNL     1      37.871   1.248  12.477  1.00  0.00     0.193 A 
ENDROOT
BRANCH  14  19
HETATM   19  C5  UNL     1      35.881  -2.411  11.706  1.00  0.00     0.184 C 
BRANCH  19  20
HETATM   20  C6  UNL     1      35.794  -2.921  13.111  1.00  0.00     0.100 C 
HETATM   21  N8  UNL     1      35.243  -4.014  13.399  1.00  0.00    -0.300 N 
ATOM     22  H8  UNL     1      35.233  -4.276  14.385  1.00  0.00     0.186 HD
BRANCH  21  23
HETATM   23  N9  UNL     1      34.654  -4.888  12.524  1.00  0.00    -0.131 N 
ATOM     24  H9  UNL     1      34.451  -4.640  11.556  1.00  0.00     0.205 HD
BRANCH  23  25
HETATM   25  C7  UNL     1      34.369  -6.072  13.025  1.00  0.00     0.719 A 
HETATM   26  N10 UNL     1      35.061  -6.738  13.998  1.00  0.00    -0.153 N 
HETATM   27  C8  UNL     1      34.469  -7.898  14.226  1.00  0.00     0.271 A 
ATOM     28  H10 UNL     1      35.897  -6.395  14.471  1.00  0.00     0.187 HD
HETATM   29  N11 UNL     1      34.963  -8.834  15.196  1.00  0.00    -0.054 NA
HETATM   30  O2  UNL     1      33.444  -7.975  13.436  1.00  0.00    -0.189 OA
HETATM   31  N12 UNL     1      33.361  -6.893  12.704  1.00  0.00    -0.087 N 
ATOM     32  H12 UNL     1      32.645  -6.705  12.003  1.00  0.00     0.214 HD
ENDBRANCH  23  25
ENDBRANCH  21  23
ENDBRANCH  19  20
ENDBRANCH  14  19
BRANCH   1  33
HETATM   33  N1  UNL     1      36.220   5.402  14.651  1.00  0.00    -0.275 N 
ATOM     34  H12 UNL     1      36.246   4.502  14.172  1.00  0.00     0.191 HD
ATOM     35  H11 UNL     1      36.144   6.300  15.129  1.00  0.00     0.191 HD
ENDBRANCH   1  33
TORSDOF 5
ENDMDL
MODEL 3
REMARK VINA RESULT: -7.781713218      2.724     10.290
REMARK  5 active torsions:
REMARK  status: ('A' for Active; 'I' for Inactive)
REMARK    1  A    between atoms: N1_1  and  N2_4 
REMARK       I    between atoms: N2_4  and  C1_5 
REMARK       I    between atoms: C1_5  and  N3_7 
REMARK    2  A    between atoms: N7_17  and  C5_19 
REMARK    3  A    between atoms: C5_19  and  C6_20 
REMARK    4  A    between atoms: N8_21  and  N9_23 
REMARK    5  A    between atoms: N9_23  and  C7_25 
ROOT
HETATM    1  N2  UNL     1      35.542   5.287  13.434  1.00  0.00    -0.271 NA
HETATM    2  C1  UNL     1      36.071   4.070  13.417  1.00  0.00     0.439 C 
HETATM    3  O1  UNL     1      35.461   2.990  13.712  1.00  0.00    -0.226 OA
HETATM    4  N3  UNL     1      37.469   3.883  13.034  1.00  0.00    -0.170 N 
HETATM    5  N4  UNL     1      38.167   4.970  12.448  1.00  0.00    -0.283 N 
ATOM      6  H4  UNL     1      37.726   5.883  12.331  1.00  0.00     0.188 HD
HETATM    7  C2  UNL     1      39.499   4.736  12.032  1.00  0.00     0.199 A 
HETATM    8  N5  UNL     1      40.063   3.580  12.178  1.00  0.00    -0.334 N 
ATOM      9  H5  UNL     1      41.025   3.465  11.859  1.00  0.00     0.168 HD
HETATM   10  C3  UNL     1      39.408   2.469  12.758  1.00  0.00     0.169 A 
HETATM   11  N6  UNL     1      39.761   1.219  13.017  1.00  0.00    -0.173 N 
ATOM     12  H6  UNL     1      40.670   0.805  12.809  1.00  0.00     0.186 HD
HETATM   13  C4  UNL     1      38.711   0.573  13.608  1.00  0.00     0.681 A 
HETATM   14  N7  UNL     1      38.678  -0.654  13.951  1.00  0.00    -0.221 N 
ATOM     15  H7  UNL     1      39.516  -1.201  13.761  1.00  0.00     0.178 HD
HETATM   16  N13 UNL     1      37.708   1.461  13.703  1.00  0.00    -0.171 N 
ATOM     17  H13 UNL     1      36.791   1.269  14.107  1.00  0.00     0.186 HD
HETATM   18  C9  UNL     1      38.090   2.633  13.191  1.00  0.00     0.193 A 
ENDROOT
BRANCH  14  19
HETATM   19  C5  UNL     1      37.603  -1.342  14.570  1.00  0.00     0.184 C 
BRANCH  19  20
HETATM   20  C6  UNL     1      37.861  -2.807  14.400  1.00  0.00     0.100 C 
HETATM   21  N8  UNL     1      37.007  -3.590  13.911  1.00  0.00    -0.300 N 
ATOM     22  H8  UNL     1      37.275  -4.571  13.835  1.00  0.00     0.186 HD
BRANCH  21  23
HETATM   23  N9  UNL     1      35.753  -3.259  13.469  1.00  0.00    -0.131 N 
ATOM     24  H9  UNL     1      35.384  -2.310  13.531  1.00  0.00     0.205 HD
BRANCH  23  25
HETATM   25  C7  UNL     1      35.060  -4.255  12.958  1.00  0.00     0.719 A 
HETATM   26  N10 UNL     1      34.627  -5.373  13.615  1.00  0.00    -0.153 N 
HETATM   27  C8  UNL     1      33.971  -6.143  12.763  1.00  0.00     0.271 A 
ATOM     28  H10 UNL     1      34.784  -5.579  14.601  1.00  0.00     0.187 HD
HETATM   29  N11 UNL     1      33.395  -7.399  13.152  1.00  0.00    -0.054 NA
HETATM   30  O2  UNL     1      33.982  -5.548  11.612  1.00  0.00    -0.189 OA
HETATM   31  N12 UNL     1      34.629  -4.413  11.701  1.00  0.00    -0.087 N 
ATOM     32  H12 UNL     1      34.780  -3.756  10.936  1.00  0.00     0.214 HD
ENDBRANCH  23  25
ENDBRANCH  21  23
ENDBRANCH  19  20
ENDBRANCH  14  19
BRANCH   1  33
HETATM   33  N1  UNL     1      35.005   6.522  13.451  1.00  0.00    -0.275 N 
ATOM     34  H12 UNL     1      35.367   5.569  13.422  1.00  0.00     0.191 HD
ATOM     35  H11 UNL     1      34.599   7.458  13.465  1.00  0.00     0.191 HD
ENDBRANCH   1  33
TORSDOF 5
ENDMDL
MODEL 4
REMARK VINA RESULT: -7.762890374      2.213     10.046
REMARK  5 active torsions:
REMARK  status: ('A' for Active; 'I' for Inactive)
REMARK    1  A    between atoms: N1_1  and  N2_4 
REMARK       I    between atoms: N2_4  and  C1_5 
REMARK       I    between atoms: C1_5  and  N3_7 
REMARK    2  A    between atoms: N7_17  and  C5_19 
REMARK    3  A    between atoms: C5_19  and  C6_20 
REMARK    4  A    between atoms: N8_21  and  N9_23 
REMARK    5  A    between atoms: N9_23  and  C7_25 
ROOT
HETATM    1  N2  UNL     1      36.256   5.059  14.192  1.00  0.00    -0.271 NA
HETATM    2  C1  UNL     1      36.328   3.838  13.677  1.00  0.00     0.439 C 
HETATM    3  O1  UNL     1      35.345   3.045  13.502  1.00  0.00    -0.226 OA
HETATM    4  N3  UNL     1      37.618   3.297  13.252  1.00  0.00    -0.170 N 
HETATM    5  N4  UNL     1      38.730   4.173  13.163  1.00  0.00    -0.283 N 
ATOM      6  H4  UNL     1      38.655   5.155  13.432  1.00  0.00     0.188 HD
HETATM    7  C2  UNL     1      39.947   3.630  12.688  1.00  0.00     0.199 A 
HETATM    8  N5  UNL     1      40.047   2.386  12.346  1.00  0.00    -0.334 N 
ATOM      9  H5  UNL     1      40.948   2.046  12.009  1.00  0.00     0.168 HD
HETATM   10  C3  UNL     1      38.968   1.474  12.419  1.00  0.00     0.169 A 
HETATM   11  N6  UNL     1      38.823   0.188  12.141  1.00  0.00    -0.173 N 
ATOM     12  H6  UNL     1      39.554  -0.427  11.781  1.00  0.00     0.186 HD
HETATM   13  C4  UNL     1      37.537  -0.184  12.415  1.00  0.00     0.681 A 
HETATM   14  N7  UNL     1      37.029  -1.338  12.224  1.00  0.00    -0.221 N 
ATOM     15  H7  UNL     1      37.646  -2.045  11.825  1.00  0.00     0.178 HD
HETATM   16  N13 UNL     1      36.900   0.908  12.866  1.00  0.00    -0.171 N 
ATOM     17  H13 UNL     1      35.922   0.940  13.155  1.00  0.00     0.186 HD
HETATM   18  C9  UNL     1      37.737   1.948  12.881  1.00  0.00     0.193 A 
ENDROOT
BRANCH  14  19
HETATM   19  C5  UNL     1      35.700  -1.747  12.505  1.00  0.00     0.184 C 
BRANCH  19  20
HETATM   20  C6  UNL     1      35.122  -2.276  11.229  1.00  0.00     0.100 C 
HETATM   21  N8  UNL     1      35.130  -3.500  10.941  1.00  0.00    -0.300 N 
ATOM     22  H8  UNL     1      34.712  -3.763  10.049  1.00  0.00     0.186 HD
BRANCH  21  23
HETATM   23  N9  UNL     1      35.643  -4.516  11.704  1.00  0.00    -0.131 N 
ATOM     24  H9  UNL     1      36.600  -4.506  12.057  1.00  0.00     0.205 HD
BRANCH  23  25
HETATM   25  C7  UNL     1      34.810  -5.506  11.948  1.00  0.00     0.719 A 
HETATM   26  N10 UNL     1      34.809  -6.324  13.043  1.00  0.00    -0.153 N 
HETATM   27  C8  UNL     1      33.824  -7.199  12.922  1.00  0.00     0.271 A 
ATOM     28  H10 UNL     1      35.461  -6.268  13.825  1.00  0.00     0.187 HD
HETATM   29  N11 UNL     1      33.564  -8.203  13.916  1.00  0.00    -0.054 NA
HETATM   30  O2  UNL     1      33.221  -6.954  11.802  1.00  0.00    -0.189 OA
HETATM   31  N12 UNL     1      33.792  -5.943  11.197  1.00  0.00    -0.087 N 
ATOM     32  H12 UNL     1      33.508  -5.553  10.299  1.00  0.00     0.214 HD
ENDBRANCH  23  25
ENDBRANCH  21  23
ENDBRANCH  19  20
ENDBRANCH  14  19
BRANCH   1  33
HETATM   33  N1  UNL     1      36.182   6.298  14.716  1.00  0.00    -0.275 N 
ATOM     34  H12 UNL     1      36.226   5.341  14.365  1.00  0.00     0.191 HD
ATOM     35  H11 UNL     1      36.126   7.236  15.111  1.00  0.00     0.191 HD
ENDBRANCH   1  33
TORSDOF 5
ENDMDL
MODEL 5
REMARK VINA RESULT: -7.720272662      2.524     10.036
REMARK  5 active torsions:
REMARK  status: ('A' for Active; 'I' for Inactive)
REMARK    1  A    between atoms: N1_1  and  N2_4 
REMARK       I    between atoms: N2_4  and  C1_5 
REMARK       I    between atoms: C1_5  and  N3_7 
REMARK    2  A    between atoms: N7_17  and  C5_19 
REMARK    3  A    between atoms: C5_19  and  C6_20 
REMARK    4  A    between atoms: N8_21  and  N9_23 
REMARK    5  A    between atoms: N9_23  and  C7_25 
ROOT
HETATM    1  N2  UNL     1      36.250   4.619  14.128  1.00  0.00    -0.271 NA
HETATM    2  C1  UNL     1      36.386   3.393  13.639  1.00  0.00     0.439 C 
HETATM    3  O1  UNL     1      35.444   2.550  13.471  1.00  0.00    -0.226 OA
HETATM    4  N3  UNL     1      37.705   2.907  13.236  1.00  0.00    -0.170 N 
HETATM    5  N4  UNL     1      38.773   3.834  13.141  1.00  0.00    -0.283 N 
ATOM      6  H4  UNL     1      38.648   4.816  13.388  1.00  0.00     0.188 HD
HETATM    7  C2  UNL     1      40.020   3.342  12.688  1.00  0.00     0.199 A 
HETATM    8  N5  UNL     1      40.184   2.097  12.372  1.00  0.00    -0.334 N 
ATOM      9  H5  UNL     1      41.104   1.795  12.049  1.00  0.00     0.168 HD
HETATM   10  C3  UNL     1      39.150   1.136  12.453  1.00  0.00     0.169 A 
HETATM   11  N6  UNL     1      39.070  -0.161  12.200  1.00  0.00    -0.173 N 
ATOM     12  H6  UNL     1      39.834  -0.746  11.859  1.00  0.00     0.186 HD
HETATM   13  C4  UNL     1      37.801  -0.590  12.469  1.00  0.00     0.681 A 
HETATM   14  N7  UNL     1      37.352  -1.771  12.297  1.00  0.00    -0.221 N 
ATOM     15  H7  UNL     1      38.006  -2.454  11.918  1.00  0.00     0.178 HD
HETATM   16  N13 UNL     1      37.107   0.479  12.893  1.00  0.00    -0.171 N 
ATOM     17  H13 UNL     1      36.126   0.469  13.172  1.00  0.00     0.186 HD
HETATM   18  C9  UNL     1      37.893   1.558  12.894  1.00  0.00     0.193 A 
ENDROOT
BRANCH  14  19
HETATM   19  C5  UNL     1      36.042  -2.238  12.574  1.00  0.00     0.184 C 
BRANCH  19  20
HETATM   20  C6  UNL     1      35.475  -2.751  11.287  1.00  0.00     0.100 C 
HETATM   21  N8  UNL     1      34.857  -3.843  11.209  1.00  0.00    -0.300 N 
ATOM     22  H8  UNL     1      34.507  -4.108  10.288  1.00  0.00     0.186 HD
BRANCH  21  23
HETATM   23  N9  UNL     1      34.605  -4.714  12.236  1.00  0.00    -0.131 N 
ATOM     24  H9  UNL     1      34.722  -4.454  13.216  1.00  0.00     0.205 HD
BRANCH  23  25
HETATM   25  C7  UNL     1      34.200  -5.911  11.867  1.00  0.00     0.719 A 
HETATM   26  N10 UNL     1      34.983  -6.941  11.425  1.00  0.00    -0.153 N 
HETATM   27  C8  UNL     1      34.210  -7.977  11.144  1.00  0.00     0.271 A 
ATOM     28  H10 UNL     1      35.998  -6.914  11.329  1.00  0.00     0.187 HD
HETATM   29  N11 UNL     1      34.739  -9.217  10.650  1.00  0.00    -0.054 NA
HETATM   30  O2  UNL     1      32.987  -7.629  11.394  1.00  0.00    -0.189 OA
HETATM   31  N12 UNL     1      32.952  -6.394  11.828  1.00  0.00    -0.087 N 
ATOM     32  H12 UNL     1      32.111  -5.883  12.094  1.00  0.00     0.214 HD
ENDBRANCH  23  25
ENDBRANCH  21  23
ENDBRANCH  19  20
ENDBRANCH  14  19
BRANCH   1  33
HETATM   33  N1  UNL     1      36.110   5.863  14.626  1.00  0.00    -0.275 N 
ATOM     34  H12 UNL     1      36.235   4.941  14.207  1.00  0.00     0.191 HD
ATOM     35  H11 UNL     1      36.005   6.804  15.004  1.00  0.00     0.191 HD
ENDBRANCH   1  33
TORSDOF 5
ENDMDL
