MODEL 1
REMARK VINA RESULT: -7.213010495      0.000      0.000
REMARK  5 active torsions:
REMARK  status: ('A' for Active; 'I' for Inactive)
REMARK    1  A    between atoms: C2_2  and  N1_4 
REMARK    2  A    between atoms: C2_2  and  C4_8 
REMARK       I    between atoms: C4_8  and  N2_10 
REMARK    3  A    between atoms: N2_10  and  S1_12 
REMARK    4  A    between atoms: S1_12  and  C5_15 
REMARK    5  A    between atoms: N5_21  and  N6_22 
REMARK       I    between atoms: N6_22  and  C7_24 
REMARK       I    between atoms: C7_24  and  N8_28 
ROOT
HETATM    1  N6  UNL     1      38.141  -1.391  11.964  1.00  0.00    -0.122 N 
ATOM      2  H6  UNL     1      37.794  -1.552  11.018  1.00  0.00     0.206 HD
HETATM    3  C7  UNL     1      39.234  -0.524  12.183  1.00  0.00     0.700 C 
HETATM    4  N7  UNL     1      40.433  -0.741  11.771  1.00  0.00    -0.233 N 
ATOM      5  H71 UNL     1      41.222  -0.115  11.929  1.00  0.00     0.174 HD
ATOM      6  H72 UNL     1      40.591  -1.605  11.251  1.00  0.00     0.174 HD
HETATM    7  N8  UNL     1      39.013   0.688  12.914  1.00  0.00    -0.125 N 
ATOM      8  H8  UNL     1      39.673   0.949  13.645  1.00  0.00     0.197 HD
HETATM    9  C8  UNL     1      37.923   1.526  12.659  1.00  0.00     0.196 C 
HETATM   10  N9  UNL     1      37.014   2.221  12.468  1.00  0.00    -0.171 NA
ENDROOT
BRANCH   1  11
HETATM   11  N5  UNL     1      37.543  -2.024  13.047  1.00  0.00    -0.207 N 
HETATM   12  C5  UNL     1      36.415  -2.769  12.972  1.00  0.00     0.261 A 
HETATM   13  N3  UNL     1      36.183  -3.191  14.230  1.00  0.00    -0.272 N 
HETATM   14  N4  UNL     1      37.122  -2.729  15.038  1.00  0.00    -0.292 N 
ATOM     15  H3  UNL     1      35.400  -3.779  14.516  1.00  0.00     0.189 HD
HETATM   16  C6  UNL     1      37.982  -2.002  14.342  1.00  0.00     0.226 A 
ATOM     17  H4  UNL     1      37.175  -2.905  16.042  1.00  0.00     0.187 HD
BRANCH  12  18
HETATM   18  S1  UNL     1      35.439  -3.129  11.562  1.00  0.00     0.300 S 
HETATM   19  O2  UNL     1      34.629  -1.951  11.109  1.00  0.00    -0.197 OA
HETATM   20  O3  UNL     1      36.337  -3.482  10.382  1.00  0.00    -0.197 OA
BRANCH  18  21
HETATM   21  N2  UNL     1      34.469  -4.517  11.868  1.00  0.00    -0.246 N 
HETATM   22  C4  UNL     1      35.065  -5.795  11.881  1.00  0.00     0.266 C 
HETATM   23  O1  UNL     1      36.302  -5.970  11.674  1.00  0.00    -0.270 OA
ATOM     24  H2  UNL     1      33.468  -4.416  12.038  1.00  0.00     0.182 HD
BRANCH  22  25
HETATM   25  C2  UNL     1      34.250  -6.995  12.141  1.00  0.00     0.197 C 
HETATM   26  C1  UNL     1      34.328  -7.410  13.612  1.00  0.00     0.056 C 
HETATM   27  C3  UNL     1      34.798  -8.140  11.322  1.00  0.00     0.056 C 
BRANCH  25  28
HETATM   28  N1  UNL     1      32.881  -6.715  11.830  1.00  0.00    -0.062 N 
ATOM     29  H13 UNL     1      32.325  -6.499  12.658  1.00  0.00     0.275 HD
ATOM     30  H12 UNL     1      32.760  -5.824  11.349  1.00  0.00     0.275 HD
ATOM     31  H11 UNL     1      32.509  -7.503  11.300  1.00  0.00     0.275 HD
ENDBRANCH  25  28
ENDBRANCH  22  25
ENDBRANCH  18  21
ENDBRANCH  12  18
ENDBRANCH   1  11
TORSDOF 5
ENDMDL
MODEL 2
REMARK VINA RESULT: -7.076250567      3.047      7.516
REMARK  5 active torsions:
REMARK  status: ('A' for Active; 'I' for Inactive)
REMARK    1  A    between atoms: C2_2  and  N1_4 
REMARK    2  A    between atoms: C2_2  and  C4_8 
REMARK       I    between atoms: C4_8  and  N2_10 
REMARK    3  A    between atoms: N2_10  and  S1_12 
REMARK    4  A    between atoms: S1_12  and  C5_15 
REMARK    5  A    between atoms: N5_21  and  N6_22 
REMARK       I    between atoms: N6_22  and  C7_24 
REMARK       I    between atoms: C7_24  and  N8_28 
ROOT
HETATM    1  N6  UNL     1      36.358  -8.621   9.972  1.00  0.00    -0.122 N 
ATOM      2  H6  UNL     1      36.972  -8.632  10.787  1.00  0.00     0.206 HD
HETATM    3  C7  UNL     1      35.887  -9.832   9.419  1.00  0.00     0.700 C 
HETATM    4  N7  UNL     1      36.633 -10.717   8.856  1.00  0.00    -0.233 N 
ATOM      5  H71 UNL     1      36.293 -11.591   8.457  1.00  0.00     0.174 HD
ATOM      6  H72 UNL     1      37.632 -10.515   8.813  1.00  0.00     0.174 HD
HETATM    7  N8  UNL     1      34.484 -10.114   9.479  1.00  0.00    -0.125 N 
ATOM      8  H8  UNL     1      34.017 -10.467   8.644  1.00  0.00     0.197 HD
HETATM    9  C8  UNL     1      33.732  -9.923  10.642  1.00  0.00     0.196 C 
HETATM   10  N9  UNL     1      33.095  -9.753  11.597  1.00  0.00    -0.171 NA
ENDROOT
BRANCH   1  11
HETATM   11  N5  UNL     1      35.980  -7.414   9.396  1.00  0.00    -0.207 N 
HETATM   12  C5  UNL     1      35.399  -6.392  10.069  1.00  0.00     0.261 A 
HETATM   13  N3  UNL     1      35.198  -5.429   9.150  1.00  0.00    -0.272 N 
HETATM   14  N4  UNL     1      35.633  -5.838   7.970  1.00  0.00    -0.292 N 
ATOM     15  H3  UNL     1      34.774  -4.520   9.336  1.00  0.00     0.189 HD
HETATM   16  C6  UNL     1      36.124  -7.062   8.082  1.00  0.00     0.226 A 
ATOM     17  H4  UNL     1      35.597  -5.294   7.107  1.00  0.00     0.187 HD
BRANCH  12  18
HETATM   18  S1  UNL     1      34.984  -6.305  11.769  1.00  0.00     0.300 S 
HETATM   19  O2  UNL     1      33.508  -6.165  11.993  1.00  0.00    -0.197 OA
HETATM   20  O3  UNL     1      35.380  -7.599  12.471  1.00  0.00    -0.197 OA
BRANCH  18  21
HETATM   21  N2  UNL     1      35.887  -5.048  12.522  1.00  0.00    -0.246 N 
HETATM   22  C4  UNL     1      35.659  -3.707  12.151  1.00  0.00     0.266 C 
HETATM   23  O1  UNL     1      34.805  -3.381  11.274  1.00  0.00    -0.270 OA
ATOM     24  H2  UNL     1      36.583  -5.272  13.233  1.00  0.00     0.182 HD
BRANCH  22  25
HETATM   25  C2  UNL     1      36.422  -2.617  12.785  1.00  0.00     0.197 C 
HETATM   26  C1  UNL     1      35.929  -1.247  12.315  1.00  0.00     0.056 C 
HETATM   27  C3  UNL     1      37.871  -2.739  12.375  1.00  0.00     0.056 C 
BRANCH  25  28
HETATM   28  N1  UNL     1      36.255  -2.686  14.205  1.00  0.00    -0.062 N 
ATOM     29  H13 UNL     1      35.922  -1.810  14.606  1.00  0.00     0.275 HD
ATOM     30  H12 UNL     1      35.466  -3.271  14.481  1.00  0.00     0.275 HD
ATOM     31  H11 UNL     1      37.137  -2.996  14.613  1.00  0.00     0.275 HD
ENDBRANCH  25  28
ENDBRANCH  22  25
ENDBRANCH  18  21
ENDBRANCH  12  18
ENDBRANCH   1  11
TORSDOF 5
ENDMDL
MODEL 3
REMARK VINA RESULT: -7.008120840      1.190      1.580
REMARK  5 active torsions:
REMARK  status: ('A' for Active; 'I' for Inactive)
REMARK    1  A    between atoms: C2_2  and  N1_4 
REMARK    2  A    between atoms: C2_2  and  C4_8 
REMARK       I    between atoms: C4_8  and  N2_10 
REMARK    3  A    between atoms: N2_10  and  S1_12 
REMARK    4  A    between atoms: S1_12  and  C5_15 
REMARK    5  A    between atoms: N5_21  and  N6_22 
REMARK       I    between atoms: N6_22  and  C7_24 
REMARK       I    between atoms: C7_24  and  N8_28 
ROOT
HETATM    1  N6  UNL     1      36.790  -0.963  12.974  1.00  0.00    -0.122 N 
ATOM      2  H6  UNL     1      36.243  -0.223  13.415  1.00  0.00     0.206 HD
HETATM    3  C7  UNL     1      37.440  -0.729  11.743  1.00  0.00     0.700 C 
HETATM    4  N7  UNL     1      36.837  -0.500  10.630  1.00  0.00    -0.233 N 
ATOM      5  H71 UNL     1      37.307  -0.331   9.741  1.00  0.00     0.174 HD
ATOM      6  H72 UNL     1      35.817  -0.491  10.653  1.00  0.00     0.174 HD
HETATM    7  N8  UNL     1      38.873  -0.743  11.710  1.00  0.00    -0.125 N 
ATOM      8  H8  UNL     1      39.343  -1.251  10.961  1.00  0.00     0.197 HD
HETATM    9  C8  UNL     1      39.649  -0.084  12.667  1.00  0.00     0.196 C 
HETATM   10  N9  UNL     1      40.304   0.446  13.466  1.00  0.00    -0.171 NA
ENDROOT
BRANCH   1  11
HETATM   11  N5  UNL     1      36.901  -2.209  13.580  1.00  0.00    -0.207 N 
HETATM   12  C5  UNL     1      36.342  -3.345  13.103  1.00  0.00     0.261 A 
HETATM   13  N3  UNL     1      36.688  -4.308  13.979  1.00  0.00    -0.272 N 
HETATM   14  N4  UNL     1      37.424  -3.788  14.947  1.00  0.00    -0.292 N 
ATOM     15  H3  UNL     1      36.423  -5.290  13.907  1.00  0.00     0.189 HD
HETATM   16  C6  UNL     1      37.578  -2.491  14.735  1.00  0.00     0.226 A 
ATOM     17  H4  UNL     1      37.813  -4.307  15.735  1.00  0.00     0.187 HD
BRANCH  12  18
HETATM   18  S1  UNL     1      35.370  -3.559  11.660  1.00  0.00     0.300 S 
HETATM   19  O2  UNL     1      34.506  -2.369  11.369  1.00  0.00    -0.197 OA
HETATM   20  O3  UNL     1      36.273  -3.713  10.441  1.00  0.00    -0.197 OA
BRANCH  18  21
HETATM   21  N2  UNL     1      34.465  -5.017  11.782  1.00  0.00    -0.246 N 
HETATM   22  C4  UNL     1      35.130  -6.259  11.727  1.00  0.00     0.266 C 
HETATM   23  O1  UNL     1      36.386  -6.350  11.588  1.00  0.00    -0.270 OA
ATOM     24  H2  UNL     1      33.451  -4.983  11.895  1.00  0.00     0.182 HD
BRANCH  22  25
HETATM   25  C2  UNL     1      34.371  -7.518  11.830  1.00  0.00     0.197 C 
HETATM   26  C1  UNL     1      34.611  -8.202  13.178  1.00  0.00     0.056 C 
HETATM   27  C3  UNL     1      34.852  -8.463  10.755  1.00  0.00     0.056 C 
BRANCH  25  28
HETATM   28  N1  UNL     1      32.972  -7.238  11.717  1.00  0.00    -0.062 N 
ATOM     29  H13 UNL     1      32.745  -6.694  10.884  1.00  0.00     0.275 HD
ATOM     30  H12 UNL     1      32.421  -8.066  11.494  1.00  0.00     0.275 HD
ATOM     31  H11 UNL     1      32.669  -6.784  12.579  1.00  0.00     0.275 HD
ENDBRANCH  25  28
ENDBRANCH  22  25
ENDBRANCH  18  21
ENDBRANCH  12  18
ENDBRANCH   1  11
TORSDOF 5
ENDMDL
MODEL 4
REMARK VINA RESULT: -6.963308528      1.553      1.650
REMARK  5 active torsions:
REMARK  status: ('A' for Active; 'I' for Inactive)
REMARK    1  A    between atoms: C2_2  and  N1_4 
REMARK    2  A    between atoms: C2_2  and  C4_8 
REMARK       I    between atoms: C4_8  and  N2_10 
REMARK    3  A    between atoms: N2_10  and  S1_12 
REMARK    4  A    between atoms: S1_12  and  C5_15 
REMARK    5  A    between atoms: N5_21  and  N6_22 
REMARK       I    between atoms: N6_22  and  C7_24 
REMARK       I    between atoms: C7_24  and  N8_28 
ROOT
HETATM    1  N6  UNL     1      38.707  -1.159  12.598  1.00  0.00    -0.122 N 
ATOM      2  H6  UNL     1      38.792  -1.394  11.609  1.00  0.00     0.206 HD
HETATM    3  C7  UNL     1      39.492  -0.125  13.154  1.00  0.00     0.700 C 
HETATM    4  N7  UNL     1      40.773  -0.159  13.263  1.00  0.00    -0.233 N 
ATOM      5  H71 UNL     1      41.340   0.588  13.664  1.00  0.00     0.174 HD
ATOM      6  H72 UNL     1      41.241  -0.998  12.922  1.00  0.00     0.174 HD
HETATM    7  N8  UNL     1      38.834   1.054  13.634  1.00  0.00    -0.125 N 
ATOM      8  H8  UNL     1      39.105   1.434  14.541  1.00  0.00     0.197 HD
HETATM    9  C8  UNL     1      37.834   1.703  12.903  1.00  0.00     0.196 C 
HETATM   10  N9  UNL     1      36.992   2.241  12.313  1.00  0.00    -0.171 NA
ENDROOT
BRANCH   1  11
HETATM   11  N5  UNL     1      37.817  -1.853  13.409  1.00  0.00    -0.207 N 
HETATM   12  C5  UNL     1      36.615  -2.323  13.002  1.00  0.00     0.261 A 
HETATM   13  N3  UNL     1      36.082  -2.923  14.084  1.00  0.00    -0.272 N 
HETATM   14  N4  UNL     1      36.916  -2.826  15.106  1.00  0.00    -0.292 N 
ATOM     15  H3  UNL     1      35.172  -3.383  14.111  1.00  0.00     0.189 HD
HETATM   16  C6  UNL     1      38.001  -2.170  14.727  1.00  0.00     0.226 A 
ATOM     17  H4  UNL     1      36.749  -3.199  16.041  1.00  0.00     0.187 HD
BRANCH  12  18
HETATM   18  S1  UNL     1      35.876  -2.198  11.418  1.00  0.00     0.300 S 
HETATM   19  O2  UNL     1      34.460  -1.708  11.483  1.00  0.00    -0.197 OA
HETATM   20  O3  UNL     1      36.623  -1.171  10.573  1.00  0.00    -0.197 OA
BRANCH  18  21
HETATM   21  N2  UNL     1      36.016  -3.701  10.593  1.00  0.00    -0.246 N 
HETATM   22  C4  UNL     1      35.359  -4.840  11.102  1.00  0.00     0.266 C 
HETATM   23  O1  UNL     1      34.658  -4.806  12.157  1.00  0.00    -0.270 OA
ATOM     24  H2  UNL     1      36.572  -3.768   9.741  1.00  0.00     0.182 HD
BRANCH  22  25
HETATM   25  C2  UNL     1      35.468  -6.136  10.409  1.00  0.00     0.197 C 
HETATM   26  C1  UNL     1      36.713  -6.904  10.860  1.00  0.00     0.056 C 
HETATM   27  C3  UNL     1      35.609  -5.883   8.927  1.00  0.00     0.056 C 
BRANCH  25  28
HETATM   28  N1  UNL     1      34.319  -6.934  10.714  1.00  0.00    -0.062 N 
ATOM     29  H13 UNL     1      33.497  -6.373  10.936  1.00  0.00     0.275 HD
ATOM     30  H12 UNL     1      33.941  -7.411   9.896  1.00  0.00     0.275 HD
ATOM     31  H11 UNL     1      34.571  -7.578  11.464  1.00  0.00     0.275 HD
ENDBRANCH  25  28
ENDBRANCH  22  25
ENDBRANCH  18  21
ENDBRANCH  12  18
ENDBRANCH   1  11
TORSDOF 5
ENDMDL
MODEL 5
REMARK VINA RESULT: -6.958426342      2.919      4.398
REMARK  5 active torsions:
REMARK  status: ('A' for Active; 'I' for Inactive)
REMARK    1  A    between atoms: C2_2  and  N1_4 
REMARK    2  A    between atoms: C2_2  and  C4_8 
REMARK       I    between atoms: C4_8  and  N2_10 
REMARK    3  A    between atoms: N2_10  and  S1_12 
REMARK    4  A    between atoms: S1_12  and  C5_15 
REMARK    5  A    between atoms: N5_21  and  N6_22 
REMARK       I    between atoms: N6_22  and  C7_24 
REMARK       I    between atoms: C7_24  and  N8_28 
ROOT
HETATM    1  N6  UNL     1      36.209  -3.301  14.209  1.00  0.00    -0.122 N 
ATOM      2  H6  UNL     1      35.389  -3.580  14.748  1.00  0.00     0.206 HD
HETATM    3  C7  UNL     1      37.440  -3.060  14.858  1.00  0.00     0.700 C 
HETATM    4  N7  UNL     1      37.651  -2.104  15.692  1.00  0.00    -0.233 N 
ATOM      5  H71 UNL     1      38.540  -1.930  16.161  1.00  0.00     0.174 HD
ATOM      6  H72 UNL     1      36.866  -1.482  15.887  1.00  0.00     0.174 HD
HETATM    7  N8  UNL     1      38.543  -3.933  14.583  1.00  0.00    -0.125 N 
ATOM      8  H8  UNL     1      39.460  -3.524  14.402  1.00  0.00     0.197 HD
HETATM    9  C8  UNL     1      38.407  -5.324  14.554  1.00  0.00     0.196 C 
HETATM   10  N9  UNL     1      38.303  -6.479  14.512  1.00  0.00    -0.171 NA
ENDROOT
BRANCH   1  11
HETATM   11  N5  UNL     1      36.124  -3.153  12.829  1.00  0.00    -0.207 N 
HETATM   12  C5  UNL     1      35.602  -4.078  11.990  1.00  0.00     0.261 A 
HETATM   13  N3  UNL     1      35.714  -3.545  10.758  1.00  0.00    -0.272 N 
HETATM   14  N4  UNL     1      36.276  -2.351  10.836  1.00  0.00    -0.292 N 
ATOM     15  H3  UNL     1      35.409  -3.995   9.895  1.00  0.00     0.189 HD
HETATM   16  C6  UNL     1      36.544  -2.073  12.103  1.00  0.00     0.226 A 
ATOM     17  H4  UNL     1      36.472  -1.738  10.044  1.00  0.00     0.187 HD
BRANCH  12  18
HETATM   18  S1  UNL     1      34.920  -5.644  12.384  1.00  0.00     0.300 S 
HETATM   19  O2  UNL     1      34.937  -5.923  13.857  1.00  0.00    -0.197 OA
HETATM   20  O3  UNL     1      33.452  -5.691  11.977  1.00  0.00    -0.197 OA
BRANCH  18  21
HETATM   21  N2  UNL     1      35.716  -6.868  11.472  1.00  0.00    -0.246 N 
HETATM   22  C4  UNL     1      35.614  -6.869  10.066  1.00  0.00     0.266 C 
HETATM   23  O1  UNL     1      34.951  -5.994   9.433  1.00  0.00    -0.270 OA
ATOM     24  H2  UNL     1      36.260  -7.589  11.947  1.00  0.00     0.182 HD
BRANCH  22  25
HETATM   25  C2  UNL     1      36.289  -7.909   9.269  1.00  0.00     0.197 C 
HETATM   26  C1  UNL     1      36.461  -7.468   7.814  1.00  0.00     0.056 C 
HETATM   27  C3  UNL     1      35.428  -9.150   9.264  1.00  0.00     0.056 C 
BRANCH  25  28
HETATM   28  N1  UNL     1      37.589  -8.155   9.816  1.00  0.00    -0.062 N 
ATOM     29  H13 UNL     1      38.337  -7.758   9.247  1.00  0.00     0.275 HD
ATOM     30  H12 UNL     1      37.766  -7.621  10.666  1.00  0.00     0.275 HD
ATOM     31  H11 UNL     1      37.689  -9.160   9.954  1.00  0.00     0.275 HD
ENDBRANCH  25  28
ENDBRANCH  22  25
ENDBRANCH  18  21
ENDBRANCH  12  18
ENDBRANCH   1  11
TORSDOF 5
ENDMDL
