MODEL 1
REMARK VINA RESULT: -6.496226104      0.000      0.000
REMARK  7 active torsions:
REMARK  status: ('A' for Active; 'I' for Inactive)
REMARK    1  A    between atoms: C3_3  and  N1_4 
REMARK    2  A    between atoms: N1_4  and  C4_6 
REMARK    3  A    between atoms: C5_9  and  O1_10 
REMARK    4  A    between atoms: C6_12  and  C7_13 
REMARK    5  A    between atoms: N3_14  and  N4_16 
REMARK    6  A    between atoms: N4_16  and  C8_18 
REMARK    7  A    between atoms: N8_23  and  N9_24 
ROOT
HETATM    1  C1  UNL     1      34.450 -10.770   6.446  1.00  0.00     0.014 C 
HETATM    2  C2  UNL     1      35.273 -10.807   7.329  1.00  0.00    -0.097 C 
HETATM    3  C3  UNL     1      36.287 -10.838   8.398  1.00  0.00     0.231 C 
ENDROOT
BRANCH   3   4
HETATM    4  N1  UNL     1      37.140  -9.670   8.363  1.00  0.00    -0.215 N 
ATOM      5  H1  UNL     1      38.133  -9.789   8.162  1.00  0.00     0.178 HD
BRANCH   4   6
HETATM    6  C4  UNL     1      36.685  -8.478   8.579  1.00  0.00     0.683 A 
HETATM    7  N2  UNL     1      36.357  -7.620   7.596  1.00  0.00    -0.168 N 
HETATM    8  C5  UNL     1      35.924  -6.485   8.186  1.00  0.00     0.184 A 
ATOM      9  H2  UNL     1      36.422  -7.795   6.593  1.00  0.00     0.186 HD
HETATM   10  C6  UNL     1      35.997  -6.670   9.550  1.00  0.00     0.119 A 
HETATM   11  N10 UNL     1      36.474  -7.919   9.778  1.00  0.00    -0.182 N 
HETATM   12  C11 UNL     1      36.707  -8.524  11.078  1.00  0.00     0.176 C 
BRANCH   8  13
HETATM   13  O1  UNL     1      35.481  -5.323   7.566  1.00  0.00    -0.344 OA
ATOM     14  H1  UNL     1      35.204  -4.514   7.980  1.00  0.00     0.219 HD
ENDBRANCH   8  13
BRANCH  10  15
HETATM   15  C7  UNL     1      35.636  -5.720  10.593  1.00  0.00     0.142 C 
HETATM   16  N3  UNL     1      35.626  -4.457  10.337  1.00  0.00    -0.295 N 
ATOM     17  H3  UNL     1      35.876  -4.163   9.393  1.00  0.00     0.186 HD
BRANCH  16  18
HETATM   18  N4  UNL     1      35.301  -3.477  11.249  1.00  0.00    -0.129 N 
ATOM     19  H4  UNL     1      34.392  -3.475  11.710  1.00  0.00     0.205 HD
BRANCH  18  20
HETATM   20  C8  UNL     1      36.261  -2.469  11.532  1.00  0.00     0.744 C 
HETATM   21  N5  UNL     1      36.377  -1.333  10.932  1.00  0.00    -0.114 N 
HETATM   22  N6  UNL     1      37.441  -0.669  11.532  1.00  0.00     0.008 NA
ATOM     23  H5  UNL     1      35.799  -0.989  10.165  1.00  0.00     0.203 HD
HETATM   24  N7  UNL     1      38.208  -1.623  12.199  1.00  0.00     0.031 NA
HETATM   25  N8  UNL     1      37.252  -2.584  12.543  1.00  0.00    -0.007 N 
BRANCH  25  26
HETATM   26  N9  UNL     1      37.319  -3.415  13.623  1.00  0.00    -0.302 N 
HETATM   27  C9  UNL     1      37.872  -4.707  13.389  1.00  0.00     0.173 C 
HETATM   28  C10 UNL     1      37.646  -2.816  14.866  1.00  0.00     0.173 C 
ENDBRANCH  25  26
ENDBRANCH  18  20
ENDBRANCH  16  18
ENDBRANCH  10  15
ENDBRANCH   4   6
ENDBRANCH   3   4
TORSDOF 7
ENDMDL
MODEL 2
REMARK VINA RESULT: -6.409065375      3.221      5.012
REMARK  7 active torsions:
REMARK  status: ('A' for Active; 'I' for Inactive)
REMARK    1  A    between atoms: C3_3  and  N1_4 
REMARK    2  A    between atoms: N1_4  and  C4_6 
REMARK    3  A    between atoms: C5_9  and  O1_10 
REMARK    4  A    between atoms: C6_12  and  C7_13 
REMARK    5  A    between atoms: N3_14  and  N4_16 
REMARK    6  A    between atoms: N4_16  and  C8_18 
REMARK    7  A    between atoms: N8_23  and  N9_24 
ROOT
HETATM    1  C1  UNL     1      35.994  -7.601   8.765  1.00  0.00     0.014 C 
HETATM    2  C2  UNL     1      36.412  -7.511   9.895  1.00  0.00    -0.097 C 
HETATM    3  C3  UNL     1      36.911  -7.387  11.276  1.00  0.00     0.231 C 
ENDROOT
BRANCH   3   4
HETATM    4  N1  UNL     1      36.039  -6.567  12.090  1.00  0.00    -0.215 N 
ATOM      5  H1  UNL     1      35.372  -7.023  12.712  1.00  0.00     0.178 HD
BRANCH   4   6
HETATM    6  C4  UNL     1      36.079  -5.275  12.055  1.00  0.00     0.683 A 
HETATM    7  N2  UNL     1      35.232  -4.527  11.324  1.00  0.00    -0.168 N 
HETATM    8  C5  UNL     1      35.565  -3.234  11.527  1.00  0.00     0.184 A 
ATOM      9  H2  UNL     1      34.479  -4.872  10.727  1.00  0.00     0.186 HD
HETATM   10  C6  UNL     1      36.633  -3.211  12.398  1.00  0.00     0.119 A 
HETATM   11  N10 UNL     1      36.941  -4.492  12.717  1.00  0.00    -0.182 N 
HETATM   12  C11 UNL     1      38.004  -4.922  13.608  1.00  0.00     0.176 C 
BRANCH   8  13
HETATM   13  O1  UNL     1      34.965  -2.108  10.977  1.00  0.00    -0.344 OA
ATOM     14  H1  UNL     1      34.266  -1.583  11.349  1.00  0.00     0.219 HD
ENDBRANCH   8  13
BRANCH  10  15
HETATM   15  C7  UNL     1      37.334  -2.040  12.908  1.00  0.00     0.142 C 
HETATM   16  N3  UNL     1      37.608  -1.060  12.119  1.00  0.00    -0.295 N 
ATOM     17  H3  UNL     1      37.317  -1.141  11.145  1.00  0.00     0.186 HD
BRANCH  16  18
HETATM   18  N4  UNL     1      38.266   0.090  12.498  1.00  0.00    -0.129 N 
ATOM     19  H4  UNL     1      39.273   0.181  12.366  1.00  0.00     0.205 HD
BRANCH  18  20
HETATM   20  C8  UNL     1      37.510   1.144  13.077  1.00  0.00     0.744 C 
HETATM   21  N5  UNL     1      36.248   1.125  13.339  1.00  0.00    -0.114 N 
HETATM   22  N6  UNL     1      35.935   2.360  13.896  1.00  0.00     0.008 NA
ATOM     23  H5  UNL     1      35.603   0.353  13.170  1.00  0.00     0.203 HD
HETATM   24  N7  UNL     1      36.955   3.246  13.552  1.00  0.00     0.031 NA
HETATM   25  N8  UNL     1      38.062   2.397  13.452  1.00  0.00    -0.007 N 
BRANCH  25  26
HETATM   26  N9  UNL     1      39.358   2.760  13.677  1.00  0.00    -0.302 N 
HETATM   27  C9  UNL     1      39.718   4.083  13.292  1.00  0.00     0.173 C 
HETATM   28  C10 UNL     1      39.955   2.277  14.869  1.00  0.00     0.173 C 
ENDBRANCH  25  26
ENDBRANCH  18  20
ENDBRANCH  16  18
ENDBRANCH  10  15
ENDBRANCH   4   6
ENDBRANCH   3   4
TORSDOF 7
ENDMDL
MODEL 3
REMARK VINA RESULT: -6.328156302      2.527      7.468
REMARK  7 active torsions:
REMARK  status: ('A' for Active; 'I' for Inactive)
REMARK    1  A    between atoms: C3_3  and  N1_4 
REMARK    2  A    between atoms: N1_4  and  C4_6 
REMARK    3  A    between atoms: C5_9  and  O1_10 
REMARK    4  A    between atoms: C6_12  and  C7_13 
REMARK    5  A    between atoms: N3_14  and  N4_16 
REMARK    6  A    between atoms: N4_16  and  C8_18 
REMARK    7  A    between atoms: N8_23  and  N9_24 
ROOT
HETATM    1  C1  UNL     1      40.473  -0.706  11.528  1.00  0.00     0.014 C 
HETATM    2  C2  UNL     1      39.760  -0.185  12.352  1.00  0.00    -0.097 C 
HETATM    3  C3  UNL     1      38.878   0.436  13.356  1.00  0.00     0.231 C 
ENDROOT
BRANCH   3   4
HETATM    4  N1  UNL     1      37.939  -0.517  13.910  1.00  0.00    -0.215 N 
ATOM      5  H1  UNL     1      37.877  -0.617  14.922  1.00  0.00     0.178 HD
BRANCH   4   6
HETATM    6  C4  UNL     1      37.177  -1.246  13.161  1.00  0.00     0.683 A 
HETATM    7  N2  UNL     1      36.165  -0.749  12.426  1.00  0.00    -0.168 N 
HETATM    8  C5  UNL     1      35.594  -1.788  11.780  1.00  0.00     0.184 A 
ATOM      9  H2  UNL     1      35.882   0.230  12.369  1.00  0.00     0.186 HD
HETATM   10  C6  UNL     1      36.280  -2.929  12.137  1.00  0.00     0.119 A 
HETATM   11  N10 UNL     1      37.264  -2.573  12.999  1.00  0.00    -0.182 N 
HETATM   12  C11 UNL     1      38.224  -3.467  13.622  1.00  0.00     0.176 C 
BRANCH   8  13
HETATM   13  O1  UNL     1      34.513  -1.753  10.908  1.00  0.00    -0.344 OA
ATOM     14  H1  UNL     1      33.725  -2.284  10.940  1.00  0.00     0.219 HD
ENDBRANCH   8  13
BRANCH  10  15
HETATM   15  C7  UNL     1      36.025  -4.292  11.691  1.00  0.00     0.142 C 
HETATM   16  N3  UNL     1      35.658  -4.513  10.476  1.00  0.00    -0.295 N 
ATOM     17  H3  UNL     1      35.557  -3.707   9.858  1.00  0.00     0.186 HD
BRANCH  16  18
HETATM   18  N4  UNL     1      35.392  -5.759   9.953  1.00  0.00    -0.129 N 
ATOM     19  H4  UNL     1      35.566  -5.959   8.969  1.00  0.00     0.205 HD
BRANCH  18  20
HETATM   20  C8  UNL     1      34.868  -6.759  10.816  1.00  0.00     0.744 C 
HETATM   21  N5  UNL     1      33.679  -6.795  11.311  1.00  0.00    -0.114 N 
HETATM   22  N6  UNL     1      33.603  -7.944  12.091  1.00  0.00     0.008 NA
ATOM     23  H5  UNL     1      32.936  -6.112  11.160  1.00  0.00     0.203 HD
HETATM   24  N7  UNL     1      34.908  -8.340  12.381  1.00  0.00     0.031 NA
HETATM   25  N8  UNL     1      35.611  -7.884  11.262  1.00  0.00    -0.007 N 
BRANCH  25  26
HETATM   26  N9  UNL     1      36.752  -8.443  10.764  1.00  0.00    -0.302 N 
HETATM   27  C9  UNL     1      36.673  -8.961   9.439  1.00  0.00     0.173 C 
HETATM   28  C10 UNL     1      37.973  -7.810  11.110  1.00  0.00     0.173 C 
ENDBRANCH  25  26
ENDBRANCH  18  20
ENDBRANCH  16  18
ENDBRANCH  10  15
ENDBRANCH   4   6
ENDBRANCH   3   4
TORSDOF 7
ENDMDL
MODEL 4
REMARK VINA RESULT: -6.322467493      2.294      7.451
REMARK  7 active torsions:
REMARK  status: ('A' for Active; 'I' for Inactive)
REMARK    1  A    between atoms: C3_3  and  N1_4 
REMARK    2  A    between atoms: N1_4  and  C4_6 
REMARK    3  A    between atoms: C5_9  and  O1_10 
REMARK    4  A    between atoms: C6_12  and  C7_13 
REMARK    5  A    between atoms: N3_14  and  N4_16 
REMARK    6  A    between atoms: N4_16  and  C8_18 
REMARK    7  A    between atoms: N8_23  and  N9_24 
ROOT
HETATM    1  C1  UNL     1      40.511  -0.561  11.708  1.00  0.00     0.014 C 
HETATM    2  C2  UNL     1      39.742  -0.061  12.494  1.00  0.00    -0.097 C 
HETATM    3  C3  UNL     1      38.794   0.534  13.453  1.00  0.00     0.231 C 
ENDROOT
BRANCH   3   4
HETATM    4  N1  UNL     1      37.873  -0.451  13.979  1.00  0.00    -0.215 N 
ATOM      5  H1  UNL     1      37.789  -0.557  14.990  1.00  0.00     0.178 HD
BRANCH   4   6
HETATM    6  C4  UNL     1      37.154  -1.202  13.210  1.00  0.00     0.683 A 
HETATM    7  N2  UNL     1      36.111  -0.745  12.493  1.00  0.00    -0.168 N 
HETATM    8  C5  UNL     1      35.603  -1.796  11.814  1.00  0.00     0.184 A 
ATOM      9  H2  UNL     1      35.769   0.216  12.466  1.00  0.00     0.186 HD
HETATM   10  C6  UNL     1      36.358  -2.904  12.135  1.00  0.00     0.119 A 
HETATM   11  N10 UNL     1      37.322  -2.515  13.006  1.00  0.00    -0.182 N 
HETATM   12  C11 UNL     1      38.337  -3.368  13.599  1.00  0.00     0.176 C 
BRANCH   8  13
HETATM   13  O1  UNL     1      34.518  -1.800  10.946  1.00  0.00    -0.344 OA
ATOM     14  H1  UNL     1      33.801  -2.423  10.917  1.00  0.00     0.219 HD
ENDBRANCH   8  13
BRANCH  10  15
HETATM   15  C7  UNL     1      36.186  -4.265  11.646  1.00  0.00     0.142 C 
HETATM   16  N3  UNL     1      35.007  -4.703  11.367  1.00  0.00    -0.295 N 
ATOM     17  H3  UNL     1      34.221  -4.067  11.500  1.00  0.00     0.186 HD
BRANCH  16  18
HETATM   18  N4  UNL     1      34.734  -5.970  10.900  1.00  0.00    -0.129 N 
ATOM     19  H4  UNL     1      34.103  -6.588  11.411  1.00  0.00     0.205 HD
BRANCH  18  20
HETATM   20  C8  UNL     1      35.349  -6.396   9.693  1.00  0.00     0.744 C 
HETATM   21  N5  UNL     1      35.264  -5.815   8.545  1.00  0.00    -0.114 N 
HETATM   22  N6  UNL     1      36.021  -6.571   7.656  1.00  0.00     0.008 NA
ATOM     23  H5  UNL     1      34.742  -4.965   8.331  1.00  0.00     0.203 HD
HETATM   24  N7  UNL     1      36.190  -7.836   8.219  1.00  0.00     0.031 NA
HETATM   25  N8  UNL     1      36.163  -7.555   9.588  1.00  0.00    -0.007 N 
BRANCH  25  26
HETATM   26  N9  UNL     1      36.799  -8.278  10.555  1.00  0.00    -0.302 N 
HETATM   27  C9  UNL     1      36.869  -9.685  10.345  1.00  0.00     0.173 C 
HETATM   28  C10 UNL     1      37.942  -7.682  11.146  1.00  0.00     0.173 C 
ENDBRANCH  25  26
ENDBRANCH  18  20
ENDBRANCH  16  18
ENDBRANCH  10  15
ENDBRANCH   4   6
ENDBRANCH   3   4
TORSDOF 7
ENDMDL
MODEL 5
REMARK VINA RESULT: -6.300244591      2.942      7.753
REMARK  7 active torsions:
REMARK  status: ('A' for Active; 'I' for Inactive)
REMARK    1  A    between atoms: C3_3  and  N1_4 
REMARK    2  A    between atoms: N1_4  and  C4_6 
REMARK    3  A    between atoms: C5_9  and  O1_10 
REMARK    4  A    between atoms: C6_12  and  C7_13 
REMARK    5  A    between atoms: N3_14  and  N4_16 
REMARK    6  A    between atoms: N4_16  and  C8_18 
REMARK    7  A    between atoms: N8_23  and  N9_24 
ROOT
HETATM    1  C1  UNL     1      40.452  -0.775  11.550  1.00  0.00     0.014 C 
HETATM    2  C2  UNL     1      39.712  -0.295  12.375  1.00  0.00    -0.097 C 
HETATM    3  C3  UNL     1      38.797   0.275  13.381  1.00  0.00     0.231 C 
ENDROOT
BRANCH   3   4
HETATM    4  N1  UNL     1      37.915  -0.729  13.936  1.00  0.00    -0.215 N 
ATOM      5  H1  UNL     1      37.887  -0.857  14.947  1.00  0.00     0.178 HD
BRANCH   4   6
HETATM    6  C4  UNL     1      37.162  -1.471  13.191  1.00  0.00     0.683 A 
HETATM    7  N2  UNL     1      36.151  -0.988  12.445  1.00  0.00    -0.168 N 
HETATM    8  C5  UNL     1      35.591  -2.037  11.806  1.00  0.00     0.184 A 
ATOM      9  H2  UNL     1      35.862  -0.012  12.376  1.00  0.00     0.186 HD
HETATM   10  C6  UNL     1      36.282  -3.170  12.179  1.00  0.00     0.119 A 
HETATM   11  N10 UNL     1      37.259  -2.799  13.043  1.00  0.00    -0.182 N 
HETATM   12  C11 UNL     1      38.221  -3.681  13.680  1.00  0.00     0.176 C 
BRANCH   8  13
HETATM   13  O1  UNL     1      34.514  -2.018  10.928  1.00  0.00    -0.344 OA
ATOM     14  H1  UNL     1      33.908  -2.725  10.738  1.00  0.00     0.219 HD
ENDBRANCH   8  13
BRANCH  10  15
HETATM   15  C7  UNL     1      36.039  -4.539  11.745  1.00  0.00     0.142 C 
HETATM   16  N3  UNL     1      34.854  -4.900  11.388  1.00  0.00    -0.295 N 
ATOM     17  H3  UNL     1      34.115  -4.198  11.423  1.00  0.00     0.186 HD
BRANCH  16  18
HETATM   18  N4  UNL     1      34.517  -6.166  10.963  1.00  0.00    -0.129 N 
ATOM     19  H4  UNL     1      34.520  -6.400   9.971  1.00  0.00     0.205 HD
BRANCH  18  20
HETATM   20  C8  UNL     1      34.163  -7.137  11.937  1.00  0.00     0.744 C 
HETATM   21  N5  UNL     1      33.670  -6.903  13.106  1.00  0.00    -0.114 N 
HETATM   22  N6  UNL     1      33.479  -8.139  13.714  1.00  0.00     0.008 NA
ATOM     23  H5  UNL     1      33.461  -5.989  13.506  1.00  0.00     0.203 HD
HETATM   24  N7  UNL     1      34.273  -9.066  13.041  1.00  0.00     0.031 NA
HETATM   25  N8  UNL     1      34.314  -8.536  11.748  1.00  0.00    -0.007 N 
BRANCH  25  26
HETATM   26  N9  UNL     1      34.468  -9.261  10.602  1.00  0.00    -0.302 N 
HETATM   27  C9  UNL     1      35.740  -9.171   9.967  1.00  0.00     0.173 C 
HETATM   28  C10 UNL     1      33.846 -10.535  10.567  1.00  0.00     0.173 C 
ENDBRANCH  25  26
ENDBRANCH  18  20
ENDBRANCH  16  18
ENDBRANCH  10  15
ENDBRANCH   4   6
ENDBRANCH   3   4
TORSDOF 7
ENDMDL
