MODEL 1
REMARK VINA RESULT: -7.996323023      0.000      0.000
REMARK  6 active torsions:
REMARK  status: ('A' for Active; 'I' for Inactive)
REMARK    1  A    between atoms: C2_2  and  C3_4 
REMARK    2  A    between atoms: C3_4  and  N1_5 
REMARK    3  A    between atoms: N1_5  and  N2_6 
REMARK    4  A    between atoms: N1_5  and  C5_10 
REMARK    5  A    between atoms: C7_15  and  C8_16 
REMARK    6  A    between atoms: C8_16  and  N7_18 
REMARK       I    between atoms: N7_18  and  C9_19 
ROOT
HETATM    1  N2  UNL     1      33.902  -6.066  11.604  1.00  0.00    -0.219 N 
ATOM      2  H2  UNL     1      33.116  -5.748  11.037  1.00  0.00     0.200 HD
HETATM    3  C4  UNL     1      33.693  -6.889  12.706  1.00  0.00     0.198 C 
HETATM    4  N3  UNL     1      33.543  -7.572  13.654  1.00  0.00    -0.170 NA
ENDROOT
BRANCH   1   5
HETATM    5  N1  UNL     1      35.201  -5.685  11.290  1.00  0.00    -0.108 N 
BRANCH   5   6
HETATM    6  C3  UNL     1      35.997  -6.476  10.421  1.00  0.00     0.246 C 
BRANCH   6   7
HETATM    7  C2  UNL     1      35.772  -6.296   8.972  1.00  0.00     0.143 C 
HETATM    8  C1  UNL     1      36.247  -7.300   7.934  1.00  0.00     0.093 C 
HETATM    9  O1  UNL     1      35.177  -5.332   8.464  1.00  0.00    -0.297 OA
ENDBRANCH   6   7
ENDBRANCH   5   6
BRANCH   5  10
HETATM   10  C5  UNL     1      35.663  -4.426  11.843  1.00  0.00     0.703 A 
HETATM   11  N4  UNL     1      35.710  -3.360  11.018  1.00  0.00    -0.176 N 
HETATM   12  C6  UNL     1      36.204  -2.176  11.429  1.00  0.00     0.150 A 
ATOM     13  H4  UNL     1      35.364  -3.452  10.063  1.00  0.00     0.185 HD
HETATM   14  N5  UNL     1      36.048  -1.035  10.533  1.00  0.00    -0.081 NA
HETATM   15  C7  UNL     1      36.675  -1.987  12.689  1.00  0.00     0.105 A 
HETATM   16  C11 UNL     1      36.628  -3.078  13.588  1.00  0.00     0.133 A 
HETATM   17  N9  UNL     1      36.967  -3.009  14.743  1.00  0.00    -0.384 N 
HETATM   18  N10 UNL     1      36.108  -4.270  13.080  1.00  0.00    -0.174 N 
ATOM     19  H92 UNL     1      37.347  -2.138  15.114  1.00  0.00     0.157 HD
ATOM     20  H91 UNL     1      36.933  -3.796  15.390  1.00  0.00     0.157 HD
ATOM     21  H10 UNL     1      36.069  -5.076  13.704  1.00  0.00     0.186 HD
BRANCH  15  22
HETATM   22  C8  UNL     1      37.573  -0.853  12.999  1.00  0.00     0.210 C 
HETATM   23  N6  UNL     1      38.974  -1.059  13.306  1.00  0.00    -0.066 NA
BRANCH  22  24
HETATM   24  N7  UNL     1      37.218   0.318  13.149  1.00  0.00    -0.342 NA
HETATM   25  C9  UNL     1      36.804   1.497  13.347  1.00  0.00     0.399 C 
HETATM   26  O2  UNL     1      35.732   2.103  13.725  1.00  0.00    -0.239 OA
HETATM   27  C10 UNL     1      37.829   2.651  13.103  1.00  0.00     0.177 C 
HETATM   28  N8  UNL     1      38.586   3.525  12.895  1.00  0.00    -0.185 NA
ENDBRANCH  22  24
ENDBRANCH  15  22
ENDBRANCH   5  10
ENDBRANCH   1   5
TORSDOF 6
ENDMDL
MODEL 2
REMARK VINA RESULT: -7.386263639      1.683      2.659
REMARK  6 active torsions:
REMARK  status: ('A' for Active; 'I' for Inactive)
REMARK    1  A    between atoms: C2_2  and  C3_4 
REMARK    2  A    between atoms: C3_4  and  N1_5 
REMARK    3  A    between atoms: N1_5  and  N2_6 
REMARK    4  A    between atoms: N1_5  and  C5_10 
REMARK    5  A    between atoms: C7_15  and  C8_16 
REMARK    6  A    between atoms: C8_16  and  N7_18 
REMARK       I    between atoms: N7_18  and  C9_19 
ROOT
HETATM    1  N2  UNL     1      34.525  -6.330  10.886  1.00  0.00    -0.219 N 
ATOM      2  H2  UNL     1      33.734  -6.266  10.244  1.00  0.00     0.200 HD
HETATM    3  C4  UNL     1      35.720  -6.914  10.481  1.00  0.00     0.198 C 
HETATM    4  N3  UNL     1      36.738  -7.420  10.170  1.00  0.00    -0.170 NA
ENDROOT
BRANCH   1   5
HETATM    5  N1  UNL     1      34.427  -5.833  12.180  1.00  0.00    -0.108 N 
BRANCH   5   6
HETATM    6  C3  UNL     1      33.775  -6.582  13.195  1.00  0.00     0.246 C 
BRANCH   6   7
HETATM    7  C2  UNL     1      34.599  -7.572  13.917  1.00  0.00     0.143 C 
HETATM    8  C1  UNL     1      34.345  -9.069  13.839  1.00  0.00     0.093 C 
HETATM    9  O1  UNL     1      35.570  -7.291  14.640  1.00  0.00    -0.297 OA
ENDBRANCH   6   7
ENDBRANCH   5   6
BRANCH   5  10
HETATM   10  C5  UNL     1      35.068  -4.559  12.440  1.00  0.00     0.703 A 
HETATM   11  N4  UNL     1      35.000  -3.616  11.478  1.00  0.00    -0.176 N 
HETATM   12  C6  UNL     1      35.639  -2.436  11.605  1.00  0.00     0.150 A 
ATOM     13  H4  UNL     1      34.455  -3.801  10.636  1.00  0.00     0.185 HD
HETATM   14  N5  UNL     1      35.363  -1.412  10.604  1.00  0.00    -0.081 NA
HETATM   15  C7  UNL     1      36.377  -2.128  12.703  1.00  0.00     0.105 A 
HETATM   16  C11 UNL     1      36.460  -3.086  13.740  1.00  0.00     0.133 A 
HETATM   17  N9  UNL     1      37.040  -2.898  14.780  1.00  0.00    -0.384 N 
HETATM   18  N10 UNL     1      35.775  -4.284  13.526  1.00  0.00    -0.174 N 
ATOM     19  H92 UNL     1      37.540  -2.023  14.937  1.00  0.00     0.157 HD
ATOM     20  H91 UNL     1      37.099  -3.589  15.528  1.00  0.00     0.157 HD
ATOM     21  H10 UNL     1      35.823  -4.995  14.255  1.00  0.00     0.186 HD
BRANCH  15  22
HETATM   22  C8  UNL     1      37.385  -1.047  12.656  1.00  0.00     0.210 C 
HETATM   23  N6  UNL     1      38.783  -1.324  12.394  1.00  0.00    -0.066 NA
BRANCH  22  24
HETATM   24  N7  UNL     1      37.179   0.134  12.950  1.00  0.00    -0.342 NA
HETATM   25  C9  UNL     1      36.914   1.324  13.288  1.00  0.00     0.399 C 
HETATM   26  O2  UNL     1      35.907   2.021  13.689  1.00  0.00    -0.239 OA
HETATM   27  C10 UNL     1      38.099   2.341  13.262  1.00  0.00     0.177 C 
HETATM   28  N8  UNL     1      38.979   3.119  13.220  1.00  0.00    -0.185 NA
ENDBRANCH  22  24
ENDBRANCH  15  22
ENDBRANCH   5  10
ENDBRANCH   1   5
TORSDOF 6
ENDMDL
MODEL 3
REMARK VINA RESULT: -7.334716819      1.218      1.417
REMARK  6 active torsions:
REMARK  status: ('A' for Active; 'I' for Inactive)
REMARK    1  A    between atoms: C2_2  and  C3_4 
REMARK    2  A    between atoms: C3_4  and  N1_5 
REMARK    3  A    between atoms: N1_5  and  N2_6 
REMARK    4  A    between atoms: N1_5  and  C5_10 
REMARK    5  A    between atoms: C7_15  and  C8_16 
REMARK    6  A    between atoms: C8_16  and  N7_18 
REMARK       I    between atoms: N7_18  and  C9_19 
ROOT
HETATM    1  N2  UNL     1      35.210  -6.776  14.028  1.00  0.00    -0.219 N 
ATOM      2  H2  UNL     1      36.007  -6.579  14.635  1.00  0.00     0.200 HD
HETATM    3  C4  UNL     1      34.393  -7.876  14.269  1.00  0.00     0.198 C 
HETATM    4  N3  UNL     1      33.695  -8.810  14.439  1.00  0.00    -0.170 NA
ENDROOT
BRANCH   1   5
HETATM    5  N1  UNL     1      34.922  -5.950  12.949  1.00  0.00    -0.108 N 
BRANCH   5   6
HETATM    6  C3  UNL     1      34.103  -6.411  11.884  1.00  0.00     0.246 C 
BRANCH   6   7
HETATM    7  C2  UNL     1      34.801  -6.912  10.684  1.00  0.00     0.143 C 
HETATM    8  C1  UNL     1      35.103  -8.385  10.462  1.00  0.00     0.093 C 
HETATM    9  O1  UNL     1      35.198  -6.199   9.748  1.00  0.00    -0.297 OA
ENDBRANCH   6   7
ENDBRANCH   5   6
BRANCH   5  10
HETATM   10  C5  UNL     1      35.446  -4.599  13.003  1.00  0.00     0.703 A 
HETATM   11  N4  UNL     1      35.233  -3.802  11.936  1.00  0.00    -0.176 N 
HETATM   12  C6  UNL     1      35.757  -2.562  11.870  1.00  0.00     0.150 A 
ATOM     13  H4  UNL     1      34.664  -4.146  11.162  1.00  0.00     0.185 HD
HETATM   14  N5  UNL     1      35.327  -1.709  10.767  1.00  0.00    -0.081 NA
HETATM   15  C7  UNL     1      36.519  -2.046  12.868  1.00  0.00     0.105 A 
HETATM   16  C11 UNL     1      36.752  -2.846  14.011  1.00  0.00     0.133 A 
HETATM   17  N9  UNL     1      37.365  -2.470  14.978  1.00  0.00    -0.384 N 
HETATM   18  N10 UNL     1      36.179  -4.119  13.996  1.00  0.00    -0.174 N 
ATOM     19  H92 UNL     1      37.784  -1.539  14.989  1.00  0.00     0.157 HD
ATOM     20  H91 UNL     1      37.533  -3.047  15.801  1.00  0.00     0.157 HD
ATOM     21  H10 UNL     1      36.337  -4.721  14.804  1.00  0.00     0.186 HD
BRANCH  15  22
HETATM   22  C8  UNL     1      37.410  -0.892  12.619  1.00  0.00     0.210 C 
HETATM   23  N6  UNL     1      38.751  -1.068  12.097  1.00  0.00    -0.066 NA
BRANCH  22  24
HETATM   24  N7  UNL     1      37.171   0.277  12.934  1.00  0.00    -0.342 NA
HETATM   25  C9  UNL     1      36.875   1.451  13.298  1.00  0.00     0.399 C 
HETATM   26  O2  UNL     1      35.870   2.097  13.783  1.00  0.00    -0.239 OA
HETATM   27  C10 UNL     1      38.001   2.527  13.181  1.00  0.00     0.177 C 
HETATM   28  N8  UNL     1      38.835   3.348  13.072  1.00  0.00    -0.185 NA
ENDBRANCH  22  24
ENDBRANCH  15  22
ENDBRANCH   5  10
ENDBRANCH   1   5
TORSDOF 6
ENDMDL
MODEL 4
REMARK VINA RESULT: -7.322803546      1.383      2.158
REMARK  6 active torsions:
REMARK  status: ('A' for Active; 'I' for Inactive)
REMARK    1  A    between atoms: C2_2  and  C3_4 
REMARK    2  A    between atoms: C3_4  and  N1_5 
REMARK    3  A    between atoms: N1_5  and  N2_6 
REMARK    4  A    between atoms: N1_5  and  C5_10 
REMARK    5  A    between atoms: C7_15  and  C8_16 
REMARK    6  A    between atoms: C8_16  and  N7_18 
REMARK       I    between atoms: N7_18  and  C9_19 
ROOT
HETATM    1  N2  UNL     1      33.969  -6.583  11.243  1.00  0.00    -0.219 N 
ATOM      2  H2  UNL     1      33.199  -6.422  10.592  1.00  0.00     0.200 HD
HETATM    3  C4  UNL     1      33.721  -7.058  12.527  1.00  0.00     0.198 C 
HETATM    4  N3  UNL     1      33.539  -7.443  13.626  1.00  0.00    -0.170 NA
ENDROOT
BRANCH   1   5
HETATM    5  N1  UNL     1      35.281  -6.332  10.862  1.00  0.00    -0.108 N 
BRANCH   5   6
HETATM    6  C3  UNL     1      35.936  -7.173   9.924  1.00  0.00     0.246 C 
BRANCH   6   7
HETATM    7  C2  UNL     1      35.885  -6.749   8.510  1.00  0.00     0.143 C 
HETATM    8  C1  UNL     1      36.338  -7.641   7.366  1.00  0.00     0.093 C 
HETATM    9  O1  UNL     1      35.469  -5.646   8.118  1.00  0.00    -0.297 OA
ENDBRANCH   6   7
ENDBRANCH   5   6
BRANCH   5  10
HETATM   10  C5  UNL     1      35.908  -5.151  11.424  1.00  0.00     0.703 A 
HETATM   11  N4  UNL     1      36.954  -5.334  12.255  1.00  0.00    -0.176 N 
HETATM   12  C6  UNL     1      37.541  -4.296  12.883  1.00  0.00     0.150 A 
ATOM     13  H4  UNL     1      37.309  -6.278  12.412  1.00  0.00     0.185 HD
HETATM   14  N5  UNL     1      38.774  -4.564  13.616  1.00  0.00    -0.081 NA
HETATM   15  C7  UNL     1      37.120  -3.016  12.713  1.00  0.00     0.105 A 
HETATM   16  C11 UNL     1      36.034  -2.783  11.837  1.00  0.00     0.133 A 
HETATM   17  N9  UNL     1      35.614  -1.686  11.569  1.00  0.00    -0.384 N 
HETATM   18  N10 UNL     1      35.480  -3.913  11.232  1.00  0.00    -0.174 N 
ATOM     19  H92 UNL     1      36.019  -0.860  12.011  1.00  0.00     0.157 HD
ATOM     20  H91 UNL     1      34.831  -1.518  10.937  1.00  0.00     0.157 HD
ATOM     21  H10 UNL     1      34.691  -3.775  10.600  1.00  0.00     0.186 HD
BRANCH  15  22
HETATM   22  C8  UNL     1      37.477  -1.966  13.692  1.00  0.00     0.210 C 
HETATM   23  N6  UNL     1      37.438  -2.216  15.119  1.00  0.00    -0.066 NA
BRANCH  22  24
HETATM   24  N7  UNL     1      37.708  -0.785  13.420  1.00  0.00    -0.342 NA
HETATM   25  C9  UNL     1      37.990   0.404  13.095  1.00  0.00     0.399 C 
HETATM   26  O2  UNL     1      38.958   1.063  12.557  1.00  0.00    -0.239 OA
HETATM   27  C10 UNL     1      36.898   1.486  13.372  1.00  0.00     0.177 C 
HETATM   28  N8  UNL     1      36.092   2.310  13.601  1.00  0.00    -0.185 NA
ENDBRANCH  22  24
ENDBRANCH  15  22
ENDBRANCH   5  10
ENDBRANCH   1   5
TORSDOF 6
ENDMDL
MODEL 5
REMARK VINA RESULT: -7.213312359      1.251      2.236
REMARK  6 active torsions:
REMARK  status: ('A' for Active; 'I' for Inactive)
REMARK    1  A    between atoms: C2_2  and  C3_4 
REMARK    2  A    between atoms: C3_4  and  N1_5 
REMARK    3  A    between atoms: N1_5  and  N2_6 
REMARK    4  A    between atoms: N1_5  and  C5_10 
REMARK    5  A    between atoms: C7_15  and  C8_16 
REMARK    6  A    between atoms: C8_16  and  N7_18 
REMARK       I    between atoms: N7_18  and  C9_19 
ROOT
HETATM    1  N2  UNL     1      34.931  -4.733  13.211  1.00  0.00    -0.219 N 
ATOM      2  H2  UNL     1      34.757  -3.942  13.833  1.00  0.00     0.200 HD
HETATM    3  C4  UNL     1      34.098  -5.846  13.233  1.00  0.00     0.198 C 
HETATM    4  N3  UNL     1      33.418  -6.809  13.242  1.00  0.00    -0.170 NA
ENDROOT
BRANCH   1   5
HETATM    5  N1  UNL     1      36.004  -4.716  12.329  1.00  0.00    -0.108 N 
BRANCH   5   6
HETATM    6  C3  UNL     1      36.333  -5.868  11.567  1.00  0.00     0.246 C 
BRANCH   6   7
HETATM    7  C2  UNL     1      35.852  -5.895  10.171  1.00  0.00     0.143 C 
HETATM    8  C1  UNL     1      35.647  -7.186   9.395  1.00  0.00     0.093 C 
HETATM    9  O1  UNL     1      35.563  -4.888   9.504  1.00  0.00    -0.297 OA
ENDBRANCH   6   7
ENDBRANCH   5   6
BRANCH   5  10
HETATM   10  C5  UNL     1      36.716  -3.460  12.192  1.00  0.00     0.703 A 
HETATM   11  N4  UNL     1      37.784  -3.255  12.989  1.00  0.00    -0.176 N 
HETATM   12  C6  UNL     1      38.450  -2.084  12.984  1.00  0.00     0.150 A 
ATOM     13  H4  UNL     1      38.094  -4.003  13.610  1.00  0.00     0.185 HD
HETATM   14  N5  UNL     1      39.695  -2.016  13.741  1.00  0.00    -0.081 NA
HETATM   15  C7  UNL     1      38.091  -1.051  12.177  1.00  0.00     0.105 A 
HETATM   16  C11 UNL     1      36.984  -1.233  11.315  1.00  0.00     0.133 A 
HETATM   17  N9  UNL     1      36.613  -0.407  10.520  1.00  0.00    -0.384 N 
HETATM   18  N10 UNL     1      36.347  -2.473  11.389  1.00  0.00    -0.174 N 
ATOM     19  H92 UNL     1      37.079   0.499  10.467  1.00  0.00     0.157 HD
ATOM     20  H91 UNL     1      35.815  -0.539   9.899  1.00  0.00     0.157 HD
ATOM     21  H10 UNL     1      35.541  -2.630  10.783  1.00  0.00     0.186 HD
BRANCH  15  22
HETATM   22  C8  UNL     1      38.543   0.327  12.468  1.00  0.00     0.210 C 
HETATM   23  N6  UNL     1      39.949   0.677  12.480  1.00  0.00    -0.066 NA
BRANCH  22  24
HETATM   24  N7  UNL     1      37.817   1.252  12.841  1.00  0.00    -0.342 NA
HETATM   25  C9  UNL     1      37.043   2.157  13.267  1.00  0.00     0.399 C 
HETATM   26  O2  UNL     1      35.897   2.266  13.846  1.00  0.00    -0.239 OA
HETATM   27  C10 UNL     1      37.532   3.632  13.106  1.00  0.00     0.177 C 
HETATM   28  N8  UNL     1      37.881   4.745  12.965  1.00  0.00    -0.185 NA
ENDBRANCH  22  24
ENDBRANCH  15  22
ENDBRANCH   5  10
ENDBRANCH   1   5
TORSDOF 6
ENDMDL
