MODEL 1
REMARK VINA RESULT: -7.046099152      0.000      0.000
REMARK  5 active torsions:
REMARK  status: ('A' for Active; 'I' for Inactive)
REMARK    1  A    between atoms: C3_4  and  C4_5 
REMARK    2  A    between atoms: C4_5  and  N2_6 
REMARK       I    between atoms: N2_6  and  C5_8 
REMARK       I    between atoms: C5_8  and  N3_10 
REMARK    3  A    between atoms: C6_13  and  C7_14 
REMARK    4  A    between atoms: C8_17  and  C9_18 
REMARK       I    between atoms: C9_18  and  N6_20 
REMARK    5  A    between atoms: N6_20  and  N7_22 
ROOT
HETATM    1  N2  UNL     1      36.481  -4.104  11.728  1.00  0.00    -0.337 N 
ATOM      2  H2  UNL     1      37.358  -4.341  12.192  1.00  0.00     0.164 HD
HETATM    3  C5  UNL     1      36.036  -2.778  11.734  1.00  0.00     0.343 C 
HETATM    4  O1  UNL     1      34.916  -2.584  11.121  1.00  0.00    -0.245 OA
HETATM    5  N3  UNL     1      36.691  -1.676  12.334  1.00  0.00    -0.190 N 
HETATM    6  N4  UNL     1      36.170  -0.456  12.270  1.00  0.00    -0.283 N 
ATOM      7  H4  UNL     1      35.294  -0.217  11.807  1.00  0.00     0.188 HD
HETATM    8  C6  UNL     1      36.983   0.431  12.919  1.00  0.00     0.133 A 
HETATM    9  C8  UNL     1      38.032  -0.303  13.388  1.00  0.00     0.110 A 
HETATM   10  C10 UNL     1      37.833  -1.659  13.004  1.00  0.00     0.161 A 
HETATM   11  N8  UNL     1      38.717  -2.711  13.314  1.00  0.00    -0.079 NA
ENDROOT
BRANCH   1  12
HETATM   12  C4  UNL     1      35.713  -5.153  11.071  1.00  0.00     0.166 C 
BRANCH  12  13
HETATM   13  C3  UNL     1      35.054  -6.049  12.041  1.00  0.00    -0.006 A 
HETATM   14  C2  UNL     1      35.644  -6.803  13.013  1.00  0.00     0.119 A 
HETATM   15  N1  UNL     1      34.680  -7.489  13.700  1.00  0.00    -0.308 N 
HETATM   16  C1  UNL     1      34.882  -8.400  14.807  1.00  0.00     0.177 C 
HETATM   17  N9  UNL     1      33.538  -7.146  13.139  1.00  0.00    -0.310 N 
HETATM   18  C11 UNL     1      33.699  -6.287  12.141  1.00  0.00     0.117 A 
ATOM     19  H9  UNL     1      32.631  -7.502  13.438  1.00  0.00     0.186 HD
ENDBRANCH  12  13
ENDBRANCH   1  12
BRANCH   8  20
HETATM   20  C7  UNL     1      36.688   1.859  13.019  1.00  0.00     0.283 C 
HETATM   21  N5  UNL     1      37.211   2.801  12.103  1.00  0.00    -0.056 NA
HETATM   22  O2  UNL     1      35.949   2.247  13.952  1.00  0.00    -0.269 OA
ENDBRANCH   8  20
BRANCH   9  23
HETATM   23  C9  UNL     1      39.185   0.123  14.146  1.00  0.00     0.275 C 
HETATM   24  O3  UNL     1      39.866   1.121  13.715  1.00  0.00    -0.266 OA
HETATM   25  N6  UNL     1      39.605  -0.497  15.334  1.00  0.00    -0.272 N 
ATOM     26  H6  UNL     1      39.103  -1.297  15.719  1.00  0.00     0.189 HD
BRANCH  25  27
HETATM   27  N7  UNL     1      40.762   0.035  15.982  1.00  0.00    -0.342 N 
ATOM     28  H72 UNL     1      41.483   0.512  15.440  1.00  0.00     0.176 HD
ATOM     29  H71 UNL     1      40.832  -0.084  16.993  1.00  0.00     0.176 HD
ENDBRANCH  25  27
ENDBRANCH   9  23
TORSDOF 5
ENDMDL
MODEL 2
REMARK VINA RESULT: -6.804651727      2.923      3.441
REMARK  5 active torsions:
REMARK  status: ('A' for Active; 'I' for Inactive)
REMARK    1  A    between atoms: C3_4  and  C4_5 
REMARK    2  A    between atoms: C4_5  and  N2_6 
REMARK       I    between atoms: N2_6  and  C5_8 
REMARK       I    between atoms: C5_8  and  N3_10 
REMARK    3  A    between atoms: C6_13  and  C7_14 
REMARK    4  A    between atoms: C8_17  and  C9_18 
REMARK       I    between atoms: C9_18  and  N6_20 
REMARK    5  A    between atoms: N6_20  and  N7_22 
ROOT
HETATM    1  N2  UNL     1      35.791  -5.772  11.265  1.00  0.00    -0.337 N 
ATOM      2  H2  UNL     1      36.089  -6.164  12.158  1.00  0.00     0.164 HD
HETATM    3  C5  UNL     1      35.968  -4.407  11.019  1.00  0.00     0.343 C 
HETATM    4  O1  UNL     1      35.557  -4.011   9.861  1.00  0.00    -0.245 OA
HETATM    5  N3  UNL     1      36.540  -3.462  11.905  1.00  0.00    -0.190 N 
HETATM    6  N4  UNL     1      36.659  -2.186  11.557  1.00  0.00    -0.283 N 
ATOM      7  H4  UNL     1      36.362  -1.792  10.665  1.00  0.00     0.188 HD
HETATM    8  C6  UNL     1      37.238  -1.479  12.574  1.00  0.00     0.133 A 
HETATM    9  C8  UNL     1      37.470  -2.384  13.568  1.00  0.00     0.110 A 
HETATM   10  C10 UNL     1      37.016  -3.658  13.125  1.00  0.00     0.161 A 
HETATM   11  N8  UNL     1      37.093  -4.838  13.889  1.00  0.00    -0.079 NA
ENDROOT
BRANCH   1  12
HETATM   12  C4  UNL     1      35.188  -6.644  10.266  1.00  0.00     0.166 C 
BRANCH  12  13
HETATM   13  C3  UNL     1      36.187  -7.512   9.612  1.00  0.00    -0.006 A 
HETATM   14  C2  UNL     1      37.183  -8.231  10.206  1.00  0.00     0.119 A 
HETATM   15  N1  UNL     1      37.887  -8.906   9.246  1.00  0.00    -0.308 N 
HETATM   16  C1  UNL     1      39.021  -9.781   9.454  1.00  0.00     0.177 C 
HETATM   17  N9  UNL     1      37.314  -8.588   8.103  1.00  0.00    -0.310 N 
HETATM   18  C11 UNL     1      36.292  -7.758   8.259  1.00  0.00     0.117 A 
ATOM     19  H9  UNL     1      37.623  -8.942   7.198  1.00  0.00     0.186 HD
ENDBRANCH  12  13
ENDBRANCH   1  12
BRANCH   8  20
HETATM   20  C7  UNL     1      37.512  -0.046  12.495  1.00  0.00     0.283 C 
HETATM   21  N5  UNL     1      36.541   0.925  12.836  1.00  0.00    -0.056 NA
HETATM   22  O2  UNL     1      38.646   0.321  12.112  1.00  0.00    -0.269 OA
ENDBRANCH   8  20
BRANCH   9  23
HETATM   23  C9  UNL     1      38.062  -2.184  14.870  1.00  0.00     0.275 C 
HETATM   24  O3  UNL     1      39.243  -1.690  14.935  1.00  0.00    -0.266 OA
HETATM   25  N6  UNL     1      37.414  -2.505  16.074  1.00  0.00    -0.272 N 
ATOM     26  H6  UNL     1      36.476  -2.905  16.080  1.00  0.00     0.189 HD
BRANCH  25  27
HETATM   27  N7  UNL     1      38.119  -2.249  17.290  1.00  0.00    -0.342 N 
ATOM     28  H72 UNL     1      38.895  -1.587  17.307  1.00  0.00     0.176 HD
ATOM     29  H71 UNL     1      37.816  -2.752  18.125  1.00  0.00     0.176 HD
ENDBRANCH  25  27
ENDBRANCH   9  23
TORSDOF 5
ENDMDL
MODEL 3
REMARK VINA RESULT: -6.755615320      2.616      4.472
REMARK  5 active torsions:
REMARK  status: ('A' for Active; 'I' for Inactive)
REMARK    1  A    between atoms: C3_4  and  C4_5 
REMARK    2  A    between atoms: C4_5  and  N2_6 
REMARK       I    between atoms: N2_6  and  C5_8 
REMARK       I    between atoms: C5_8  and  N3_10 
REMARK    3  A    between atoms: C6_13  and  C7_14 
REMARK    4  A    between atoms: C8_17  and  C9_18 
REMARK       I    between atoms: C9_18  and  N6_20 
REMARK    5  A    between atoms: N6_20  and  N7_22 
ROOT
HETATM    1  N2  UNL     1      37.062  -1.302  13.735  1.00  0.00    -0.337 N 
ATOM      2  H2  UNL     1      36.208  -0.745  13.720  1.00  0.00     0.164 HD
HETATM    3  C5  UNL     1      38.303  -0.661  13.655  1.00  0.00     0.343 C 
HETATM    4  O1  UNL     1      39.321  -1.454  13.681  1.00  0.00    -0.245 OA
HETATM    5  N3  UNL     1      38.521   0.734  13.554  1.00  0.00    -0.190 N 
HETATM    6  N4  UNL     1      39.751   1.229  13.488  1.00  0.00    -0.283 N 
ATOM      7  H4  UNL     1      40.608   0.675  13.503  1.00  0.00     0.188 HD
HETATM    8  C6  UNL     1      39.701   2.592  13.398  1.00  0.00     0.133 A 
HETATM    9  C8  UNL     1      38.375   2.914  13.409  1.00  0.00     0.110 A 
HETATM   10  C10 UNL     1      37.625   1.709  13.511  1.00  0.00     0.161 A 
HETATM   11  N8  UNL     1      36.219   1.649  13.551  1.00  0.00    -0.079 NA
ENDROOT
BRANCH   1  12
HETATM   12  C4  UNL     1      36.971  -2.752  13.838  1.00  0.00     0.166 C 
BRANCH  12  13
HETATM   13  C3  UNL     1      36.463  -3.366  12.595  1.00  0.00    -0.006 A 
HETATM   14  C2  UNL     1      36.395  -4.693  12.289  1.00  0.00     0.119 A 
HETATM   15  N1  UNL     1      35.856  -4.842  11.039  1.00  0.00    -0.308 N 
HETATM   16  C1  UNL     1      35.613  -6.085  10.339  1.00  0.00     0.177 C 
HETATM   17  N9  UNL     1      35.613  -3.618  10.615  1.00  0.00    -0.310 N 
HETATM   18  C11 UNL     1      35.955  -2.694  11.503  1.00  0.00     0.117 A 
ATOM     19  H9  UNL     1      35.206  -3.406   9.705  1.00  0.00     0.186 HD
ENDBRANCH  12  13
ENDBRANCH   1  12
BRANCH   8  20
HETATM   20  C7  UNL     1      40.893   3.433  13.317  1.00  0.00     0.283 C 
HETATM   21  N5  UNL     1      41.537   3.708  12.087  1.00  0.00    -0.056 NA
HETATM   22  O2  UNL     1      41.350   3.917  14.377  1.00  0.00    -0.269 OA
ENDBRANCH   8  20
BRANCH   9  23
HETATM   23  C9  UNL     1      37.745   4.212  13.336  1.00  0.00     0.275 C 
HETATM   24  O3  UNL     1      38.140   5.032  12.432  1.00  0.00    -0.266 OA
HETATM   25  N6  UNL     1      36.723   4.628  14.202  1.00  0.00    -0.272 N 
ATOM     26  H6  UNL     1      36.374   4.018  14.942  1.00  0.00     0.189 HD
BRANCH  25  27
HETATM   27  N7  UNL     1      36.188   5.940  14.010  1.00  0.00    -0.342 N 
ATOM     28  H72 UNL     1      36.794   6.758  14.074  1.00  0.00     0.176 HD
ATOM     29  H71 UNL     1      35.191   6.016  13.810  1.00  0.00     0.176 HD
ENDBRANCH  25  27
ENDBRANCH   9  23
TORSDOF 5
ENDMDL
MODEL 4
REMARK VINA RESULT: -6.727866628      2.267      2.587
REMARK  5 active torsions:
REMARK  status: ('A' for Active; 'I' for Inactive)
REMARK    1  A    between atoms: C3_4  and  C4_5 
REMARK    2  A    between atoms: C4_5  and  N2_6 
REMARK       I    between atoms: N2_6  and  C5_8 
REMARK       I    between atoms: C5_8  and  N3_10 
REMARK    3  A    between atoms: C6_13  and  C7_14 
REMARK    4  A    between atoms: C8_17  and  C9_18 
REMARK       I    between atoms: C9_18  and  N6_20 
REMARK    5  A    between atoms: N6_20  and  N7_22 
ROOT
HETATM    1  N2  UNL     1      35.965  -5.668  11.295  1.00  0.00    -0.337 N 
ATOM      2  H2  UNL     1      36.295  -6.073  12.171  1.00  0.00     0.164 HD
HETATM    3  C5  UNL     1      36.063  -4.287  11.096  1.00  0.00     0.343 C 
HETATM    4  O1  UNL     1      35.618  -3.874   9.956  1.00  0.00    -0.245 OA
HETATM    5  N3  UNL     1      36.591  -3.343  12.009  1.00  0.00    -0.190 N 
HETATM    6  N4  UNL     1      36.635  -2.052  11.707  1.00  0.00    -0.283 N 
ATOM      7  H4  UNL     1      36.306  -1.643  10.831  1.00  0.00     0.188 HD
HETATM    8  C6  UNL     1      37.185  -1.349  12.742  1.00  0.00     0.133 A 
HETATM    9  C8  UNL     1      37.478  -2.273  13.701  1.00  0.00     0.110 A 
HETATM   10  C10 UNL     1      37.091  -3.554  13.218  1.00  0.00     0.161 A 
HETATM   11  N8  UNL     1      37.242  -4.754  13.938  1.00  0.00    -0.079 NA
ENDROOT
BRANCH   1  12
HETATM   12  C4  UNL     1      35.401  -6.537  10.271  1.00  0.00     0.166 C 
BRANCH  12  13
HETATM   13  C3  UNL     1      34.738  -7.721  10.852  1.00  0.00    -0.006 A 
HETATM   14  C2  UNL     1      34.819  -9.015  10.425  1.00  0.00     0.119 A 
HETATM   15  N1  UNL     1      34.058  -9.808  11.240  1.00  0.00    -0.308 N 
HETATM   16  C1  UNL     1      33.872 -11.240  11.134  1.00  0.00     0.177 C 
HETATM   17  N9  UNL     1      33.535  -8.992  12.133  1.00  0.00    -0.310 N 
HETATM   18  C11 UNL     1      33.906  -7.732  11.951  1.00  0.00     0.117 A 
ATOM     19  H9  UNL     1      32.913  -9.297  12.882  1.00  0.00     0.186 HD
ENDBRANCH  12  13
ENDBRANCH   1  12
BRANCH   8  20
HETATM   20  C7  UNL     1      37.377   0.099  12.712  1.00  0.00     0.283 C 
HETATM   21  N5  UNL     1      36.370   1.000  13.130  1.00  0.00    -0.056 NA
HETATM   22  O2  UNL     1      38.473   0.543  12.301  1.00  0.00    -0.269 OA
ENDBRANCH   8  20
BRANCH   9  23
HETATM   23  C9  UNL     1      38.072  -2.087  15.005  1.00  0.00     0.275 C 
HETATM   24  O3  UNL     1      39.231  -1.543  15.075  1.00  0.00    -0.266 OA
HETATM   25  N6  UNL     1      37.449  -2.470  16.203  1.00  0.00    -0.272 N 
ATOM     26  H6  UNL     1      36.529  -2.911  16.204  1.00  0.00     0.189 HD
BRANCH  25  27
HETATM   27  N7  UNL     1      38.153  -2.220  17.421  1.00  0.00    -0.342 N 
ATOM     28  H72 UNL     1      39.160  -2.052  17.410  1.00  0.00     0.176 HD
ATOM     29  H71 UNL     1      37.612  -2.218  18.286  1.00  0.00     0.176 HD
ENDBRANCH  25  27
ENDBRANCH   9  23
TORSDOF 5
ENDMDL
MODEL 5
REMARK VINA RESULT: -6.700352164      2.178      2.760
REMARK  5 active torsions:
REMARK  status: ('A' for Active; 'I' for Inactive)
REMARK    1  A    between atoms: C3_4  and  C4_5 
REMARK    2  A    between atoms: C4_5  and  N2_6 
REMARK       I    between atoms: N2_6  and  C5_8 
REMARK       I    between atoms: C5_8  and  N3_10 
REMARK    3  A    between atoms: C6_13  and  C7_14 
REMARK    4  A    between atoms: C8_17  and  C9_18 
REMARK       I    between atoms: C9_18  and  N6_20 
REMARK    5  A    between atoms: N6_20  and  N7_22 
ROOT
HETATM    1  N2  UNL     1      35.922  -4.807  11.841  1.00  0.00    -0.337 N 
ATOM      2  H2  UNL     1      36.712  -5.199  12.353  1.00  0.00     0.164 HD
HETATM    3  C5  UNL     1      35.758  -3.419  11.785  1.00  0.00     0.343 C 
HETATM    4  O1  UNL     1      34.728  -3.026  11.114  1.00  0.00    -0.245 OA
HETATM    5  N3  UNL     1      36.599  -2.450  12.383  1.00  0.00    -0.190 N 
HETATM    6  N4  UNL     1      36.342  -1.154  12.259  1.00  0.00    -0.283 N 
ATOM      7  H4  UNL     1      35.553  -0.760  11.747  1.00  0.00     0.188 HD
HETATM    8  C6  UNL     1      37.292  -0.425  12.918  1.00  0.00     0.133 A 
HETATM    9  C8  UNL     1      38.149  -1.339  13.459  1.00  0.00     0.110 A 
HETATM   10  C10 UNL     1      37.693  -2.640  13.107  1.00  0.00     0.161 A 
HETATM   11  N8  UNL     1      38.329  -3.836  13.489  1.00  0.00    -0.079 NA
ENDROOT
BRANCH   1  12
HETATM   12  C4  UNL     1      34.983  -5.703  11.179  1.00  0.00     0.166 C 
BRANCH  12  13
HETATM   13  C3  UNL     1      35.565  -6.323   9.973  1.00  0.00    -0.006 A 
HETATM   14  C2  UNL     1      36.243  -7.504   9.887  1.00  0.00     0.119 A 
HETATM   15  N1  UNL     1      36.612  -7.721   8.588  1.00  0.00    -0.308 N 
HETATM   16  C1  UNL     1      37.347  -8.856   8.069  1.00  0.00     0.177 C 
HETATM   17  N9  UNL     1      36.160  -6.681   7.917  1.00  0.00    -0.310 N 
HETATM   18  C11 UNL     1      35.525  -5.812   8.692  1.00  0.00     0.117 A 
ATOM     19  H9  UNL     1      36.284  -6.558   6.913  1.00  0.00     0.186 HD
ENDBRANCH  12  13
ENDBRANCH   1  12
BRANCH   8  20
HETATM   20  C7  UNL     1      37.292   1.035  12.962  1.00  0.00     0.283 C 
HETATM   21  N5  UNL     1      36.244   1.769  13.568  1.00  0.00    -0.056 NA
HETATM   22  O2  UNL     1      38.254   1.644  12.443  1.00  0.00    -0.269 OA
ENDBRANCH   8  20
BRANCH   9  23
HETATM   23  C9  UNL     1      39.333  -1.126  14.259  1.00  0.00     0.275 C 
HETATM   24  O3  UNL     1      40.350  -0.572  13.709  1.00  0.00    -0.266 OA
HETATM   25  N6  UNL     1      39.432  -1.495  15.609  1.00  0.00    -0.272 N 
ATOM     26  H6  UNL     1      38.655  -1.943  16.095  1.00  0.00     0.189 HD
BRANCH  25  27
HETATM   27  N7  UNL     1      40.665  -1.219  16.279  1.00  0.00    -0.342 N 
ATOM     28  H72 UNL     1      41.253  -0.442  15.977  1.00  0.00     0.176 HD
ATOM     29  H71 UNL     1      40.923  -1.825  17.058  1.00  0.00     0.176 HD
ENDBRANCH  25  27
ENDBRANCH   9  23
TORSDOF 5
ENDMDL
