MODEL 1
REMARK VINA RESULT: -7.620489297      0.000      0.000
REMARK  4 active torsions:
REMARK  status: ('A' for Active; 'I' for Inactive)
REMARK       I    between atoms: C2_2  and  N1_4 
REMARK    1  A    between atoms: N1_4  and  N2_6 
REMARK    2  A    between atoms: C3_7  and  C4_8 
REMARK    3  A    between atoms: C4_8  and  N3_9 
REMARK    4  A    between atoms: C6_11  and  C7_12 
REMARK       I    between atoms: N9_24  and  C9_26 
ROOT
HETATM    1  N2  UNL     1      36.701  -5.085  13.133  1.00  0.00    -0.067 N 
HETATM    2  C3  UNL     1      36.598  -3.791  13.600  1.00  0.00     0.156 A 
HETATM    3  N7  UNL     1      35.319  -3.489  13.846  1.00  0.00    -0.271 N 
ATOM      4  H7  UNL     1      34.963  -2.600  14.199  1.00  0.00     0.189 HD
HETATM    5  N8  UNL     1      34.611  -4.548  13.550  1.00  0.00    -0.129 N 
ATOM      6  H8  UNL     1      33.598  -4.623  13.633  1.00  0.00     0.205 HD
HETATM    7  C8  UNL     1      35.451  -5.542  13.108  1.00  0.00     0.722 A 
HETATM    8  N9  UNL     1      34.999  -6.695  12.750  1.00  0.00    -0.161 N 
ATOM      9  H9  UNL     1      35.662  -7.400  12.429  1.00  0.00     0.187 HD
HETATM   10  C9  UNL     1      33.628  -7.026  12.782  1.00  0.00     0.200 C 
HETATM   11  N10 UNL     1      32.777  -6.536  11.955  1.00  0.00    -0.373 N 
ATOM     12 1H10 UNL     1      31.786  -6.776  11.978  1.00  0.00     0.158 HD
ATOM     13 2H10 UNL     1      33.103  -5.881  11.244  1.00  0.00     0.158 HD
HETATM   14  N11 UNL     1      33.175  -7.938  13.770  1.00  0.00    -0.063 NA
ENDROOT
BRANCH   2  15
HETATM   15  C4  UNL     1      37.791  -2.913  13.787  1.00  0.00     0.230 C 
BRANCH  15  16
HETATM   16  N3  UNL     1      37.553  -1.634  13.129  1.00  0.00    -0.280 N 
HETATM   17  C5  UNL     1      37.407  -0.432  13.757  1.00  0.00     0.148 A 
HETATM   18  C6  UNL     1      37.198   0.520  12.790  1.00  0.00     0.131 A 
HETATM   19  N5  UNL     1      37.222  -0.121  11.619  1.00  0.00    -0.280 N 
HETATM   20  N6  UNL     1      37.437  -1.417  11.846  1.00  0.00    -0.240 N 
ATOM     21  H5  UNL     1      37.097   0.309  10.703  1.00  0.00     0.188 HD
ATOM     22  H6  UNL     1      37.502  -2.135  11.124  1.00  0.00     0.208 HD
BRANCH  18  23
HETATM   23  C7  UNL     1      36.989   1.946  12.968  1.00  0.00     0.284 C 
HETATM   24  N4  UNL     1      35.930   2.434  13.768  1.00  0.00    -0.056 NA
HETATM   25  O2  UNL     1      37.734   2.812  12.423  1.00  0.00    -0.269 OA
ENDBRANCH  18  23
ENDBRANCH  15  16
ENDBRANCH   2  15
BRANCH   1  26
HETATM   26  N1  UNL     1      37.870  -5.713  12.776  1.00  0.00    -0.248 N 
HETATM   27  C2  UNL     1      38.726  -6.567  13.455  1.00  0.00     0.233 C 
HETATM   28  C1  UNL     1      39.976  -7.106  12.760  1.00  0.00     0.119 C 
HETATM   29  O1  UNL     1      38.574  -6.952  14.606  1.00  0.00    -0.272 OA
ATOM     30  H1  UNL     1      38.167  -5.510  11.822  1.00  0.00     0.191 HD
ENDBRANCH   1  26
TORSDOF 4
ENDMDL
MODEL 2
REMARK VINA RESULT: -7.007222737      2.132      2.455
REMARK  4 active torsions:
REMARK  status: ('A' for Active; 'I' for Inactive)
REMARK       I    between atoms: C2_2  and  N1_4 
REMARK    1  A    between atoms: N1_4  and  N2_6 
REMARK    2  A    between atoms: C3_7  and  C4_8 
REMARK    3  A    between atoms: C4_8  and  N3_9 
REMARK    4  A    between atoms: C6_11  and  C7_12 
REMARK       I    between atoms: N9_24  and  C9_26 
ROOT
HETATM    1  N2  UNL     1      36.929  -3.568  12.838  1.00  0.00    -0.067 N 
HETATM    2  C3  UNL     1      37.017  -2.421  12.075  1.00  0.00     0.156 A 
HETATM    3  N7  UNL     1      36.035  -2.394  11.168  1.00  0.00    -0.271 N 
ATOM      4  H7  UNL     1      35.867  -1.661  10.478  1.00  0.00     0.189 HD
HETATM    5  N8  UNL     1      35.331  -3.483  11.331  1.00  0.00    -0.129 N 
ATOM      6  H8  UNL     1      34.512  -3.746  10.784  1.00  0.00     0.205 HD
HETATM    7  C8  UNL     1      35.872  -4.218  12.360  1.00  0.00     0.722 A 
HETATM    8  N9  UNL     1      35.359  -5.345  12.723  1.00  0.00    -0.161 N 
ATOM      9  H9  UNL     1      35.797  -5.853  13.491  1.00  0.00     0.187 HD
HETATM   10  C9  UNL     1      34.222  -5.906  12.107  1.00  0.00     0.200 C 
HETATM   11  N10 UNL     1      34.249  -6.403  10.922  1.00  0.00    -0.373 N 
ATOM     12 1H10 UNL     1      33.426  -6.809  10.477  1.00  0.00     0.158 HD
ATOM     13 2H10 UNL     1      35.128  -6.393  10.405  1.00  0.00     0.158 HD
HETATM   14  N11 UNL     1      32.999  -5.919  12.826  1.00  0.00    -0.063 NA
ENDROOT
BRANCH   2  15
HETATM   15  C4  UNL     1      38.081  -1.397  12.294  1.00  0.00     0.230 C 
BRANCH  15  16
HETATM   16  N3  UNL     1      37.460  -0.135  12.676  1.00  0.00    -0.280 N 
HETATM   17  C5  UNL     1      38.067   1.086  12.665  1.00  0.00     0.148 A 
HETATM   18  C6  UNL     1      37.150   2.013  13.094  1.00  0.00     0.131 A 
HETATM   19  N5  UNL     1      36.025   1.338  13.350  1.00  0.00    -0.280 N 
HETATM   20  N6  UNL     1      36.234   0.047  13.092  1.00  0.00    -0.240 N 
ATOM     21  H5  UNL     1      35.153   1.744  13.687  1.00  0.00     0.188 HD
ATOM     22  H6  UNL     1      35.539  -0.691  13.202  1.00  0.00     0.208 HD
BRANCH  18  23
HETATM   23  C7  UNL     1      37.330   3.445  13.250  1.00  0.00     0.284 C 
HETATM   24  N4  UNL     1      36.987   4.097  14.457  1.00  0.00    -0.056 NA
HETATM   25  O2  UNL     1      37.795   4.173  12.325  1.00  0.00    -0.269 OA
ENDBRANCH  18  23
ENDBRANCH  15  16
ENDBRANCH   2  15
BRANCH   1  26
HETATM   26  N1  UNL     1      37.785  -3.915  13.855  1.00  0.00    -0.248 N 
HETATM   27  C2  UNL     1      38.029  -3.375  15.108  1.00  0.00     0.233 C 
HETATM   28  C1  UNL     1      39.072  -4.012  16.025  1.00  0.00     0.119 C 
HETATM   29  O1  UNL     1      37.465  -2.394  15.576  1.00  0.00    -0.272 OA
ATOM     30  H1  UNL     1      38.355  -4.735  13.645  1.00  0.00     0.191 HD
ENDBRANCH   1  26
TORSDOF 4
ENDMDL
MODEL 3
REMARK VINA RESULT: -6.948780601      4.267      7.352
REMARK  4 active torsions:
REMARK  status: ('A' for Active; 'I' for Inactive)
REMARK       I    between atoms: C2_2  and  N1_4 
REMARK    1  A    between atoms: N1_4  and  N2_6 
REMARK    2  A    between atoms: C3_7  and  C4_8 
REMARK    3  A    between atoms: C4_8  and  N3_9 
REMARK    4  A    between atoms: C6_11  and  C7_12 
REMARK       I    between atoms: N9_24  and  C9_26 
ROOT
HETATM    1  N2  UNL     1      38.496   1.250  12.901  1.00  0.00    -0.067 N 
HETATM    2  C3  UNL     1      39.808   1.145  12.491  1.00  0.00     0.156 A 
HETATM    3  N7  UNL     1      40.006  -0.020  11.865  1.00  0.00    -0.271 N 
ATOM      4  H7  UNL     1      40.883  -0.351  11.462  1.00  0.00     0.189 HD
HETATM    5  N8  UNL     1      38.863  -0.654  11.867  1.00  0.00    -0.129 N 
ATOM      6  H8  UNL     1      38.698  -1.575  11.461  1.00  0.00     0.205 HD
HETATM    7  C8  UNL     1      37.920   0.118  12.503  1.00  0.00     0.722 A 
HETATM    8  N9  UNL     1      36.703  -0.284  12.640  1.00  0.00    -0.161 N 
ATOM      9  H9  UNL     1      36.041   0.324  13.120  1.00  0.00     0.187 HD
HETATM   10  C9  UNL     1      36.245  -1.527  12.156  1.00  0.00     0.200 C 
HETATM   11  N10 UNL     1      36.579  -2.646  12.692  1.00  0.00    -0.373 N 
ATOM     12 1H10 UNL     1      36.248  -3.545  12.342  1.00  0.00     0.158 HD
ATOM     13 2H10 UNL     1      37.200  -2.637  13.501  1.00  0.00     0.158 HD
HETATM   14  N11 UNL     1      35.382  -1.539  11.031  1.00  0.00    -0.063 NA
ENDROOT
BRANCH   2  15
HETATM   15  C4  UNL     1      40.810   2.225  12.739  1.00  0.00     0.230 C 
BRANCH  15  16
HETATM   16  N3  UNL     1      40.834   3.129  11.596  1.00  0.00    -0.280 N 
HETATM   17  C5  UNL     1      41.692   3.052  10.539  1.00  0.00     0.148 A 
HETATM   18  C6  UNL     1      41.391   4.081   9.682  1.00  0.00     0.131 A 
HETATM   19  N5  UNL     1      40.373   4.745  10.234  1.00  0.00    -0.280 N 
HETATM   20  N6  UNL     1      40.053   4.155  11.386  1.00  0.00    -0.240 N 
ATOM     21  H5  UNL     1      39.916   5.567   9.840  1.00  0.00     0.188 HD
ATOM     22  H6  UNL     1      39.308   4.460  12.012  1.00  0.00     0.208 HD
BRANCH  18  23
HETATM   23  C7  UNL     1      42.030   4.411   8.420  1.00  0.00     0.284 C 
HETATM   24  N4  UNL     1      41.347   5.148   7.426  1.00  0.00    -0.056 NA
HETATM   25  O2  UNL     1      43.216   4.060   8.151  1.00  0.00    -0.269 OA
ENDBRANCH  18  23
ENDBRANCH  15  16
ENDBRANCH   2  15
BRANCH   1  26
HETATM   26  N1  UNL     1      37.955   2.315  13.580  1.00  0.00    -0.248 N 
HETATM   27  C2  UNL     1      37.023   3.280  13.231  1.00  0.00     0.233 C 
HETATM   28  C1  UNL     1      36.625   4.357  14.239  1.00  0.00     0.119 C 
HETATM   29  O1  UNL     1      36.459   3.359  12.148  1.00  0.00    -0.272 OA
ATOM     30  H1  UNL     1      38.311   2.415  14.531  1.00  0.00     0.191 HD
ENDBRANCH   1  26
TORSDOF 4
ENDMDL
MODEL 4
REMARK VINA RESULT: -6.813730869      2.321      2.775
REMARK  4 active torsions:
REMARK  status: ('A' for Active; 'I' for Inactive)
REMARK       I    between atoms: C2_2  and  N1_4 
REMARK    1  A    between atoms: N1_4  and  N2_6 
REMARK    2  A    between atoms: C3_7  and  C4_8 
REMARK    3  A    between atoms: C4_8  and  N3_9 
REMARK    4  A    between atoms: C6_11  and  C7_12 
REMARK       I    between atoms: N9_24  and  C9_26 
ROOT
HETATM    1  N2  UNL     1      36.234  -5.277  12.483  1.00  0.00    -0.067 N 
HETATM    2  C3  UNL     1      35.815  -3.994  12.202  1.00  0.00     0.156 A 
HETATM    3  N7  UNL     1      34.491  -3.970  12.011  1.00  0.00    -0.271 N 
ATOM      4  H7  UNL     1      33.925  -3.151  11.790  1.00  0.00     0.189 HD
HETATM    5  N8  UNL     1      34.061  -5.195  12.161  1.00  0.00    -0.129 N 
ATOM      6  H8  UNL     1      33.090  -5.495  12.076  1.00  0.00     0.205 HD
HETATM    7  C8  UNL     1      35.126  -6.014  12.454  1.00  0.00     0.722 A 
HETATM    8  N9  UNL     1      34.967  -7.279  12.649  1.00  0.00    -0.161 N 
ATOM      9  H9  UNL     1      35.788  -7.844  12.863  1.00  0.00     0.187 HD
HETATM   10  C9  UNL     1      33.711  -7.916  12.582  1.00  0.00     0.200 C 
HETATM   11  N10 UNL     1      33.086  -8.100  11.475  1.00  0.00    -0.373 N 
ATOM     12 1H10 UNL     1      32.177  -8.561  11.426  1.00  0.00     0.158 HD
ATOM     13 2H10 UNL     1      33.514  -7.775  10.608  1.00  0.00     0.158 HD
HETATM   14  N11 UNL     1      33.115  -8.368  13.787  1.00  0.00    -0.063 NA
ENDROOT
BRANCH   2  15
HETATM   15  C4  UNL     1      36.762  -2.840  12.143  1.00  0.00     0.230 C 
BRANCH  15  16
HETATM   16  N3  UNL     1      37.199  -2.509  13.494  1.00  0.00    -0.280 N 
HETATM   17  C5  UNL     1      38.402  -1.961  13.829  1.00  0.00     0.148 A 
HETATM   18  C6  UNL     1      38.425  -1.807  15.192  1.00  0.00     0.131 A 
HETATM   19  N5  UNL     1      37.251  -2.259  15.642  1.00  0.00    -0.280 N 
HETATM   20  N6  UNL     1      36.528  -2.677  14.603  1.00  0.00    -0.240 N 
ATOM     21  H5  UNL     1      36.957  -2.281  16.618  1.00  0.00     0.188 HD
ATOM     22  H6  UNL     1      35.589  -3.071  14.664  1.00  0.00     0.208 HD
BRANCH  18  23
HETATM   23  C7  UNL     1      39.492  -1.265  16.014  1.00  0.00     0.284 C 
HETATM   24  N4  UNL     1      39.646  -1.658  17.364  1.00  0.00    -0.056 NA
HETATM   25  O2  UNL     1      40.328  -0.424  15.570  1.00  0.00    -0.269 OA
ENDBRANCH  18  23
ENDBRANCH  15  16
ENDBRANCH   2  15
BRANCH   1  26
HETATM   26  N1  UNL     1      37.531  -5.658  12.725  1.00  0.00    -0.248 N 
HETATM   27  C2  UNL     1      38.301  -5.706  13.878  1.00  0.00     0.233 C 
HETATM   28  C1  UNL     1      39.749  -6.189  13.810  1.00  0.00     0.119 C 
HETATM   29  O1  UNL     1      37.919  -5.387  14.995  1.00  0.00    -0.272 OA
ATOM     30  H1  UNL     1      38.028  -5.966  11.889  1.00  0.00     0.191 HD
ENDBRANCH   1  26
TORSDOF 4
ENDMDL
MODEL 5
REMARK VINA RESULT: -6.790871431      2.395      7.927
REMARK  4 active torsions:
REMARK  status: ('A' for Active; 'I' for Inactive)
REMARK       I    between atoms: C2_2  and  N1_4 
REMARK    1  A    between atoms: N1_4  and  N2_6 
REMARK    2  A    between atoms: C3_7  and  C4_8 
REMARK    3  A    between atoms: C4_8  and  N3_9 
REMARK    4  A    between atoms: C6_11  and  C7_12 
REMARK       I    between atoms: N9_24  and  C9_26 
ROOT
HETATM    1  N2  UNL     1      37.604   0.657  12.622  1.00  0.00    -0.067 N 
HETATM    2  C3  UNL     1      37.061  -0.515  12.139  1.00  0.00     0.156 A 
HETATM    3  N7  UNL     1      38.023  -1.302  11.644  1.00  0.00    -0.271 N 
ATOM      4  H7  UNL     1      37.897  -2.224  11.226  1.00  0.00     0.189 HD
HETATM    5  N8  UNL     1      39.154  -0.664  11.797  1.00  0.00    -0.129 N 
ATOM      6  H8  UNL     1      40.070  -1.011  11.514  1.00  0.00     0.205 HD
HETATM    7  C8  UNL     1      38.911   0.547  12.399  1.00  0.00     0.722 A 
HETATM    8  N9  UNL     1      39.868   1.371  12.662  1.00  0.00    -0.161 N 
ATOM      9  H9  UNL     1      39.637   2.257  13.110  1.00  0.00     0.187 HD
HETATM   10  C9  UNL     1      41.219   1.102  12.360  1.00  0.00     0.200 C 
HETATM   11  N10 UNL     1      41.673   1.099  11.158  1.00  0.00    -0.373 N 
ATOM     12 1H10 UNL     1      42.650   0.905  10.939  1.00  0.00     0.158 HD
ATOM     13 2H10 UNL     1      41.032   1.300  10.390  1.00  0.00     0.158 HD
HETATM   14  N11 UNL     1      42.109   0.822  13.428  1.00  0.00    -0.063 NA
ENDROOT
BRANCH   2  15
HETATM   15  C4  UNL     1      35.596  -0.801  12.202  1.00  0.00     0.230 C 
BRANCH  15  16
HETATM   16  N3  UNL     1      35.388  -2.244  12.186  1.00  0.00    -0.280 N 
HETATM   17  C5  UNL     1      35.640  -3.095  13.221  1.00  0.00     0.148 A 
HETATM   18  C6  UNL     1      35.316  -4.363  12.806  1.00  0.00     0.131 A 
HETATM   19  N5  UNL     1      34.882  -4.248  11.548  1.00  0.00    -0.280 N 
HETATM   20  N6  UNL     1      34.934  -2.964  11.195  1.00  0.00    -0.240 N 
ATOM     21  H5  UNL     1      34.564  -5.016  10.957  1.00  0.00     0.188 HD
ATOM     22  H6  UNL     1      34.659  -2.597  10.283  1.00  0.00     0.208 HD
BRANCH  18  23
HETATM   23  C7  UNL     1      35.412  -5.603  13.557  1.00  0.00     0.284 C 
HETATM   24  N4  UNL     1      34.460  -6.634  13.389  1.00  0.00    -0.056 NA
HETATM   25  O2  UNL     1      36.341  -5.819  14.389  1.00  0.00    -0.269 OA
ENDBRANCH  18  23
ENDBRANCH  15  16
ENDBRANCH   2  15
BRANCH   1  26
HETATM   26  N1  UNL     1      36.897   1.688  13.191  1.00  0.00    -0.248 N 
HETATM   27  C2  UNL     1      36.914   3.062  13.000  1.00  0.00     0.233 C 
HETATM   28  C1  UNL     1      35.980   3.958  13.812  1.00  0.00     0.119 C 
HETATM   29  O1  UNL     1      37.635   3.656  12.210  1.00  0.00    -0.272 OA
ATOM     30  H1  UNL     1      36.225   1.382  13.894  1.00  0.00     0.191 HD
ENDBRANCH   1  26
TORSDOF 4
ENDMDL
