MODEL 1
REMARK VINA RESULT: -7.102921855      0.000      0.000
REMARK  7 active torsions:
REMARK  status: ('A' for Active; 'I' for Inactive)
REMARK    1  A    between atoms: C1_2  and  C2_4 
REMARK    2  A    between atoms: C3_5  and  C4_6 
REMARK    3  A    between atoms: C4_6  and  N2_7 
REMARK    4  A    between atoms: C4_6  and  C5_11 
REMARK    5  A    between atoms: C9_24  and  N7_25 
REMARK    6  A    between atoms: N7_25  and  C10_27 
REMARK    7  A    between atoms: N10_33  and  N11_34 
ROOT
HETATM    1  C2  UNL     1      36.187  -2.857  12.413  1.00  0.00     0.099 A 
HETATM    2  C3  UNL     1      37.233  -2.095  12.757  1.00  0.00     0.069 A 
HETATM    3  N5  UNL     1      37.890  -2.405  13.911  1.00  0.00    -0.318 N 
ATOM      4  H5  UNL     1      38.687  -1.830  14.186  1.00  0.00     0.169 HD
HETATM    5  C8  UNL     1      37.543  -3.410  14.686  1.00  0.00     0.267 A 
HETATM    6  F1  UNL     1      38.257  -3.647  15.822  1.00  0.00    -0.165 F 
HETATM    7  N6  UNL     1      36.493  -4.179  14.335  1.00  0.00    -0.303 N 
ATOM      8  H6  UNL     1      36.224  -4.961  14.933  1.00  0.00     0.171 HD
HETATM    9  C9  UNL     1      35.801  -3.937  13.223  1.00  0.00     0.141 A 
ENDROOT
BRANCH   2  10
HETATM   10  C4  UNL     1      37.842  -1.025  11.946  1.00  0.00     0.300 C 
BRANCH  10  11
HETATM   11  N2  UNL     1      39.324  -1.059  11.988  1.00  0.00    -0.063 N 
ATOM     12  H23 UNL     1      39.667  -2.009  12.133  1.00  0.00     0.275 HD
ATOM     13  H22 UNL     1      39.723  -0.882  11.066  1.00  0.00     0.275 HD
ATOM     14  H21 UNL     1      39.708  -0.419  12.684  1.00  0.00     0.275 HD
ENDBRANCH  10  11
BRANCH  10  15
HETATM   15  C5  UNL     1      37.486   0.297  12.602  1.00  0.00     0.110 C 
HETATM   16  N3  UNL     1      36.329   0.697  12.896  1.00  0.00    -0.376 N 
HETATM   17  C6  UNL     1      36.339   2.008  13.514  1.00  0.00     0.140 C 
ATOM     18  H3  UNL     1      35.481   0.158  12.720  1.00  0.00     0.160 HD
HETATM   19  C7  UNL     1      37.745   2.526  13.294  1.00  0.00     0.140 C 
HETATM   20  N4  UNL     1      38.431   1.275  12.974  1.00  0.00    -0.376 N 
ATOM     21  H4  UNL     1      39.441   1.131  13.014  1.00  0.00     0.160 HD
ENDBRANCH  10  15
ENDBRANCH   2  10
BRANCH   1  22
HETATM   22  C1  UNL     1      35.294  -2.567  11.322  1.00  0.00     0.270 C 
HETATM   23  N1  UNL     1      34.440  -1.462  11.157  1.00  0.00    -0.057 NA
HETATM   24  O1  UNL     1      35.249  -3.429  10.360  1.00  0.00    -0.271 OA
ENDBRANCH   1  22
BRANCH   9  25
HETATM   25  N7  UNL     1      34.825  -4.645  12.887  1.00  0.00    -0.172 N 
ATOM     26  H7  UNL     1      33.897  -4.234  12.992  1.00  0.00     0.186 HD
BRANCH  25  27
HETATM   27  C10 UNL     1      34.889  -5.964  12.372  1.00  0.00     0.720 A 
HETATM   28  N8  UNL     1      35.934  -6.762  12.170  1.00  0.00    -0.129 N 
HETATM   29  N9  UNL     1      35.499  -7.906  11.671  1.00  0.00    -0.279 N 
ATOM     30  H8  UNL     1      36.908  -6.530  12.368  1.00  0.00     0.205 HD
HETATM   31  C11 UNL     1      34.161  -7.863  11.543  1.00  0.00     0.241 A 
ATOM     32  H9  UNL     1      36.088  -8.700  11.421  1.00  0.00     0.188 HD
HETATM   33  N10 UNL     1      33.799  -6.648  11.983  1.00  0.00    -0.086 N 
BRANCH  33  34
HETATM   34  N11 UNL     1      32.470  -6.175  12.026  1.00  0.00    -0.323 N 
ATOM     35 2H11 UNL     1      32.174  -5.251  11.712  1.00  0.00     0.178 HD
ATOM     36 1H11 UNL     1      31.662  -6.695  12.371  1.00  0.00     0.178 HD
ENDBRANCH  33  34
ENDBRANCH  25  27
ENDBRANCH   9  25
TORSDOF 7
ENDMDL
MODEL 2
REMARK VINA RESULT: -6.683185541      1.123      6.528
REMARK  7 active torsions:
REMARK  status: ('A' for Active; 'I' for Inactive)
REMARK    1  A    between atoms: C1_2  and  C2_4 
REMARK    2  A    between atoms: C3_5  and  C4_6 
REMARK    3  A    between atoms: C4_6  and  N2_7 
REMARK    4  A    between atoms: C4_6  and  C5_11 
REMARK    5  A    between atoms: C9_24  and  N7_25 
REMARK    6  A    between atoms: N7_25  and  C10_27 
REMARK    7  A    between atoms: N10_33  and  N11_34 
ROOT
HETATM    1  C2  UNL     1      36.191  -3.291  12.363  1.00  0.00     0.099 A 
HETATM    2  C3  UNL     1      36.108  -4.458  13.013  1.00  0.00     0.069 A 
HETATM    3  N5  UNL     1      37.124  -4.786  13.860  1.00  0.00    -0.318 N 
ATOM      4  H5  UNL     1      37.075  -5.675  14.359  1.00  0.00     0.169 HD
HETATM    5  C8  UNL     1      38.166  -4.008  14.064  1.00  0.00     0.267 A 
HETATM    6  F1  UNL     1      39.136  -4.417  14.929  1.00  0.00    -0.165 F 
HETATM    7  N6  UNL     1      38.246  -2.831  13.414  1.00  0.00    -0.303 N 
ATOM      8  H6  UNL     1      39.051  -2.225  13.572  1.00  0.00     0.171 HD
HETATM    9  C9  UNL     1      37.292  -2.443  12.568  1.00  0.00     0.141 A 
ENDROOT
BRANCH   2  10
HETATM   10  C4  UNL     1      34.958  -5.382  13.011  1.00  0.00     0.300 C 
BRANCH  10  11
HETATM   11  N2  UNL     1      34.889  -6.198  14.249  1.00  0.00    -0.063 N 
ATOM     12  H23 UNL     1      34.625  -7.161  14.040  1.00  0.00     0.275 HD
ATOM     13  H22 UNL     1      35.818  -6.363  14.633  1.00  0.00     0.275 HD
ATOM     14  H21 UNL     1      34.268  -5.790  14.948  1.00  0.00     0.275 HD
ENDBRANCH  10  11
BRANCH  10  15
HETATM   15  C5  UNL     1      35.197  -6.400  11.912  1.00  0.00     0.110 C 
HETATM   16  N3  UNL     1      34.518  -6.537  10.860  1.00  0.00    -0.376 N 
HETATM   17  C6  UNL     1      35.015  -7.607  10.018  1.00  0.00     0.140 C 
ATOM     18  H3  UNL     1      33.711  -5.959  10.627  1.00  0.00     0.160 HD
HETATM   19  C7  UNL     1      36.002  -8.355  10.890  1.00  0.00     0.140 C 
HETATM   20  N4  UNL     1      36.236  -7.353  11.930  1.00  0.00    -0.376 N 
ATOM     21  H4  UNL     1      37.030  -7.345  12.570  1.00  0.00     0.160 HD
ENDBRANCH  10  15
ENDBRANCH   2  10
BRANCH   1  22
HETATM   22  C1  UNL     1      35.292  -2.875  11.319  1.00  0.00     0.270 C 
HETATM   23  N1  UNL     1      34.408  -1.781  11.306  1.00  0.00    -0.057 NA
HETATM   24  O1  UNL     1      35.272  -3.595  10.246  1.00  0.00    -0.271 OA
ENDBRANCH   1  22
BRANCH   9  25
HETATM   25  N7  UNL     1      37.355  -1.352  11.959  1.00  0.00    -0.172 N 
ATOM     26  H7  UNL     1      37.551  -1.390  10.959  1.00  0.00     0.186 HD
BRANCH  25  27
HETATM   27  C10 UNL     1      37.177  -0.067  12.531  1.00  0.00     0.720 A 
HETATM   28  N8  UNL     1      36.080   0.529  12.991  1.00  0.00    -0.129 N 
HETATM   29  N9  UNL     1      36.410   1.731  13.431  1.00  0.00    -0.279 N 
ATOM     30  H8  UNL     1      35.143   0.126  13.003  1.00  0.00     0.205 HD
HETATM   31  C11 UNL     1      37.729   1.929  13.261  1.00  0.00     0.241 A 
ATOM     32  H9  UNL     1      35.762   2.406  13.838  1.00  0.00     0.188 HD
HETATM   33  N10 UNL     1      38.190   0.801  12.699  1.00  0.00    -0.086 N 
BRANCH  33  34
HETATM   34  N11 UNL     1      39.537   0.576  12.346  1.00  0.00    -0.323 N 
ATOM     35 2H11 UNL     1      40.190   0.007  12.885  1.00  0.00     0.178 HD
ATOM     36 1H11 UNL     1      40.008   0.949  11.521  1.00  0.00     0.178 HD
ENDBRANCH  33  34
ENDBRANCH  25  27
ENDBRANCH   9  25
TORSDOF 7
ENDMDL
MODEL 3
REMARK VINA RESULT: -6.361795477      2.921      4.706
REMARK  7 active torsions:
REMARK  status: ('A' for Active; 'I' for Inactive)
REMARK    1  A    between atoms: C1_2  and  C2_4 
REMARK    2  A    between atoms: C3_5  and  C4_6 
REMARK    3  A    between atoms: C4_6  and  N2_7 
REMARK    4  A    between atoms: C4_6  and  C5_11 
REMARK    5  A    between atoms: C9_24  and  N7_25 
REMARK    6  A    between atoms: N7_25  and  C10_27 
REMARK    7  A    between atoms: N10_33  and  N11_34 
ROOT
HETATM    1  C2  UNL     1      37.973   1.357  12.786  1.00  0.00     0.099 A 
HETATM    2  C3  UNL     1      39.241   1.783  12.802  1.00  0.00     0.069 A 
HETATM    3  N5  UNL     1      40.227   0.841  12.785  1.00  0.00    -0.318 N 
ATOM      4  H5  UNL     1      41.198   1.152  12.800  1.00  0.00     0.169 HD
HETATM    5  C8  UNL     1      39.982  -0.452  12.748  1.00  0.00     0.267 A 
HETATM    6  F1  UNL     1      41.030  -1.323  12.733  1.00  0.00    -0.165 F 
HETATM    7  N6  UNL     1      38.704  -0.879  12.726  1.00  0.00    -0.303 N 
ATOM      8  H6  UNL     1      38.512  -1.881  12.695  1.00  0.00     0.171 HD
HETATM    9  C9  UNL     1      37.688  -0.018  12.744  1.00  0.00     0.141 A 
ENDROOT
BRANCH   2  10
HETATM   10  C4  UNL     1      39.697   3.182  12.704  1.00  0.00     0.300 C 
BRANCH  10  11
HETATM   11  N2  UNL     1      41.169   3.286  12.546  1.00  0.00    -0.063 N 
ATOM     12  H23 UNL     1      41.475   2.872  11.665  1.00  0.00     0.275 HD
ATOM     13  H22 UNL     1      41.454   4.251  12.380  1.00  0.00     0.275 HD
ATOM     14  H21 UNL     1      41.673   2.884  13.336  1.00  0.00     0.275 HD
ENDBRANCH  10  11
BRANCH  10  15
HETATM   15  C5  UNL     1      39.424   3.842  14.043  1.00  0.00     0.110 C 
HETATM   16  N3  UNL     1      39.933   3.523  15.150  1.00  0.00    -0.376 N 
HETATM   17  C6  UNL     1      39.458   4.356  16.236  1.00  0.00     0.140 C 
ATOM     18  H3  UNL     1      40.604   2.763  15.268  1.00  0.00     0.160 HD
HETATM   19  C7  UNL     1      38.284   5.115  15.653  1.00  0.00     0.140 C 
HETATM   20  N4  UNL     1      38.539   4.924  14.226  1.00  0.00    -0.376 N 
ATOM     21  H4  UNL     1      38.138   5.488  13.476  1.00  0.00     0.160 HD
ENDBRANCH  10  15
ENDBRANCH   2  10
BRANCH   1  22
HETATM   22  C1  UNL     1      36.827   2.208  12.966  1.00  0.00     0.270 C 
HETATM   23  N1  UNL     1      35.859   2.174  13.985  1.00  0.00    -0.057 NA
HETATM   24  O1  UNL     1      36.638   3.128  12.077  1.00  0.00    -0.271 OA
ENDBRANCH   1  22
BRANCH   9  25
HETATM   25  N7  UNL     1      36.497  -0.403  12.723  1.00  0.00    -0.172 N 
ATOM     26  H7  UNL     1      35.803   0.218  13.138  1.00  0.00     0.186 HD
BRANCH  25  27
HETATM   27  C10 UNL     1      36.025  -1.623  12.176  1.00  0.00     0.720 A 
HETATM   28  N8  UNL     1      35.667  -1.930  10.933  1.00  0.00    -0.129 N 
HETATM   29  N9  UNL     1      35.294  -3.197  10.905  1.00  0.00    -0.279 N 
ATOM     30  H8  UNL     1      35.680  -1.295  10.134  1.00  0.00     0.205 HD
HETATM   31  C11 UNL     1      35.405  -3.729  12.135  1.00  0.00     0.241 A 
ATOM     32  H9  UNL     1      34.970  -3.697  10.077  1.00  0.00     0.188 HD
HETATM   33  N10 UNL     1      35.861  -2.735  12.913  1.00  0.00    -0.086 N 
BRANCH  33  34
HETATM   34  N11 UNL     1      36.123  -2.857  14.294  1.00  0.00    -0.323 N 
ATOM     35 2H11 UNL     1      35.750  -2.234  15.011  1.00  0.00     0.178 HD
ATOM     36 1H11 UNL     1      36.709  -3.570  14.730  1.00  0.00     0.178 HD
ENDBRANCH  33  34
ENDBRANCH  25  27
ENDBRANCH   9  25
TORSDOF 7
ENDMDL
MODEL 4
REMARK VINA RESULT: -6.327917826      2.343      6.920
REMARK  7 active torsions:
REMARK  status: ('A' for Active; 'I' for Inactive)
REMARK    1  A    between atoms: C1_2  and  C2_4 
REMARK    2  A    between atoms: C3_5  and  C4_6 
REMARK    3  A    between atoms: C4_6  and  N2_7 
REMARK    4  A    between atoms: C4_6  and  C5_11 
REMARK    5  A    between atoms: C9_24  and  N7_25 
REMARK    6  A    between atoms: N7_25  and  C10_27 
REMARK    7  A    between atoms: N10_33  and  N11_34 
ROOT
HETATM    1  C2  UNL     1      35.441  -6.723  12.829  1.00  0.00     0.099 A 
HETATM    2  C3  UNL     1      36.076  -7.885  12.635  1.00  0.00     0.069 A 
HETATM    3  N5  UNL     1      37.349  -7.998  13.111  1.00  0.00    -0.318 N 
ATOM      4  H5  UNL     1      37.846  -8.878  12.967  1.00  0.00     0.169 HD
HETATM    5  C8  UNL     1      37.966  -7.025  13.747  1.00  0.00     0.267 A 
HETATM    6  F1  UNL     1      39.239  -7.227  14.188  1.00  0.00    -0.165 F 
HETATM    7  N6  UNL     1      37.323  -5.858  13.947  1.00  0.00    -0.303 N 
ATOM      8  H6  UNL     1      37.798  -5.103  14.442  1.00  0.00     0.171 HD
HETATM    9  C9  UNL     1      36.078  -5.672  13.509  1.00  0.00     0.141 A 
ENDROOT
BRANCH   2  10
HETATM   10  C4  UNL     1      35.495  -9.118  12.071  1.00  0.00     0.300 C 
BRANCH  10  11
HETATM   11  N2  UNL     1      36.101 -10.342  12.650  1.00  0.00    -0.063 N 
ATOM     12  H23 UNL     1      36.480 -10.946  11.920  1.00  0.00     0.275 HD
ATOM     13  H22 UNL     1      36.964 -10.126  13.147  1.00  0.00     0.275 HD
ATOM     14  H21 UNL     1      35.449 -10.852  13.248  1.00  0.00     0.275 HD
ENDBRANCH  10  11
BRANCH  10  15
HETATM   15  C5  UNL     1      35.886  -9.172  10.606  1.00  0.00     0.110 C 
HETATM   16  N3  UNL     1      36.846  -9.822  10.113  1.00  0.00    -0.376 N 
HETATM   17  C6  UNL     1      36.944  -9.658   8.677  1.00  0.00     0.140 C 
ATOM     18  H3  UNL     1      37.483 -10.399  10.663  1.00  0.00     0.160 HD
HETATM   19  C7  UNL     1      36.010  -8.508   8.357  1.00  0.00     0.140 C 
HETATM   20  N4  UNL     1      35.210  -8.481   9.580  1.00  0.00    -0.376 N 
ATOM     21  H4  UNL     1      34.299  -8.031   9.677  1.00  0.00     0.160 HD
ENDBRANCH  10  15
ENDBRANCH   2  10
BRANCH   1  22
HETATM   22  C1  UNL     1      34.166  -6.387  12.251  1.00  0.00     0.270 C 
HETATM   23  N1  UNL     1      32.885  -6.522  12.813  1.00  0.00    -0.057 NA
HETATM   24  O1  UNL     1      34.179  -5.902  11.053  1.00  0.00    -0.271 OA
ENDBRANCH   1  22
BRANCH   9  25
HETATM   25  N7  UNL     1      35.470  -4.593  13.688  1.00  0.00    -0.172 N 
ATOM     26  H7  UNL     1      34.521  -4.651  14.055  1.00  0.00     0.186 HD
BRANCH  25  27
HETATM   27  C10 UNL     1      35.981  -3.295  13.429  1.00  0.00     0.720 A 
HETATM   28  N8  UNL     1      36.698  -2.480  14.198  1.00  0.00    -0.129 N 
HETATM   29  N9  UNL     1      36.942  -1.372  13.521  1.00  0.00    -0.279 N 
ATOM     30  H8  UNL     1      37.008  -2.678  15.150  1.00  0.00     0.205 HD
HETATM   31  C11 UNL     1      36.383  -1.456  12.300  1.00  0.00     0.241 A 
ATOM     32  H9  UNL     1      37.472  -0.574  13.870  1.00  0.00     0.188 HD
HETATM   33  N10 UNL     1      35.791  -2.658  12.261  1.00  0.00    -0.086 N 
BRANCH  33  34
HETATM   34  N11 UNL     1      35.078  -3.164  11.152  1.00  0.00    -0.323 N 
ATOM     35 2H11 UNL     1      34.990  -4.154  10.923  1.00  0.00     0.178 HD
ATOM     36 1H11 UNL     1      34.576  -2.606  10.461  1.00  0.00     0.178 HD
ENDBRANCH  33  34
ENDBRANCH  25  27
ENDBRANCH   9  25
TORSDOF 7
ENDMDL
MODEL 5
REMARK VINA RESULT: -6.301493873      2.506      3.638
REMARK  7 active torsions:
REMARK  status: ('A' for Active; 'I' for Inactive)
REMARK    1  A    between atoms: C1_2  and  C2_4 
REMARK    2  A    between atoms: C3_5  and  C4_6 
REMARK    3  A    between atoms: C4_6  and  N2_7 
REMARK    4  A    between atoms: C4_6  and  C5_11 
REMARK    5  A    between atoms: C9_24  and  N7_25 
REMARK    6  A    between atoms: N7_25  and  C10_27 
REMARK    7  A    between atoms: N10_33  and  N11_34 
ROOT
HETATM    1  C2  UNL     1      36.832  -3.569  13.341  1.00  0.00     0.099 A 
HETATM    2  C3  UNL     1      36.989  -2.252  13.166  1.00  0.00     0.069 A 
HETATM    3  N5  UNL     1      36.082  -1.605  12.379  1.00  0.00    -0.318 N 
ATOM      4  H5  UNL     1      36.192  -0.601  12.235  1.00  0.00     0.169 HD
HETATM    5  C8  UNL     1      35.072  -2.217  11.798  1.00  0.00     0.267 A 
HETATM    6  F1  UNL     1      34.214  -1.490  11.028  1.00  0.00    -0.165 F 
HETATM    7  N6  UNL     1      34.913  -3.542  11.980  1.00  0.00    -0.303 N 
ATOM      8  H6  UNL     1      34.129  -4.019  11.533  1.00  0.00     0.171 HD
HETATM    9  C9  UNL     1      35.760  -4.243  12.733  1.00  0.00     0.141 A 
ENDROOT
BRANCH   2  10
HETATM   10  C4  UNL     1      37.972  -1.388  13.846  1.00  0.00     0.300 C 
BRANCH  10  11
HETATM   11  N2  UNL     1      37.533   0.028  13.904  1.00  0.00    -0.063 N 
ATOM     12  H23 UNL     1      37.038   0.296  13.053  1.00  0.00     0.275 HD
ATOM     13  H22 UNL     1      36.777   0.151  14.578  1.00  0.00     0.275 HD
ATOM     14  H21 UNL     1      38.305   0.666  14.097  1.00  0.00     0.275 HD
ENDBRANCH  10  11
BRANCH  10  15
HETATM   15  C5  UNL     1      39.217  -1.351  12.978  1.00  0.00     0.110 C 
HETATM   16  N3  UNL     1      40.313  -1.920  13.222  1.00  0.00    -0.376 N 
HETATM   17  C6  UNL     1      41.300  -1.682  12.187  1.00  0.00     0.140 C 
ATOM     18  H3  UNL     1      40.487  -2.484  14.054  1.00  0.00     0.160 HD
HETATM   19  C7  UNL     1      40.709  -0.575  11.339  1.00  0.00     0.140 C 
HETATM   20  N4  UNL     1      39.309  -0.653  11.757  1.00  0.00    -0.376 N 
ATOM     21  H4  UNL     1      38.520  -0.261  11.242  1.00  0.00     0.160 HD
ENDBRANCH  10  15
ENDBRANCH   2  10
BRANCH   1  22
HETATM   22  C1  UNL     1      37.787  -4.421  14.001  1.00  0.00     0.270 C 
HETATM   23  N1  UNL     1      38.921  -5.053  13.460  1.00  0.00    -0.057 NA
HETATM   24  O1  UNL     1      37.589  -4.656  15.256  1.00  0.00    -0.271 OA
ENDBRANCH   1  22
BRANCH   9  25
HETATM   25  N7  UNL     1      35.622  -5.474  12.910  1.00  0.00    -0.172 N 
ATOM     26  H7  UNL     1      35.689  -5.814  13.869  1.00  0.00     0.186 HD
BRANCH  25  27
HETATM   27  C10 UNL     1      35.382  -6.439  11.899  1.00  0.00     0.720 A 
HETATM   28  N8  UNL     1      34.360  -6.573  11.059  1.00  0.00    -0.129 N 
HETATM   29  N9  UNL     1      34.580  -7.629  10.295  1.00  0.00    -0.279 N 
ATOM     30  H8  UNL     1      33.543  -5.963  11.012  1.00  0.00     0.205 HD
HETATM   31  C11 UNL     1      35.753  -8.195  10.633  1.00  0.00     0.241 A 
ATOM     32  H9  UNL     1      33.956  -7.964   9.562  1.00  0.00     0.188 HD
HETATM   33  N10 UNL     1      36.237  -7.442  11.632  1.00  0.00    -0.086 N 
BRANCH  33  34
HETATM   34  N11 UNL     1      37.462  -7.679  12.292  1.00  0.00    -0.323 N 
ATOM     35 2H11 UNL     1      37.669  -7.392  13.249  1.00  0.00     0.178 HD
ATOM     36 1H11 UNL     1      38.270  -8.159  11.895  1.00  0.00     0.178 HD
ENDBRANCH  33  34
ENDBRANCH  25  27
ENDBRANCH   9  25
TORSDOF 7
ENDMDL
