MODEL 1
REMARK VINA RESULT: -3.244720252      0.000      0.000
REMARK  1 active torsions:
REMARK  status: ('A' for Active; 'I' for Inactive)
REMARK    1  A    between atoms: O1_2  and  N1_3 
ROOT
HETATM    1  N1  UNL     1      26.030 -16.248   8.254  1.00  0.00    -0.168 NA
HETATM    2  C2  UNL     1      24.991 -15.898   7.292  1.00  0.00     0.153 C 
HETATM    3  C3  UNL     1      24.908 -14.372   7.354  1.00  0.00     0.290 C 
HETATM    4  N2  UNL     1      25.427 -14.124   8.680  1.00  0.00     0.100 N 
HETATM    5  C4  UNL     1      25.957 -12.781   8.822  1.00  0.00     0.311 C 
HETATM    6  C5  UNL     1      26.613 -14.999   8.668  1.00  0.00     0.392 C 
ENDROOT
BRANCH   1   7
HETATM    7  O1  UNL     1      27.019 -16.978   7.671  1.00  0.00    -0.307 OA
HETATM    8  C1  UNL     1      28.178 -16.192   7.717  1.00  0.00     0.229 C 
ENDBRANCH   1   7
TORSDOF 1
ENDMDL
MODEL 2
REMARK VINA RESULT: -2.243892963      1.553      2.167
REMARK  1 active torsions:
REMARK  status: ('A' for Active; 'I' for Inactive)
REMARK    1  A    between atoms: O1_2  and  N1_3 
ROOT
HETATM    1  N1  UNL     1      26.596 -14.549   8.481  1.00  0.00    -0.168 NA
HETATM    2  C2  UNL     1      26.359 -15.984   8.363  1.00  0.00     0.153 C 
HETATM    3  C3  UNL     1      25.171 -16.100   7.406  1.00  0.00     0.290 C 
HETATM    4  N2  UNL     1      24.550 -14.806   7.584  1.00  0.00     0.100 N 
HETATM    5  C4  UNL     1      23.733 -14.427   6.447  1.00  0.00     0.311 C 
HETATM    6  C5  UNL     1      25.734 -13.932   7.509  1.00  0.00     0.392 C 
ENDROOT
BRANCH   1   7
HETATM    7  O1  UNL     1      27.875 -14.230   8.144  1.00  0.00    -0.307 OA
HETATM    8  C1  UNL     1      28.535 -15.439   7.886  1.00  0.00     0.229 C 
ENDBRANCH   1   7
TORSDOF 1
ENDMDL
MODEL 3
REMARK VINA RESULT: -2.218044009      1.731      3.148
REMARK  1 active torsions:
REMARK  status: ('A' for Active; 'I' for Inactive)
REMARK    1  A    between atoms: O1_2  and  N1_3 
ROOT
HETATM    1  N1  UNL     1      25.001 -14.673   8.267  1.00  0.00    -0.168 NA
HETATM    2  C2  UNL     1      25.976 -13.592   8.342  1.00  0.00     0.153 C 
HETATM    3  C3  UNL     1      27.315 -14.257   8.017  1.00  0.00     0.290 C 
HETATM    4  N2  UNL     1      27.034 -15.628   8.383  1.00  0.00     0.100 N 
HETATM    5  C4  UNL     1      27.907 -16.568   7.708  1.00  0.00     0.311 C 
HETATM    6  C5  UNL     1      25.718 -15.807   7.746  1.00  0.00     0.392 C 
ENDROOT
BRANCH   1   7
HETATM    7  O1  UNL     1      24.009 -14.385   7.383  1.00  0.00    -0.307 OA
HETATM    8  C1  UNL     1      24.020 -15.404   6.421  1.00  0.00     0.229 C 
ENDBRANCH   1   7
TORSDOF 1
ENDMDL
MODEL 4
REMARK VINA RESULT: -2.181283875      1.549      2.631
REMARK  1 active torsions:
REMARK  status: ('A' for Active; 'I' for Inactive)
REMARK    1  A    between atoms: O1_2  and  N1_3 
ROOT
HETATM    1  N1  UNL     1      25.529 -16.222   8.016  1.00  0.00    -0.168 NA
HETATM    2  C2  UNL     1      25.323 -14.798   8.254  1.00  0.00     0.153 C 
HETATM    3  C3  UNL     1      26.717 -14.180   8.119  1.00  0.00     0.290 C 
HETATM    4  N2  UNL     1      27.551 -15.323   8.415  1.00  0.00     0.100 N 
HETATM    5  C4  UNL     1      28.885 -15.190   7.859  1.00  0.00     0.311 C 
HETATM    6  C5  UNL     1      26.896 -16.351   7.587  1.00  0.00     0.392 C 
ENDROOT
BRANCH   1   7
HETATM    7  O1  UNL     1      24.744 -16.672   7.001  1.00  0.00    -0.307 OA
HETATM    8  C1  UNL     1      24.068 -15.556   6.491  1.00  0.00     0.229 C 
ENDBRANCH   1   7
TORSDOF 1
ENDMDL
MODEL 5
REMARK VINA RESULT: -2.034725284      1.640      2.316
REMARK  1 active torsions:
REMARK  status: ('A' for Active; 'I' for Inactive)
REMARK    1  A    between atoms: O1_2  and  N1_3 
ROOT
HETATM    1  N1  UNL     1      27.002 -14.048   7.967  1.00  0.00    -0.168 NA
HETATM    2  C2  UNL     1      26.169 -13.694   9.111  1.00  0.00     0.153 C 
HETATM    3  C3  UNL     1      24.776 -14.213   8.748  1.00  0.00     0.290 C 
HETATM    4  N2  UNL     1      24.861 -14.234   7.305  1.00  0.00     0.100 N 
HETATM    5  C4  UNL     1      23.913 -15.158   6.711  1.00  0.00     0.311 C 
HETATM    6  C5  UNL     1      26.177 -14.873   7.126  1.00  0.00     0.392 C 
ENDROOT
BRANCH   1   7
HETATM    7  O1  UNL     1      28.069 -14.801   8.346  1.00  0.00    -0.307 OA
HETATM    8  C1  UNL     1      27.905 -16.058   7.749  1.00  0.00     0.229 C 
ENDBRANCH   1   7
TORSDOF 1
ENDMDL
