MODEL 1
REMARK VINA RESULT: -3.386704322      0.000      0.000
REMARK  5 active torsions:
REMARK  status: ('A' for Active; 'I' for Inactive)
REMARK    1  A    between atoms: N1_1  and  N2_4 
REMARK    2  A    between atoms: N3_6  and  C1_8 
REMARK    3  A    between atoms: C1_8  and  C2_9 
REMARK    4  A    between atoms: C3_10  and  C4_11 
REMARK    5  A    between atoms: C4_11  and  O1_12 
ROOT
HETATM    1  N2  UNL     1      25.350 -16.662   7.588  1.00  0.00    -0.253 N 
ATOM      2  H2  UNL     1      25.592 -15.742   7.955  1.00  0.00     0.207 HD
HETATM    3  N3  UNL     1      24.536 -16.364   6.696  1.00  0.00    -0.311 N 
ATOM      4  H3  UNL     1      24.158 -17.061   6.054  1.00  0.00     0.182 HD
ENDROOT
BRANCH   3   5
HETATM    5  C1  UNL     1      24.160 -14.977   6.623  1.00  0.00     0.234 C 
BRANCH   5   6
HETATM    6  C2  UNL     1      24.882 -14.214   7.623  1.00  0.00    -0.083 C 
HETATM    7  C3  UNL     1      25.485 -13.585   8.465  1.00  0.00    -0.079 C 
BRANCH   7   8
HETATM    8  C4  UNL     1      26.235 -12.818   9.471  1.00  0.00     0.257 C 
BRANCH   8   9
HETATM    9  O1  UNL     1      26.776 -11.668   8.859  1.00  0.00    -0.389 OA
ATOM     10  H1  UNL     1      27.691 -11.825   8.662  1.00  0.00     0.210 HD
ENDBRANCH   8   9
ENDBRANCH   7   8
ENDBRANCH   5   6
ENDBRANCH   3   5
BRANCH   1  11
HETATM   11  N1  UNL     1      26.037 -17.393   8.293  1.00  0.00    -0.331 N 
ATOM     12  H12 UNL     1      26.301 -16.713   9.005  1.00  0.00     0.178 HD
ATOM     13  H11 UNL     1      26.494 -18.256   8.588  1.00  0.00     0.178 HD
ENDBRANCH   1  11
TORSDOF 5
ENDMDL
MODEL 2
REMARK VINA RESULT: -3.113534401      2.847      3.232
REMARK  5 active torsions:
REMARK  status: ('A' for Active; 'I' for Inactive)
REMARK    1  A    between atoms: N1_1  and  N2_4 
REMARK    2  A    between atoms: N3_6  and  C1_8 
REMARK    3  A    between atoms: C1_8  and  C2_9 
REMARK    4  A    between atoms: C3_10  and  C4_11 
REMARK    5  A    between atoms: C4_11  and  O1_12 
ROOT
HETATM    1  N2  UNL     1      24.392 -15.364   6.901  1.00  0.00    -0.253 N 
ATOM      2  H2  UNL     1      25.288 -15.615   7.318  1.00  0.00     0.207 HD
HETATM    3  N3  UNL     1      24.196 -14.241   7.396  1.00  0.00    -0.311 N 
ATOM      4  H3  UNL     1      23.412 -13.653   7.111  1.00  0.00     0.182 HD
ENDROOT
BRANCH   3   5
HETATM    5  C1  UNL     1      25.142 -13.818   8.396  1.00  0.00     0.234 C 
BRANCH   5   6
HETATM    6  C2  UNL     1      26.408 -14.499   8.199  1.00  0.00    -0.083 C 
HETATM    7  C3  UNL     1      27.465 -15.071   8.045  1.00  0.00    -0.079 C 
BRANCH   7   8
HETATM    8  C4  UNL     1      28.738 -15.776   7.839  1.00  0.00     0.257 C 
BRANCH   8   9
HETATM    9  O1  UNL     1      28.472 -17.046   7.283  1.00  0.00    -0.389 OA
ATOM     10  H1  UNL     1      28.618 -17.007   6.345  1.00  0.00     0.210 HD
ENDBRANCH   8   9
ENDBRANCH   7   8
ENDBRANCH   5   6
ENDBRANCH   3   5
BRANCH   1  11
HETATM   11  N1  UNL     1      24.159 -16.353   6.214  1.00  0.00    -0.331 N 
ATOM     12  H12 UNL     1      23.245 -16.593   6.598  1.00  0.00     0.178 HD
ATOM     13  H11 UNL     1      24.327 -17.066   5.504  1.00  0.00     0.178 HD
ENDBRANCH   1  11
TORSDOF 5
ENDMDL
MODEL 3
REMARK VINA RESULT: -2.921867693      2.464      2.879
REMARK  5 active torsions:
REMARK  status: ('A' for Active; 'I' for Inactive)
REMARK    1  A    between atoms: N1_1  and  N2_4 
REMARK    2  A    between atoms: N3_6  and  C1_8 
REMARK    3  A    between atoms: C1_8  and  C2_9 
REMARK    4  A    between atoms: C3_10  and  C4_11 
REMARK    5  A    between atoms: C4_11  and  O1_12 
ROOT
HETATM    1  N2  UNL     1      24.405 -15.436   6.909  1.00  0.00    -0.253 N 
ATOM      2  H2  UNL     1      25.206 -15.760   7.452  1.00  0.00     0.207 HD
HETATM    3  N3  UNL     1      24.277 -14.273   7.330  1.00  0.00    -0.311 N 
ATOM      4  H3  UNL     1      23.609 -13.620   6.920  1.00  0.00     0.182 HD
ENDROOT
BRANCH   3   5
HETATM    5  C1  UNL     1      25.128 -13.903   8.431  1.00  0.00     0.234 C 
BRANCH   5   6
HETATM    6  C2  UNL     1      26.451 -14.467   8.245  1.00  0.00    -0.083 C 
HETATM    7  C3  UNL     1      27.553 -14.948   8.090  1.00  0.00    -0.079 C 
BRANCH   7   8
HETATM    8  C4  UNL     1      28.893 -15.515   7.883  1.00  0.00     0.257 C 
BRANCH   8   9
HETATM    9  O1  UNL     1      29.797 -14.466   7.615  1.00  0.00    -0.389 OA
ATOM     10  H1  UNL     1      29.600 -13.736   8.189  1.00  0.00     0.210 HD
ENDBRANCH   8   9
ENDBRANCH   7   8
ENDBRANCH   5   6
ENDBRANCH   3   5
BRANCH   1  11
HETATM   11  N1  UNL     1      24.152 -16.429   6.236  1.00  0.00    -0.331 N 
ATOM     12  H12 UNL     1      24.813 -16.271   5.476  1.00  0.00     0.178 HD
ATOM     13  H11 UNL     1      23.685 -17.300   5.985  1.00  0.00     0.178 HD
ENDBRANCH   1  11
TORSDOF 5
ENDMDL
MODEL 4
REMARK VINA RESULT: -2.713203157      3.151      3.885
REMARK  5 active torsions:
REMARK  status: ('A' for Active; 'I' for Inactive)
REMARK    1  A    between atoms: N1_1  and  N2_4 
REMARK    2  A    between atoms: N3_6  and  C1_8 
REMARK    3  A    between atoms: C1_8  and  C2_9 
REMARK    4  A    between atoms: C3_10  and  C4_11 
REMARK    5  A    between atoms: C4_11  and  O1_12 
ROOT
HETATM    1  N2  UNL     1      27.818 -14.495   8.163  1.00  0.00    -0.253 N 
ATOM      2  H2  UNL     1      26.976 -15.023   8.390  1.00  0.00     0.207 HD
HETATM    3  N3  UNL     1      27.463 -13.336   8.440  1.00  0.00    -0.311 N 
ATOM      4  H3  UNL     1      28.115 -12.551   8.416  1.00  0.00     0.182 HD
ENDROOT
BRANCH   3   5
HETATM    5  C1  UNL     1      26.080 -13.168   8.800  1.00  0.00     0.234 C 
BRANCH   5   6
HETATM    6  C2  UNL     1      25.243 -13.993   7.949  1.00  0.00    -0.083 C 
HETATM    7  C3  UNL     1      24.547 -14.677   7.230  1.00  0.00    -0.079 C 
BRANCH   7   8
HETATM    8  C4  UNL     1      23.714 -15.526   6.367  1.00  0.00     0.257 C 
BRANCH   8   9
HETATM    9  O1  UNL     1      24.265 -16.825   6.334  1.00  0.00    -0.389 OA
ATOM     10  H1  UNL     1      23.561 -17.456   6.246  1.00  0.00     0.210 HD
ENDBRANCH   8   9
ENDBRANCH   7   8
ENDBRANCH   5   6
ENDBRANCH   3   5
BRANCH   1  11
HETATM   11  N1  UNL     1      28.568 -15.387   7.781  1.00  0.00    -0.331 N 
ATOM     12  H12 UNL     1      29.363 -14.811   7.508  1.00  0.00     0.178 HD
ATOM     13  H11 UNL     1      28.867 -16.341   7.576  1.00  0.00     0.178 HD
ENDBRANCH   1  11
TORSDOF 5
ENDMDL
MODEL 5
REMARK VINA RESULT: -2.690940441      1.189      1.371
REMARK  5 active torsions:
REMARK  status: ('A' for Active; 'I' for Inactive)
REMARK    1  A    between atoms: N1_1  and  N2_4 
REMARK    2  A    between atoms: N3_6  and  C1_8 
REMARK    3  A    between atoms: C1_8  and  C2_9 
REMARK    4  A    between atoms: C3_10  and  C4_11 
REMARK    5  A    between atoms: C4_11  and  O1_12 
ROOT
HETATM    1  N2  UNL     1      27.008 -16.664   7.632  1.00  0.00    -0.253 N 
ATOM      2  H2  UNL     1      26.918 -15.735   7.222  1.00  0.00     0.207 HD
HETATM    3  N3  UNL     1      25.816 -16.974   7.803  1.00  0.00    -0.311 N 
ATOM      4  H3  UNL     1      25.539 -17.904   8.120  1.00  0.00     0.182 HD
ENDROOT
BRANCH   3   5
HETATM    5  C1  UNL     1      24.850 -15.944   7.526  1.00  0.00     0.234 C 
BRANCH   5   6
HETATM    6  C2  UNL     1      25.231 -14.714   8.195  1.00  0.00    -0.083 C 
HETATM    7  C3  UNL     1      25.556 -13.693   8.761  1.00  0.00    -0.079 C 
BRANCH   7   8
HETATM    8  C4  UNL     1      25.958 -12.445   9.425  1.00  0.00     0.257 C 
BRANCH   8   9
HETATM    9  O1  UNL     1      27.163 -11.988   8.851  1.00  0.00    -0.389 OA
ATOM     10  H1  UNL     1      26.963 -11.318   8.209  1.00  0.00     0.210 HD
ENDBRANCH   8   9
ENDBRANCH   7   8
ENDBRANCH   5   6
ENDBRANCH   3   5
BRANCH   1  11
HETATM   11  N1  UNL     1      28.226 -16.800   7.659  1.00  0.00    -0.331 N 
ATOM     12  H12 UNL     1      28.350 -16.873   8.668  1.00  0.00     0.178 HD
ATOM     13  H11 UNL     1      29.171 -16.882   7.284  1.00  0.00     0.178 HD
ENDBRANCH   1  11
TORSDOF 5
ENDMDL
