MODEL 1
REMARK VINA RESULT: -3.285860305      0.000      0.000
REMARK  2 active torsions:
REMARK  status: ('A' for Active; 'I' for Inactive)
REMARK    1  A    between atoms: C2_2  and  O1_3 
REMARK    2  A    between atoms: C2_2  and  C3_5 
ROOT
HETATM    1  C3  UNL     1      26.726 -14.262   7.859  1.00  0.00     0.278 A 
HETATM    2  C4  UNL     1      25.833 -13.724   8.947  1.00  0.00     0.311 A 
HETATM    3  N1  UNL     1      25.395 -14.791   8.102  1.00  0.00     0.095 N 
HETATM    4  C5  UNL     1      24.364 -14.618   7.129  1.00  0.00     0.310 C 
ENDROOT
BRANCH   1   5
HETATM    5  C2  UNL     1      27.827 -15.239   8.218  1.00  0.00     0.149 C 
HETATM    6  C1  UNL     1      27.435 -16.587   7.612  1.00  0.00     0.041 C 
BRANCH   5   7
HETATM    7  O1  UNL     1      29.073 -14.827   7.822  1.00  0.00    -0.394 OA
ATOM      8  H1  UNL     1      29.540 -14.366   8.509  1.00  0.00     0.210 HD
ENDBRANCH   5   7
ENDBRANCH   1   5
TORSDOF 2
ENDMDL
MODEL 2
REMARK VINA RESULT: -3.232280536      1.932      2.420
REMARK  2 active torsions:
REMARK  status: ('A' for Active; 'I' for Inactive)
REMARK    1  A    between atoms: C2_2  and  O1_3 
REMARK    2  A    between atoms: C2_2  and  C3_5 
ROOT
HETATM    1  C3  UNL     1      25.410 -15.137   8.365  1.00  0.00     0.278 A 
HETATM    2  C4  UNL     1      24.665 -14.192   7.459  1.00  0.00     0.311 A 
HETATM    3  N1  UNL     1      25.974 -13.870   7.935  1.00  0.00     0.095 N 
HETATM    4  C5  UNL     1      26.204 -12.826   8.882  1.00  0.00     0.310 C 
ENDROOT
BRANCH   1   5
HETATM    5  C2  UNL     1      26.119 -16.335   7.767  1.00  0.00     0.149 C 
HETATM    6  C1  UNL     1      27.618 -16.098   7.953  1.00  0.00     0.041 C 
BRANCH   5   7
HETATM    7  O1  UNL     1      25.707 -17.532   8.293  1.00  0.00    -0.394 OA
ATOM      8  H1  UNL     1      25.870 -17.595   9.227  1.00  0.00     0.210 HD
ENDBRANCH   5   7
ENDBRANCH   1   5
TORSDOF 2
ENDMDL
MODEL 3
REMARK VINA RESULT: -2.757944715      1.265      1.296
REMARK  2 active torsions:
REMARK  status: ('A' for Active; 'I' for Inactive)
REMARK    1  A    between atoms: C2_2  and  O1_3 
REMARK    2  A    between atoms: C2_2  and  C3_5 
ROOT
HETATM    1  C3  UNL     1      26.855 -14.635   7.943  1.00  0.00     0.278 A 
HETATM    2  C4  UNL     1      26.079 -13.800   8.928  1.00  0.00     0.311 A 
HETATM    3  N1  UNL     1      25.455 -14.301   7.743  1.00  0.00     0.095 N 
HETATM    4  C5  UNL     1      25.065 -13.447   6.668  1.00  0.00     0.310 C 
ENDROOT
BRANCH   1   5
HETATM    5  C2  UNL     1      27.079 -16.106   8.230  1.00  0.00     0.149 C 
HETATM    6  C1  UNL     1      25.724 -16.796   8.075  1.00  0.00     0.041 C 
BRANCH   5   7
HETATM    7  O1  UNL     1      28.051 -16.672   7.447  1.00  0.00    -0.394 OA
ATOM      8  H1  UNL     1      28.759 -16.070   7.252  1.00  0.00     0.210 HD
ENDBRANCH   5   7
ENDBRANCH   1   5
TORSDOF 2
ENDMDL
MODEL 4
REMARK VINA RESULT: -2.749469875      1.395      2.011
REMARK  2 active torsions:
REMARK  status: ('A' for Active; 'I' for Inactive)
REMARK    1  A    between atoms: C2_2  and  O1_3 
REMARK    2  A    between atoms: C2_2  and  C3_5 
ROOT
HETATM    1  C3  UNL     1      26.360 -15.294   8.293  1.00  0.00     0.278 A 
HETATM    2  C4  UNL     1      25.145 -14.781   7.565  1.00  0.00     0.311 A 
HETATM    3  N1  UNL     1      26.156 -13.881   8.024  1.00  0.00     0.095 N 
HETATM    4  C5  UNL     1      25.932 -12.969   9.099  1.00  0.00     0.310 C 
ENDROOT
BRANCH   1   5
HETATM    5  C2  UNL     1      27.505 -15.888   7.499  1.00  0.00     0.149 C 
HETATM    6  C1  UNL     1      28.764 -15.115   7.894  1.00  0.00     0.041 C 
BRANCH   5   7
HETATM    7  O1  UNL     1      27.643 -17.241   7.670  1.00  0.00    -0.394 OA
ATOM      8  H1  UNL     1      27.182 -17.560   8.437  1.00  0.00     0.210 HD
ENDBRANCH   5   7
ENDBRANCH   1   5
TORSDOF 2
ENDMDL
MODEL 5
REMARK VINA RESULT: -2.510196762      2.499      2.930
REMARK  2 active torsions:
REMARK  status: ('A' for Active; 'I' for Inactive)
REMARK    1  A    between atoms: C2_2  and  O1_3 
REMARK    2  A    between atoms: C2_2  and  C3_5 
ROOT
HETATM    1  C3  UNL     1      24.860 -14.563   7.640  1.00  0.00     0.278 A 
HETATM    2  C4  UNL     1      25.230 -13.365   6.804  1.00  0.00     0.311 A 
HETATM    3  N1  UNL     1      26.026 -13.745   7.929  1.00  0.00     0.095 N 
HETATM    4  C5  UNL     1      26.078 -12.964   9.123  1.00  0.00     0.310 C 
ENDROOT
BRANCH   1   5
HETATM    5  C2  UNL     1      25.217 -15.951   7.148  1.00  0.00     0.149 C 
HETATM    6  C1  UNL     1      25.927 -16.659   8.302  1.00  0.00     0.041 C 
BRANCH   5   7
HETATM    7  O1  UNL     1      24.139 -16.657   6.680  1.00  0.00    -0.394 OA
ATOM      8  H1  UNL     1      23.790 -16.298   5.873  1.00  0.00     0.210 HD
ENDBRANCH   5   7
ENDBRANCH   1   5
TORSDOF 2
ENDMDL
