MODEL 1
REMARK VINA RESULT: -2.194807827      0.000      0.000
REMARK  2 active torsions:
REMARK  status: ('A' for Active; 'I' for Inactive)
REMARK    1  A    between atoms: C4_5  and  C5_6 
REMARK    2  A    between atoms: C5_6  and  N2_7 
ROOT
HETATM    1  C1  UNL     1      23.634 -14.923   6.412  1.00  0.00     0.309 C 
HETATM    2  N1  UNL     1      24.545 -14.915   7.516  1.00  0.00     0.084 N 
HETATM    3  C2  UNL     1      25.214 -13.643   7.694  1.00  0.00     0.272 C 
HETATM    4  C3  UNL     1      26.555 -14.018   8.293  1.00  0.00     0.038 C 
HETATM    5  C4  UNL     1      26.584 -15.513   8.371  1.00  0.00     0.041 C 
HETATM    6  C6  UNL     1      25.588 -15.896   7.274  1.00  0.00     0.278 C 
ENDROOT
BRANCH   5   7
HETATM    7  C5  UNL     1      27.919 -16.094   7.966  1.00  0.00     0.236 C 
BRANCH   7   8
HETATM    8  N2  UNL     1      28.816 -14.957   7.775  1.00  0.00    -0.079 N 
ATOM      9  H23 UNL     1      29.311 -14.977   6.883  1.00  0.00     0.274 HD
ATOM     10  H22 UNL     1      28.327 -14.075   7.627  1.00  0.00     0.274 HD
ATOM     11  H21 UNL     1      29.437 -14.947   8.584  1.00  0.00     0.274 HD
ENDBRANCH   7   8
ENDBRANCH   5   7
TORSDOF 2
ENDMDL
MODEL 2
REMARK VINA RESULT: -1.982152808      1.090      3.676
REMARK  2 active torsions:
REMARK  status: ('A' for Active; 'I' for Inactive)
REMARK    1  A    between atoms: C4_5  and  C5_6 
REMARK    2  A    between atoms: C5_6  and  N2_7 
ROOT
HETATM    1  C1  UNL     1      29.078 -15.114   7.755  1.00  0.00     0.309 C 
HETATM    2  N1  UNL     1      27.802 -15.392   8.339  1.00  0.00     0.084 N 
HETATM    3  C2  UNL     1      27.213 -16.625   7.862  1.00  0.00     0.272 C 
HETATM    4  C3  UNL     1      25.721 -16.370   7.939  1.00  0.00     0.038 C 
HETATM    5  C4  UNL     1      25.553 -14.961   8.415  1.00  0.00     0.041 C 
HETATM    6  C6  UNL     1      26.877 -14.330   7.978  1.00  0.00     0.278 C 
ENDROOT
BRANCH   5   7
HETATM    7  C5  UNL     1      24.459 -14.221   7.682  1.00  0.00     0.236 C 
BRANCH   7   8
HETATM    8  N2  UNL     1      24.033 -15.100   6.595  1.00  0.00    -0.079 N 
ATOM      9  H23 UNL     1      23.855 -16.059   6.894  1.00  0.00     0.274 HD
ATOM     10  H22 UNL     1      23.093 -14.899   6.255  1.00  0.00     0.274 HD
ATOM     11  H21 UNL     1      24.750 -15.026   5.873  1.00  0.00     0.274 HD
ENDBRANCH   7   8
ENDBRANCH   5   7
TORSDOF 2
ENDMDL
MODEL 3
REMARK VINA RESULT: -1.798713561      1.755      3.023
REMARK  2 active torsions:
REMARK  status: ('A' for Active; 'I' for Inactive)
REMARK    1  A    between atoms: C4_5  and  C5_6 
REMARK    2  A    between atoms: C5_6  and  N2_7 
ROOT
HETATM    1  C1  UNL     1      27.027 -17.047   7.823  1.00  0.00     0.309 C 
HETATM    2  N1  UNL     1      25.991 -16.126   8.176  1.00  0.00     0.084 N 
HETATM    3  C2  UNL     1      24.946 -16.032   7.177  1.00  0.00     0.272 C 
HETATM    4  C3  UNL     1      24.444 -14.608   7.309  1.00  0.00     0.038 C 
HETATM    5  C4  UNL     1      25.286 -13.954   8.360  1.00  0.00     0.041 C 
HETATM    6  C6  UNL     1      26.563 -14.796   8.297  1.00  0.00     0.278 C 
ENDROOT
BRANCH   5   7
HETATM    7  C5  UNL     1      25.682 -12.541   7.997  1.00  0.00     0.236 C 
BRANCH   7   8
HETATM    8  N2  UNL     1      26.641 -12.115   9.012  1.00  0.00    -0.079 N 
ATOM      9  H23 UNL     1      26.758 -12.788   9.769  1.00  0.00     0.274 HD
ATOM     10  H22 UNL     1      27.608 -12.125   8.687  1.00  0.00     0.274 HD
ATOM     11  H21 UNL     1      26.329 -11.197   9.329  1.00  0.00     0.274 HD
ENDBRANCH   7   8
ENDBRANCH   5   7
TORSDOF 2
ENDMDL
MODEL 4
REMARK VINA RESULT: -1.761605530      1.676      2.463
REMARK  2 active torsions:
REMARK  status: ('A' for Active; 'I' for Inactive)
REMARK    1  A    between atoms: C4_5  and  C5_6 
REMARK    2  A    between atoms: C5_6  and  N2_7 
ROOT
HETATM    1  C1  UNL     1      23.734 -15.929   6.334  1.00  0.00     0.309 C 
HETATM    2  N1  UNL     1      24.997 -15.479   6.835  1.00  0.00     0.084 N 
HETATM    3  C2  UNL     1      25.573 -16.373   7.817  1.00  0.00     0.272 C 
HETATM    4  C3  UNL     1      26.378 -15.456   8.716  1.00  0.00     0.038 C 
HETATM    5  C4  UNL     1      26.161 -14.064   8.209  1.00  0.00     0.041 C 
HETATM    6  C6  UNL     1      24.811 -14.202   7.502  1.00  0.00     0.278 C 
ENDROOT
BRANCH   5   7
HETATM    7  C5  UNL     1      25.967 -13.060   9.321  1.00  0.00     0.236 C 
BRANCH   7   8
HETATM    8  N2  UNL     1      26.594 -11.822   8.865  1.00  0.00    -0.079 N 
ATOM      9  H23 UNL     1      27.532 -11.679   9.240  1.00  0.00     0.274 HD
ATOM     10  H22 UNL     1      26.856 -11.838   7.879  1.00  0.00     0.274 HD
ATOM     11  H21 UNL     1      25.944 -11.071   9.100  1.00  0.00     0.274 HD
ENDBRANCH   7   8
ENDBRANCH   5   7
TORSDOF 2
ENDMDL
MODEL 5
REMARK VINA RESULT: -1.633798385      0.972      1.013
REMARK  2 active torsions:
REMARK  status: ('A' for Active; 'I' for Inactive)
REMARK    1  A    between atoms: C4_5  and  C5_6 
REMARK    2  A    between atoms: C5_6  and  N2_7 
ROOT
HETATM    1  C1  UNL     1      23.976 -16.254   6.519  1.00  0.00     0.309 C 
HETATM    2  N1  UNL     1      24.631 -15.444   7.500  1.00  0.00     0.084 N 
HETATM    3  C2  UNL     1      24.625 -14.034   7.171  1.00  0.00     0.272 C 
HETATM    4  C3  UNL     1      25.900 -13.508   7.802  1.00  0.00     0.038 C 
HETATM    5  C4  UNL     1      26.589 -14.686   8.417  1.00  0.00     0.041 C 
HETATM    6  C6  UNL     1      26.026 -15.840   7.583  1.00  0.00     0.278 C 
ENDROOT
BRANCH   5   7
HETATM    7  C5  UNL     1      28.082 -14.676   8.189  1.00  0.00     0.236 C 
BRANCH   7   8
HETATM    8  N2  UNL     1      28.428 -16.006   7.695  1.00  0.00    -0.079 N 
ATOM      9  H23 UNL     1      27.619 -16.615   7.568  1.00  0.00     0.274 HD
ATOM     10  H22 UNL     1      28.740 -16.011   6.724  1.00  0.00     0.274 HD
ATOM     11  H21 UNL     1      29.119 -16.380   8.346  1.00  0.00     0.274 HD
ENDBRANCH   7   8
ENDBRANCH   5   7
TORSDOF 2
ENDMDL
