MODEL 1
REMARK VINA RESULT: -5.488203924      0.000      0.000
REMARK  9 active torsions:
REMARK  status: ('A' for Active; 'I' for Inactive)
REMARK    1  A    between atoms: C2_2  and  N1_3 
REMARK    2  A    between atoms: C2_2  and  C3_7 
REMARK    3  A    between atoms: C3_7  and  N3_11 
REMARK    4  A    between atoms: N3_11  and  C4_13 
REMARK    5  A    between atoms: C4_13  and  O1_14 
REMARK    6  A    between atoms: O1_14  and  C5_15 
REMARK    7  A    between atoms: C7_24  and  N7_25 
REMARK    8  A    between atoms: N7_25  and  N8_27 
REMARK    9  A    between atoms: C10_36  and  O4_37 
ROOT
HETATM    1  C4  UNL     1       1.032  59.065  25.808  1.00  0.00     0.292 C 
HETATM    2  O2  UNL     1       0.832  58.240  24.697  1.00  0.00    -0.261 OA
HETATM    3  C6  UNL     1       0.903  56.842  24.714  1.00  0.00     0.248 A 
HETATM    4  N6  UNL     1       0.566  56.112  23.625  1.00  0.00    -0.153 N 
ATOM      5  H6  UNL     1       0.253  56.577  22.774  1.00  0.00     0.188 HD
HETATM    6  C7  UNL     1       0.645  54.772  23.670  1.00  0.00     0.703 A 
HETATM    7  N9  UNL     1       1.065  54.212  24.819  1.00  0.00    -0.139 N 
ATOM      8  H9  UNL     1       1.130  53.195  24.868  1.00  0.00     0.189 HD
HETATM    9  C8  UNL     1       1.402  54.930  25.904  1.00  0.00     0.344 A 
HETATM   10  O3  UNL     1       1.790  54.371  26.959  1.00  0.00    -0.246 OA
HETATM   11  N10 UNL     1       1.323  56.281  25.860  1.00  0.00    -0.261 N 
HETATM   12  C9  UNL     1       1.687  57.086  27.035  1.00  0.00     0.176 C 
HETATM   13  C10 UNL     1       0.725  58.281  27.060  1.00  0.00     0.223 C 
ENDROOT
BRANCH   1  14
HETATM   14  N3  UNL     1       0.114  60.199  25.665  1.00  0.00    -0.321 N 
ATOM     15  H3  UNL     1       0.194  60.991  26.304  1.00  0.00     0.166 HD
BRANCH  14  16
HETATM   16  C3  UNL     1      -0.883  60.220  24.655  1.00  0.00     0.105 C 
HETATM   17  N2  UNL     1      -1.876  59.385  24.766  1.00  0.00    -0.387 N 
ATOM     18  H22 UNL     1      -2.592  59.400  24.040  1.00  0.00     0.157 HD
ATOM     19  H21 UNL     1      -1.930  58.741  25.555  1.00  0.00     0.157 HD
BRANCH  16  20
HETATM   20  C2  UNL     1      -0.805  61.149  23.519  1.00  0.00     0.245 C 
HETATM   21  C1  UNL     1      -2.101  61.181  22.728  1.00  0.00     0.048 C 
BRANCH  20  22
HETATM   22  N1  UNL     1      -0.383  62.479  23.918  1.00  0.00    -0.069 N 
ATOM     23  H13 UNL     1      -0.059  63.022  23.118  1.00  0.00     0.275 HD
ATOM     24  H12 UNL     1      -1.179  63.055  24.191  1.00  0.00     0.275 HD
ATOM     25  H11 UNL     1       0.322  62.448  24.655  1.00  0.00     0.275 HD
ENDBRANCH  20  22
ENDBRANCH  16  20
ENDBRANCH  14  16
ENDBRANCH   1  14
BRANCH   1  26
HETATM   26  O1  UNL     1       2.371  59.534  25.891  1.00  0.00    -0.264 OA
BRANCH  26  27
HETATM   27  C5  UNL     1       2.744  60.589  25.080  1.00  0.00     0.229 C 
HETATM   28  N4  UNL     1       3.309  60.359  23.948  1.00  0.00    -0.368 N 
ATOM     29  H42 UNL     1       3.474  59.393  23.662  1.00  0.00     0.159 HD
ATOM     30  H41 UNL     1       3.584  61.138  23.349  1.00  0.00     0.159 HD
HETATM   31  N5  UNL     1       2.510  61.954  25.483  1.00  0.00    -0.056 NA
ENDBRANCH  26  27
ENDBRANCH   1  26
BRANCH  13  32
HETATM   32  O4  UNL     1      -0.564  57.746  26.946  1.00  0.00    -0.386 OA
ATOM     33  H4  UNL     1      -0.798  57.343  27.774  1.00  0.00     0.210 HD
ENDBRANCH  13  32
BRANCH   6  34
HETATM   34  N7  UNL     1       0.325  54.035  22.635  1.00  0.00    -0.138 N 
ATOM     35  H7  UNL     1       0.070  53.054  22.753  1.00  0.00     0.205 HD
BRANCH  34  36
HETATM   36  N8  UNL     1       0.339  54.615  21.378  1.00  0.00    -0.331 N 
ATOM     37  H82 UNL     1      -0.199  55.466  21.208  1.00  0.00     0.177 HD
ATOM     38  H81 UNL     1       0.891  54.175  20.641  1.00  0.00     0.177 HD
ENDBRANCH  34  36
ENDBRANCH   6  34
TORSDOF 9
ENDMDL
MODEL 2
REMARK VINA RESULT: -5.450624086      2.027      6.326
REMARK  9 active torsions:
REMARK  status: ('A' for Active; 'I' for Inactive)
REMARK    1  A    between atoms: C2_2  and  N1_3 
REMARK    2  A    between atoms: C2_2  and  C3_7 
REMARK    3  A    between atoms: C3_7  and  N3_11 
REMARK    4  A    between atoms: N3_11  and  C4_13 
REMARK    5  A    between atoms: C4_13  and  O1_14 
REMARK    6  A    between atoms: O1_14  and  C5_15 
REMARK    7  A    between atoms: C7_24  and  N7_25 
REMARK    8  A    between atoms: N7_25  and  N8_27 
REMARK    9  A    between atoms: C10_36  and  O4_37 
ROOT
HETATM    1  C4  UNL     1      -0.156  56.002  26.261  1.00  0.00     0.292 C 
HETATM    2  O2  UNL     1       0.973  56.764  25.949  1.00  0.00    -0.261 OA
HETATM    3  C6  UNL     1       0.977  58.153  25.770  1.00  0.00     0.248 A 
HETATM    4  N6  UNL     1       2.135  58.832  25.600  1.00  0.00    -0.153 N 
ATOM      5  H6  UNL     1       3.025  58.334  25.600  1.00  0.00     0.188 HD
HETATM    6  C7  UNL     1       2.109  60.164  25.431  1.00  0.00     0.703 A 
HETATM    7  N9  UNL     1       0.907  60.768  25.439  1.00  0.00    -0.139 N 
ATOM      8  H9  UNL     1       0.870  61.779  25.311  1.00  0.00     0.189 HD
HETATM    9  C8  UNL     1      -0.248  60.100  25.607  1.00  0.00     0.344 A 
HETATM   10  O3  UNL     1      -1.351  60.700  25.608  1.00  0.00    -0.246 OA
HETATM   11  N10 UNL     1      -0.223  58.758  25.777  1.00  0.00    -0.261 N 
HETATM   12  C9  UNL     1      -1.473  58.008  25.962  1.00  0.00     0.176 C 
HETATM   13  C10 UNL     1      -1.164  56.882  26.959  1.00  0.00     0.223 C 
ENDROOT
BRANCH   1  14
HETATM   14  N3  UNL     1       0.293  54.922  27.147  1.00  0.00    -0.321 N 
ATOM     15  H3  UNL     1      -0.372  54.206  27.439  1.00  0.00     0.166 HD
BRANCH  14  16
HETATM   16  C3  UNL     1       1.635  54.853  27.605  1.00  0.00     0.105 C 
HETATM   17  N2  UNL     1       2.070  55.826  28.353  1.00  0.00    -0.387 N 
ATOM     18  H22 UNL     1       3.034  55.777  28.682  1.00  0.00     0.157 HD
ATOM     19  H21 UNL     1       1.464  56.609  28.598  1.00  0.00     0.157 HD
BRANCH  16  20
HETATM   20  C2  UNL     1       2.509  53.726  27.253  1.00  0.00     0.245 C 
HETATM   21  C1  UNL     1       3.544  53.458  28.332  1.00  0.00     0.048 C 
BRANCH  20  22
HETATM   22  N1  UNL     1       1.760  52.529  26.913  1.00  0.00    -0.069 N 
ATOM     23  H13 UNL     1       2.383  51.748  26.709  1.00  0.00     0.275 HD
ATOM     24  H12 UNL     1       1.284  52.145  27.730  1.00  0.00     0.275 HD
ATOM     25  H11 UNL     1       1.109  52.695  26.147  1.00  0.00     0.275 HD
ENDBRANCH  20  22
ENDBRANCH  16  20
ENDBRANCH  14  16
ENDBRANCH   1  14
BRANCH   1  26
HETATM   26  O1  UNL     1      -0.769  55.452  25.102  1.00  0.00    -0.264 OA
BRANCH  26  27
HETATM   27  C5  UNL     1      -0.026  54.590  24.318  1.00  0.00     0.229 C 
HETATM   28  N4  UNL     1       0.725  55.057  23.385  1.00  0.00    -0.368 N 
ATOM     29  H42 UNL     1       0.761  56.066  23.235  1.00  0.00     0.159 HD
ATOM     30  H41 UNL     1       1.273  54.420  22.806  1.00  0.00     0.159 HD
HETATM   31  N5  UNL     1      -0.078  53.164  24.530  1.00  0.00    -0.056 NA
ENDBRANCH  26  27
ENDBRANCH   1  26
BRANCH  13  32
HETATM   32  O4  UNL     1      -0.540  57.492  28.054  1.00  0.00    -0.386 OA
ATOM     33  H4  UNL     1      -1.204  57.927  28.576  1.00  0.00     0.210 HD
ENDBRANCH  13  32
BRANCH   6  34
HETATM   34  N7  UNL     1       3.211  60.852  25.265  1.00  0.00    -0.138 N 
ATOM     35  H7  UNL     1       3.706  61.244  26.066  1.00  0.00     0.205 HD
BRANCH  34  36
HETATM   36  N8  UNL     1       3.692  61.035  23.979  1.00  0.00    -0.331 N 
ATOM     37  H82 UNL     1       3.119  60.761  23.182  1.00  0.00     0.177 HD
ATOM     38  H81 UNL     1       4.619  61.444  23.857  1.00  0.00     0.177 HD
ENDBRANCH  34  36
ENDBRANCH   6  34
TORSDOF 9
ENDMDL
MODEL 3
REMARK VINA RESULT: -5.412715335      2.168      6.439
REMARK  9 active torsions:
REMARK  status: ('A' for Active; 'I' for Inactive)
REMARK    1  A    between atoms: C2_2  and  N1_3 
REMARK    2  A    between atoms: C2_2  and  C3_7 
REMARK    3  A    between atoms: C3_7  and  N3_11 
REMARK    4  A    between atoms: N3_11  and  C4_13 
REMARK    5  A    between atoms: C4_13  and  O1_14 
REMARK    6  A    between atoms: O1_14  and  C5_15 
REMARK    7  A    between atoms: C7_24  and  N7_25 
REMARK    8  A    between atoms: N7_25  and  N8_27 
REMARK    9  A    between atoms: C10_36  and  O4_37 
ROOT
HETATM    1  C4  UNL     1       0.900  55.322  25.990  1.00  0.00     0.292 C 
HETATM    2  O2  UNL     1       1.543  56.458  25.489  1.00  0.00    -0.261 OA
HETATM    3  C6  UNL     1       1.092  57.773  25.655  1.00  0.00     0.248 A 
HETATM    4  N6  UNL     1       1.842  58.825  25.253  1.00  0.00    -0.153 N 
ATOM      5  H6  UNL     1       2.752  58.669  24.821  1.00  0.00     0.188 HD
HETATM    6  C7  UNL     1       1.384  60.076  25.425  1.00  0.00     0.703 A 
HETATM    7  N9  UNL     1       0.177  60.222  25.999  1.00  0.00    -0.139 N 
ATOM      8  H9  UNL     1      -0.185  61.165  26.136  1.00  0.00     0.189 HD
HETATM    9  C8  UNL     1      -0.575  59.182  26.401  1.00  0.00     0.344 A 
HETATM   10  O3  UNL     1      -1.698  59.359  26.934  1.00  0.00    -0.246 OA
HETATM   11  N10 UNL     1      -0.114  57.921  26.228  1.00  0.00    -0.261 N 
HETATM   12  C9  UNL     1      -0.919  56.770  26.660  1.00  0.00     0.176 C 
HETATM   13  C10 UNL     1       0.069  55.719  27.185  1.00  0.00     0.223 C 
ENDROOT
BRANCH   1  14
HETATM   14  N3  UNL     1       1.951  54.376  26.376  1.00  0.00    -0.321 N 
ATOM     15  H3  UNL     1       2.892  54.493  26.000  1.00  0.00     0.166 HD
BRANCH  14  16
HETATM   16  C3  UNL     1       1.686  53.300  27.263  1.00  0.00     0.105 C 
HETATM   17  N2  UNL     1       0.869  52.369  26.860  1.00  0.00    -0.387 N 
ATOM     18  H22 UNL     1       0.679  51.596  27.498  1.00  0.00     0.157 HD
ATOM     19  H21 UNL     1       0.437  52.417  25.938  1.00  0.00     0.157 HD
BRANCH  16  20
HETATM   20  C2  UNL     1       2.308  53.230  28.593  1.00  0.00     0.245 C 
HETATM   21  C1  UNL     1       3.633  53.973  28.634  1.00  0.00     0.048 C 
BRANCH  20  22
HETATM   22  N1  UNL     1       1.411  53.667  29.648  1.00  0.00    -0.069 N 
ATOM     23  H13 UNL     1       1.476  53.060  30.465  1.00  0.00     0.275 HD
ATOM     24  H12 UNL     1       1.732  54.539  30.070  1.00  0.00     0.275 HD
ATOM     25  H11 UNL     1       0.449  53.747  29.319  1.00  0.00     0.275 HD
ENDBRANCH  20  22
ENDBRANCH  16  20
ENDBRANCH  14  16
ENDBRANCH   1  14
BRANCH   1  26
HETATM   26  O1  UNL     1       0.041  54.724  25.027  1.00  0.00    -0.264 OA
BRANCH  26  27
HETATM   27  C5  UNL     1       0.608  54.219  23.872  1.00  0.00     0.229 C 
HETATM   28  N4  UNL     1       0.704  54.962  22.827  1.00  0.00    -0.368 N 
ATOM     29  H42 UNL     1       0.358  55.921  22.865  1.00  0.00     0.159 HD
ATOM     30  H41 UNL     1       1.123  54.588  21.975  1.00  0.00     0.159 HD
HETATM   31  N5  UNL     1       1.098  52.864  23.819  1.00  0.00    -0.056 NA
ENDBRANCH  26  27
ENDBRANCH   1  26
BRANCH  13  32
HETATM   32  O4  UNL     1       0.893  56.383  28.101  1.00  0.00    -0.386 OA
ATOM     33  H4  UNL     1       0.411  56.505  28.910  1.00  0.00     0.210 HD
ENDBRANCH  13  32
BRANCH   6  34
HETATM   34  N7  UNL     1       2.085  61.116  25.047  1.00  0.00    -0.138 N 
ATOM     35  H7  UNL     1       1.714  62.060  25.156  1.00  0.00     0.205 HD
BRANCH  34  36
HETATM   36  N8  UNL     1       3.339  60.908  24.498  1.00  0.00    -0.331 N 
ATOM     37  H82 UNL     1       3.421  60.505  23.565  1.00  0.00     0.177 HD
ATOM     38  H81 UNL     1       4.161  61.166  25.045  1.00  0.00     0.177 HD
ENDBRANCH  34  36
ENDBRANCH   6  34
TORSDOF 9
ENDMDL
MODEL 4
REMARK VINA RESULT: -5.326331478      1.522      1.789
REMARK  9 active torsions:
REMARK  status: ('A' for Active; 'I' for Inactive)
REMARK    1  A    between atoms: C2_2  and  N1_3 
REMARK    2  A    between atoms: C2_2  and  C3_7 
REMARK    3  A    between atoms: C3_7  and  N3_11 
REMARK    4  A    between atoms: N3_11  and  C4_13 
REMARK    5  A    between atoms: C4_13  and  O1_14 
REMARK    6  A    between atoms: O1_14  and  C5_15 
REMARK    7  A    between atoms: C7_24  and  N7_25 
REMARK    8  A    between atoms: N7_25  and  N8_27 
REMARK    9  A    between atoms: C10_36  and  O4_37 
ROOT
HETATM    1  C4  UNL     1       0.117  59.878  25.464  1.00  0.00     0.292 C 
HETATM    2  O2  UNL     1       0.501  58.853  24.594  1.00  0.00    -0.261 OA
HETATM    3  C6  UNL     1       0.514  57.491  24.917  1.00  0.00     0.248 A 
HETATM    4  N6  UNL     1       0.773  56.552  23.978  1.00  0.00    -0.153 N 
ATOM      5  H6  UNL     1       0.963  56.830  23.015  1.00  0.00     0.188 HD
HETATM    6  C7  UNL     1       0.779  55.252  24.317  1.00  0.00     0.703 A 
HETATM    7  N9  UNL     1       0.523  54.944  25.601  1.00  0.00    -0.139 N 
ATOM      8  H9  UNL     1       0.524  53.961  25.874  1.00  0.00     0.189 HD
HETATM    9  C8  UNL     1       0.266  55.871  26.540  1.00  0.00     0.344 A 
HETATM   10  O3  UNL     1       0.031  55.543  27.729  1.00  0.00    -0.246 OA
HETATM   11  N10 UNL     1       0.259  57.180  26.200  1.00  0.00    -0.261 N 
HETATM   12  C9  UNL     1      -0.019  58.210  27.210  1.00  0.00     0.176 C 
HETATM   13  C10 UNL     1      -0.820  59.312  26.502  1.00  0.00     0.223 C 
ENDROOT
BRANCH   1  14
HETATM   14  N3  UNL     1      -0.560  60.893  24.650  1.00  0.00    -0.321 N 
ATOM     15  H3  UNL     1      -0.411  60.905  23.640  1.00  0.00     0.166 HD
BRANCH  14  16
HETATM   16  C3  UNL     1      -1.417  61.860  25.237  1.00  0.00     0.105 C 
HETATM   17  N2  UNL     1      -0.886  62.724  26.053  1.00  0.00    -0.387 N 
ATOM     18  H22 UNL     1      -1.502  63.418  26.476  1.00  0.00     0.157 HD
ATOM     19  H21 UNL     1       0.112  62.703  26.260  1.00  0.00     0.157 HD
BRANCH  16  20
HETATM   20  C2  UNL     1      -2.855  61.891  24.940  1.00  0.00     0.245 C 
HETATM   21  C1  UNL     1      -3.174  61.194  23.628  1.00  0.00     0.048 C 
BRANCH  20  22
HETATM   22  N1  UNL     1      -3.659  61.377  26.034  1.00  0.00    -0.069 N 
ATOM     23  H13 UNL     1      -4.577  61.072  25.709  1.00  0.00     0.275 HD
ATOM     24  H12 UNL     1      -3.302  60.481  26.368  1.00  0.00     0.275 HD
ATOM     25  H11 UNL     1      -3.740  62.051  26.794  1.00  0.00     0.275 HD
ENDBRANCH  20  22
ENDBRANCH  16  20
ENDBRANCH  14  16
ENDBRANCH   1  14
BRANCH   1  26
HETATM   26  O1  UNL     1       1.229  60.458  26.133  1.00  0.00    -0.264 OA
BRANCH  26  27
HETATM   27  C5  UNL     1       2.146  61.166  25.380  1.00  0.00     0.229 C 
HETATM   28  N4  UNL     1       2.974  60.540  24.620  1.00  0.00    -0.368 N 
ATOM     29  H42 UNL     1       2.940  59.521  24.584  1.00  0.00     0.159 HD
ATOM     30  H41 UNL     1       3.650  61.064  24.065  1.00  0.00     0.159 HD
HETATM   31  N5  UNL     1       2.192  62.607  25.431  1.00  0.00    -0.056 NA
ENDBRANCH  26  27
ENDBRANCH   1  26
BRANCH  13  32
HETATM   32  O4  UNL     1      -1.875  58.666  25.847  1.00  0.00    -0.386 OA
ATOM     33  H4  UNL     1      -1.796  57.731  25.995  1.00  0.00     0.210 HD
ENDBRANCH  13  32
BRANCH   6  34
HETATM   34  N7  UNL     1       1.025  54.318  23.432  1.00  0.00    -0.138 N 
ATOM     35  H7  UNL     1       1.585  53.502  23.679  1.00  0.00     0.205 HD
BRANCH  34  36
HETATM   36  N8  UNL     1       0.509  54.461  22.155  1.00  0.00    -0.331 N 
ATOM     37  H82 UNL     1      -0.493  54.607  22.029  1.00  0.00     0.177 HD
ATOM     38  H81 UNL     1       1.147  54.416  21.360  1.00  0.00     0.177 HD
ENDBRANCH  34  36
ENDBRANCH   6  34
TORSDOF 9
ENDMDL
MODEL 5
REMARK VINA RESULT: -5.294007942      1.935      6.045
REMARK  9 active torsions:
REMARK  status: ('A' for Active; 'I' for Inactive)
REMARK    1  A    between atoms: C2_2  and  N1_3 
REMARK    2  A    between atoms: C2_2  and  C3_7 
REMARK    3  A    between atoms: C3_7  and  N3_11 
REMARK    4  A    between atoms: N3_11  and  C4_13 
REMARK    5  A    between atoms: C4_13  and  O1_14 
REMARK    6  A    between atoms: O1_14  and  C5_15 
REMARK    7  A    between atoms: C7_24  and  N7_25 
REMARK    8  A    between atoms: N7_25  and  N8_27 
REMARK    9  A    between atoms: C10_36  and  O4_37 
ROOT
HETATM    1  C4  UNL     1      -0.163  56.692  25.814  1.00  0.00     0.292 C 
HETATM    2  O2  UNL     1      -0.942  57.667  25.186  1.00  0.00    -0.261 OA
HETATM    3  C6  UNL     1      -0.517  58.971  24.900  1.00  0.00     0.248 A 
HETATM    4  N6  UNL     1      -1.286  59.812  24.171  1.00  0.00    -0.153 N 
ATOM      5  H6  UNL     1      -2.191  59.503  23.818  1.00  0.00     0.188 HD
HETATM    6  C7  UNL     1      -0.853  61.057  23.912  1.00  0.00     0.703 A 
HETATM    7  N9  UNL     1       0.348  61.412  24.403  1.00  0.00    -0.139 N 
ATOM      8  H9  UNL     1       0.690  62.354  24.216  1.00  0.00     0.189 HD
HETATM    9  C8  UNL     1       1.117  60.582  25.129  1.00  0.00     0.344 A 
HETATM   10  O3  UNL     1       2.233  60.950  25.570  1.00  0.00    -0.246 OA
HETATM   11  N10 UNL     1       0.682  59.327  25.390  1.00  0.00    -0.261 N 
HETATM   12  C9  UNL     1       1.507  58.403  26.181  1.00  0.00     0.176 C 
HETATM   13  C10 UNL     1       1.295  57.006  25.582  1.00  0.00     0.223 C 
ENDROOT
BRANCH   1  14
HETATM   14  N3  UNL     1      -0.522  55.406  25.207  1.00  0.00    -0.321 N 
ATOM     15  H3  UNL     1      -1.308  55.362  24.559  1.00  0.00     0.166 HD
BRANCH  14  16
HETATM   16  C3  UNL     1       0.202  54.222  25.503  1.00  0.00     0.105 C 
HETATM   17  N2  UNL     1       0.130  53.755  26.716  1.00  0.00    -0.387 N 
ATOM     18  H22 UNL     1       0.651  52.904  26.928  1.00  0.00     0.157 HD
ATOM     19  H21 UNL     1      -0.429  54.227  27.426  1.00  0.00     0.157 HD
BRANCH  16  20
HETATM   20  C2  UNL     1       1.008  53.540  24.481  1.00  0.00     0.245 C 
HETATM   21  C1  UNL     1       0.643  52.070  24.363  1.00  0.00     0.048 C 
BRANCH  20  22
HETATM   22  N1  UNL     1       0.958  54.213  23.196  1.00  0.00    -0.069 N 
ATOM     23  H13 UNL     1       0.048  54.097  22.751  1.00  0.00     0.275 HD
ATOM     24  H12 UNL     1       0.954  55.227  23.307  1.00  0.00     0.275 HD
ATOM     25  H11 UNL     1       1.714  53.911  22.580  1.00  0.00     0.275 HD
ENDBRANCH  20  22
ENDBRANCH  16  20
ENDBRANCH  14  16
ENDBRANCH   1  14
BRANCH   1  26
HETATM   26  O1  UNL     1      -0.393  56.645  27.217  1.00  0.00    -0.264 OA
BRANCH  26  27
HETATM   27  C5  UNL     1      -1.700  56.667  27.664  1.00  0.00     0.229 C 
HETATM   28  N4  UNL     1      -2.250  57.784  27.983  1.00  0.00    -0.368 N 
ATOM     29  H42 UNL     1      -1.709  58.645  27.901  1.00  0.00     0.159 HD
ATOM     30  H41 UNL     1      -3.215  57.800  28.314  1.00  0.00     0.159 HD
HETATM   31  N5  UNL     1      -2.464  55.449  27.781  1.00  0.00    -0.056 NA
ENDBRANCH  26  27
ENDBRANCH   1  26
BRANCH  13  32
HETATM   32  O4  UNL     1       1.509  57.136  24.205  1.00  0.00    -0.386 OA
ATOM     33  H4  UNL     1       1.614  58.058  24.001  1.00  0.00     0.210 HD
ENDBRANCH  13  32
BRANCH   6  34
HETATM   34  N7  UNL     1      -1.572  61.896  23.209  1.00  0.00    -0.138 N 
ATOM     35  H7  UNL     1      -2.501  62.177  23.525  1.00  0.00     0.205 HD
BRANCH  34  36
HETATM   36  N8  UNL     1      -1.047  62.395  22.029  1.00  0.00    -0.331 N 
ATOM     37  H82 UNL     1      -0.143  62.868  22.039  1.00  0.00     0.177 HD
ATOM     38  H81 UNL     1      -1.580  62.277  21.167  1.00  0.00     0.177 HD
ENDBRANCH  34  36
ENDBRANCH   6  34
TORSDOF 9
ENDMDL
