MODEL 1
REMARK VINA RESULT: -5.957776136      0.000      0.000
REMARK  9 active torsions:
REMARK  status: ('A' for Active; 'I' for Inactive)
REMARK    1  A    between atoms: N1_1  and  C1_4 
REMARK    2  A    between atoms: C3_12  and  N5_13 
REMARK    3  A    between atoms: N5_13  and  C4_15 
REMARK    4  A    between atoms: C5_17  and  C6_18 
REMARK    5  A    between atoms: C6_18  and  O2_19 
REMARK    6  A    between atoms: C7_24  and  N7_25 
REMARK    7  A    between atoms: C7_24  and  C8_29 
REMARK    8  A    between atoms: C8_29  and  O3_30 
REMARK    9  A    between atoms: C9_34  and  C10_35 
ROOT
HETATM    1  C1  UNL     1       1.985  53.884  27.097  1.00  0.00     0.144 A 
HETATM    2  N2  UNL     1       2.360  54.439  28.275  1.00  0.00    -0.269 N 
ATOM      3  H2  UNL     1       2.746  53.872  29.029  1.00  0.00     0.190 HD
HETATM    4  N3  UNL     1       2.205  55.746  28.407  1.00  0.00    -0.240 N 
ATOM      5  H3  UNL     1       2.482  56.187  29.284  1.00  0.00     0.208 HD
HETATM    6  N4  UNL     1       1.702  56.512  27.435  1.00  0.00    -0.280 N 
ATOM      7  H4  UNL     1       1.603  57.516  27.589  1.00  0.00     0.188 HD
HETATM    8  C2  UNL     1       1.324  55.989  26.264  1.00  0.00     0.123 A 
HETATM    9  C3  UNL     1       0.795  56.750  25.225  1.00  0.00     0.136 A 
HETATM   10  N8  UNL     1       0.422  56.178  24.045  1.00  0.00    -0.323 N 
ATOM     11  H8  UNL     1       0.037  56.748  23.293  1.00  0.00     0.169 HD
HETATM   12  C9  UNL     1       0.571  54.851  23.890  1.00  0.00     0.174 A 
HETATM   13  N10 UNL     1       1.080  54.095  24.879  1.00  0.00    -0.333 N 
ATOM     14  H10 UNL     1       1.181  53.090  24.733  1.00  0.00     0.168 HD
HETATM   15  C11 UNL     1       1.461  54.632  26.066  1.00  0.00     0.111 A 
ENDROOT
BRANCH   9  16
HETATM   16  N5  UNL     1       0.685  58.009  25.451  1.00  0.00    -0.344 N 
ATOM     17  H5  UNL     1       1.470  58.540  25.830  1.00  0.00     0.163 HD
BRANCH  16  18
HETATM   18  C4  UNL     1      -0.554  58.653  25.164  1.00  0.00     0.292 C 
HETATM   19  O1  UNL     1      -0.615  59.236  23.904  1.00  0.00    -0.328 OA
HETATM   20  C5  UNL     1      -1.571  60.217  23.948  1.00  0.00     0.349 C 
HETATM   21  N6  UNL     1      -1.888  60.498  25.317  1.00  0.00    -0.006 N 
HETATM   22  C7  UNL     1      -0.820  59.847  26.057  1.00  0.00     0.350 C 
ATOM     23  H62 UNL     1      -2.003  61.489  25.527  1.00  0.00     0.283 HD
ATOM     24  H61 UNL     1      -2.827  60.218  25.598  1.00  0.00     0.283 HD
BRANCH  20  25
HETATM   25  C6  UNL     1      -1.140  61.487  23.242  1.00  0.00     0.225 C 
BRANCH  25  26
HETATM   26  O2  UNL     1      -0.778  61.226  21.925  1.00  0.00    -0.397 OA
ATOM     27  H2  UNL     1       0.163  61.123  21.846  1.00  0.00     0.209 HD
ENDBRANCH  25  26
ENDBRANCH  20  25
BRANCH  22  28
HETATM   28  N7  UNL     1       0.294  60.741  26.096  1.00  0.00    -0.038 N 
ATOM     29  H73 UNL     1       0.634  60.951  25.158  1.00  0.00     0.277 HD
ATOM     30  H72 UNL     1       0.008  61.679  26.376  1.00  0.00     0.277 HD
ATOM     31  H71 UNL     1       1.043  60.388  26.692  1.00  0.00     0.277 HD
ENDBRANCH  22  28
BRANCH  22  32
HETATM   32  C8  UNL     1      -1.280  59.417  27.432  1.00  0.00     0.238 C 
BRANCH  32  33
HETATM   33  O3  UNL     1      -0.283  58.677  28.049  1.00  0.00    -0.396 OA
ATOM     34  H3  UNL     1      -0.005  57.972  27.477  1.00  0.00     0.209 HD
ENDBRANCH  32  33
ENDBRANCH  22  32
ENDBRANCH  16  18
ENDBRANCH   9  16
BRANCH  12  35
HETATM   35  C10 UNL     1       0.178  54.213  22.632  1.00  0.00     0.298 C 
HETATM   36  N9  UNL     1      -0.692  53.102  22.581  1.00  0.00    -0.054 NA
HETATM   37  O4  UNL     1       0.615  54.647  21.530  1.00  0.00    -0.268 OA
ENDBRANCH  12  35
BRANCH   1  38
HETATM   38  N1  UNL     1       2.117  52.629  26.928  1.00  0.00    -0.382 N 
ATOM     39  H12 UNL     1       1.329  52.105  26.549  1.00  0.00     0.157 HD
ATOM     40  H11 UNL     1       3.001  52.181  27.175  1.00  0.00     0.157 HD
ENDBRANCH   1  38
TORSDOF 9
ENDMDL
MODEL 2
REMARK VINA RESULT: -5.924186143      3.118      6.505
REMARK  9 active torsions:
REMARK  status: ('A' for Active; 'I' for Inactive)
REMARK    1  A    between atoms: N1_1  and  C1_4 
REMARK    2  A    between atoms: C3_12  and  N5_13 
REMARK    3  A    between atoms: N5_13  and  C4_15 
REMARK    4  A    between atoms: C5_17  and  C6_18 
REMARK    5  A    between atoms: C6_18  and  O2_19 
REMARK    6  A    between atoms: C7_24  and  N7_25 
REMARK    7  A    between atoms: C7_24  and  C8_29 
REMARK    8  A    between atoms: C8_29  and  O3_30 
REMARK    9  A    between atoms: C9_34  and  C10_35 
ROOT
HETATM    1  C1  UNL     1       0.870  54.102  23.740  1.00  0.00     0.144 A 
HETATM    2  N2  UNL     1       0.877  52.752  23.847  1.00  0.00    -0.269 N 
ATOM      3  H2  UNL     1       0.683  52.155  23.042  1.00  0.00     0.190 HD
HETATM    4  N3  UNL     1       1.145  52.238  25.035  1.00  0.00    -0.240 N 
ATOM      5  H3  UNL     1       1.157  51.223  25.139  1.00  0.00     0.208 HD
HETATM    6  N4  UNL     1       1.401  52.996  26.105  1.00  0.00    -0.280 N 
ATOM      7  H4  UNL     1       1.602  52.548  27.000  1.00  0.00     0.188 HD
HETATM    8  C2  UNL     1       1.400  54.330  26.026  1.00  0.00     0.123 A 
HETATM    9  C3  UNL     1       1.662  55.158  27.115  1.00  0.00     0.136 A 
HETATM   10  N8  UNL     1       1.651  56.515  26.994  1.00  0.00    -0.323 N 
ATOM     11  H8  UNL     1       1.846  57.109  27.800  1.00  0.00     0.169 HD
HETATM   12  C9  UNL     1       1.381  57.059  25.794  1.00  0.00     0.174 A 
HETATM   13  N10 UNL     1       1.125  56.280  24.727  1.00  0.00    -0.333 N 
ATOM     14  H10 UNL     1       0.923  56.720  23.829  1.00  0.00     0.168 HD
HETATM   15  C11 UNL     1       1.128  54.926  24.814  1.00  0.00     0.111 A 
ENDROOT
BRANCH   9  16
HETATM   16  N5  UNL     1       1.911  54.562  28.226  1.00  0.00    -0.344 N 
ATOM     17  H5  UNL     1       1.771  53.556  28.318  1.00  0.00     0.163 HD
BRANCH  16  18
HETATM   18  C4  UNL     1       2.385  55.332  29.327  1.00  0.00     0.292 C 
HETATM   19  O1  UNL     1       3.653  54.974  29.769  1.00  0.00    -0.328 OA
HETATM   20  C5  UNL     1       3.767  55.381  31.072  1.00  0.00     0.349 C 
HETATM   21  N6  UNL     1       2.464  55.695  31.578  1.00  0.00    -0.006 N 
HETATM   22  C7  UNL     1       1.565  55.132  30.585  1.00  0.00     0.350 C 
ATOM     23  H62 UNL     1       2.293  55.373  32.531  1.00  0.00     0.283 HD
ATOM     24  H61 UNL     1       2.313  56.685  31.770  1.00  0.00     0.283 HD
BRANCH  20  25
HETATM   25  C6  UNL     1       4.431  54.342  31.954  1.00  0.00     0.225 C 
BRANCH  25  26
HETATM   26  O2  UNL     1       4.438  53.096  31.337  1.00  0.00    -0.397 OA
ATOM     27  H2  UNL     1       5.264  52.650  31.483  1.00  0.00     0.209 HD
ENDBRANCH  25  26
ENDBRANCH  20  25
BRANCH  22  28
HETATM   28  N7  UNL     1       1.387  53.747  30.889  1.00  0.00    -0.038 N 
ATOM     29  H73 UNL     1       0.717  53.617  31.646  1.00  0.00     0.277 HD
ATOM     30  H72 UNL     1       0.882  53.266  30.145  1.00  0.00     0.277 HD
ATOM     31  H71 UNL     1       2.274  53.287  31.094  1.00  0.00     0.277 HD
ENDBRANCH  22  28
BRANCH  22  32
HETATM   32  C8  UNL     1       0.261  55.895  30.520  1.00  0.00     0.238 C 
BRANCH  32  33
HETATM   33  O3  UNL     1       0.408  57.009  29.708  1.00  0.00    -0.396 OA
ATOM     34  H3  UNL     1       0.676  56.738  28.838  1.00  0.00     0.209 HD
ENDBRANCH  32  33
ENDBRANCH  22  32
ENDBRANCH  16  18
ENDBRANCH   9  16
BRANCH  12  35
HETATM   35  C10 UNL     1       1.364  58.515  25.638  1.00  0.00     0.298 C 
HETATM   36  N9  UNL     1       0.501  59.350  26.381  1.00  0.00    -0.054 NA
HETATM   37  O4  UNL     1       2.136  59.079  24.815  1.00  0.00    -0.268 OA
ENDBRANCH  12  35
BRANCH   1  38
HETATM   38  N1  UNL     1       0.616  54.639  22.613  1.00  0.00    -0.382 N 
ATOM     39  H12 UNL     1       0.666  54.057  21.777  1.00  0.00     0.157 HD
ATOM     40  H11 UNL     1       0.372  55.629  22.574  1.00  0.00     0.157 HD
ENDBRANCH   1  38
TORSDOF 9
ENDMDL
MODEL 3
REMARK VINA RESULT: -5.923173933      3.190      6.624
REMARK  9 active torsions:
REMARK  status: ('A' for Active; 'I' for Inactive)
REMARK    1  A    between atoms: N1_1  and  C1_4 
REMARK    2  A    between atoms: C3_12  and  N5_13 
REMARK    3  A    between atoms: N5_13  and  C4_15 
REMARK    4  A    between atoms: C5_17  and  C6_18 
REMARK    5  A    between atoms: C6_18  and  O2_19 
REMARK    6  A    between atoms: C7_24  and  N7_25 
REMARK    7  A    between atoms: C7_24  and  C8_29 
REMARK    8  A    between atoms: C8_29  and  O3_30 
REMARK    9  A    between atoms: C9_34  and  C10_35 
ROOT
HETATM    1  C1  UNL     1       0.273  52.679  24.195  1.00  0.00     0.144 A 
HETATM    2  N2  UNL     1       0.406  51.371  24.520  1.00  0.00    -0.269 N 
ATOM      3  H2  UNL     1       0.017  50.636  23.929  1.00  0.00     0.190 HD
HETATM    4  N3  UNL     1       1.062  51.085  25.632  1.00  0.00    -0.240 N 
ATOM      5  H3  UNL     1       1.176  50.106  25.896  1.00  0.00     0.208 HD
HETATM    6  N4  UNL     1       1.581  52.028  26.424  1.00  0.00    -0.280 N 
ATOM      7  H4  UNL     1       2.077  51.752  27.272  1.00  0.00     0.188 HD
HETATM    8  C2  UNL     1       1.462  53.326  26.126  1.00  0.00     0.123 A 
HETATM    9  C3  UNL     1       1.988  54.340  26.922  1.00  0.00     0.136 A 
HETATM   10  N8  UNL     1       1.846  55.653  26.584  1.00  0.00    -0.323 N 
ATOM     11  H8  UNL     1       2.236  56.385  27.176  1.00  0.00     0.169 HD
HETATM   12  C9  UNL     1       1.184  55.966  25.456  1.00  0.00     0.174 A 
HETATM   13  N10 UNL     1       0.667  55.004  24.671  1.00  0.00    -0.333 N 
ATOM     14  H10 UNL     1       0.168  55.271  23.822  1.00  0.00     0.168 HD
HETATM   15  C11 UNL     1       0.791  53.687  24.979  1.00  0.00     0.111 A 
ENDROOT
BRANCH   9  16
HETATM   16  N5  UNL     1       2.606  53.960  27.982  1.00  0.00    -0.344 N 
ATOM     17  H5  UNL     1       3.249  53.168  27.951  1.00  0.00     0.163 HD
BRANCH  16  18
HETATM   18  C4  UNL     1       2.379  54.663  29.200  1.00  0.00     0.292 C 
HETATM   19  O1  UNL     1       3.368  55.586  29.518  1.00  0.00    -0.328 OA
HETATM   20  C5  UNL     1       3.324  55.788  30.873  1.00  0.00     0.349 C 
HETATM   21  N6  UNL     1       2.541  54.750  31.474  1.00  0.00    -0.006 N 
HETATM   22  C7  UNL     1       2.411  53.762  30.417  1.00  0.00     0.350 C 
ATOM     23  H62 UNL     1       2.923  54.386  32.347  1.00  0.00     0.283 HD
ATOM     24  H61 UNL     1       1.654  55.065  31.868  1.00  0.00     0.283 HD
BRANCH  20  25
HETATM   25  C6  UNL     1       4.701  55.832  31.504  1.00  0.00     0.225 C 
BRANCH  25  26
HETATM   26  O2  UNL     1       4.689  56.587  32.672  1.00  0.00    -0.397 OA
ATOM     27  H2  UNL     1       5.393  56.324  33.253  1.00  0.00     0.209 HD
ENDBRANCH  25  26
ENDBRANCH  20  25
BRANCH  22  28
HETATM   28  N7  UNL     1       3.580  52.940  30.440  1.00  0.00    -0.038 N 
ATOM     29  H73 UNL     1       3.364  51.982  30.166  1.00  0.00     0.277 HD
ATOM     30  H72 UNL     1       4.219  53.182  29.683  1.00  0.00     0.277 HD
ATOM     31  H71 UNL     1       4.047  52.971  31.346  1.00  0.00     0.277 HD
ENDBRANCH  22  28
BRANCH  22  32
HETATM   32  C8  UNL     1       1.130  52.970  30.551  1.00  0.00     0.238 C 
BRANCH  32  33
HETATM   33  O3  UNL     1       1.036  52.050  29.517  1.00  0.00    -0.396 OA
ATOM     34  H3  UNL     1       0.672  51.237  29.844  1.00  0.00     0.209 HD
ENDBRANCH  32  33
ENDBRANCH  22  32
ENDBRANCH  16  18
ENDBRANCH   9  16
BRANCH  12  35
HETATM   35  C10 UNL     1       1.018  57.369  25.071  1.00  0.00     0.298 C 
HETATM   36  N9  UNL     1       1.903  58.385  25.494  1.00  0.00    -0.054 NA
HETATM   37  O4  UNL     1       0.056  57.721  24.334  1.00  0.00    -0.268 OA
ENDBRANCH  12  35
BRANCH   1  38
HETATM   38  N1  UNL     1      -0.351  52.999  23.132  1.00  0.00    -0.382 N 
ATOM     39  H12 UNL     1      -1.369  52.943  23.132  1.00  0.00     0.157 HD
ATOM     40  H11 UNL     1       0.178  53.299  22.313  1.00  0.00     0.157 HD
ENDBRANCH   1  38
TORSDOF 9
ENDMDL
MODEL 4
REMARK VINA RESULT: -5.752739847      2.513      5.983
REMARK  9 active torsions:
REMARK  status: ('A' for Active; 'I' for Inactive)
REMARK    1  A    between atoms: N1_1  and  C1_4 
REMARK    2  A    between atoms: C3_12  and  N5_13 
REMARK    3  A    between atoms: N5_13  and  C4_15 
REMARK    4  A    between atoms: C5_17  and  C6_18 
REMARK    5  A    between atoms: C6_18  and  O2_19 
REMARK    6  A    between atoms: C7_24  and  N7_25 
REMARK    7  A    between atoms: C7_24  and  C8_29 
REMARK    8  A    between atoms: C8_29  and  O3_30 
REMARK    9  A    between atoms: C9_34  and  C10_35 
ROOT
HETATM    1  C1  UNL     1       2.630  54.724  28.695  1.00  0.00     0.144 A 
HETATM    2  N2  UNL     1       2.707  53.513  29.296  1.00  0.00    -0.269 N 
ATOM      3  H2  UNL     1       3.265  53.374  30.139  1.00  0.00     0.190 HD
HETATM    4  N3  UNL     1       2.030  52.518  28.748  1.00  0.00    -0.240 N 
ATOM      5  H3  UNL     1       2.072  51.597  29.184  1.00  0.00     0.208 HD
HETATM    6  N4  UNL     1       1.292  52.673  27.645  1.00  0.00    -0.280 N 
ATOM      7  H4  UNL     1       0.789  51.871  27.263  1.00  0.00     0.188 HD
HETATM    8  C2  UNL     1       1.200  53.858  27.033  1.00  0.00     0.123 A 
HETATM    9  C3  UNL     1       0.443  54.063  25.882  1.00  0.00     0.136 A 
HETATM   10  N8  UNL     1       0.374  55.287  25.287  1.00  0.00    -0.323 N 
ATOM     11  H8  UNL     1      -0.185  55.423  24.445  1.00  0.00     0.169 HD
HETATM   12  C9  UNL     1       1.055  56.313  25.829  1.00  0.00     0.174 A 
HETATM   13  N10 UNL     1       1.793  56.139  26.940  1.00  0.00    -0.333 N 
ATOM     14  H10 UNL     1       2.300  56.935  27.328  1.00  0.00     0.168 HD
HETATM   15  C11 UNL     1       1.882  54.933  27.557  1.00  0.00     0.111 A 
ENDROOT
BRANCH   9  16
HETATM   16  N5  UNL     1      -0.178  53.035  25.427  1.00  0.00    -0.344 N 
ATOM     17  H5  UNL     1      -0.541  52.324  26.062  1.00  0.00     0.163 HD
BRANCH  16  18
HETATM   18  C4  UNL     1      -0.350  52.904  24.018  1.00  0.00     0.292 C 
HETATM   19  O1  UNL     1      -1.351  53.709  23.489  1.00  0.00    -0.328 OA
HETATM   20  C5  UNL     1      -1.760  53.139  22.312  1.00  0.00     0.349 C 
HETATM   21  N6  UNL     1      -1.269  51.795  22.249  1.00  0.00    -0.006 N 
HETATM   22  C7  UNL     1      -0.827  51.527  23.607  1.00  0.00     0.350 C 
ATOM     23  H62 UNL     1      -1.938  51.118  21.881  1.00  0.00     0.283 HD
ATOM     24  H61 UNL     1      -0.556  51.639  21.535  1.00  0.00     0.283 HD
BRANCH  20  25
HETATM   25  C6  UNL     1      -3.267  53.150  22.149  1.00  0.00     0.225 C 
BRANCH  25  26
HETATM   26  O2  UNL     1      -3.899  53.323  23.375  1.00  0.00    -0.397 OA
ATOM     27  H2  UNL     1      -3.301  53.691  24.016  1.00  0.00     0.209 HD
ENDBRANCH  25  26
ENDBRANCH  20  25
BRANCH  22  28
HETATM   28  N7  UNL     1      -1.966  51.111  24.363  1.00  0.00    -0.038 N 
ATOM     29  H73 UNL     1      -1.704  50.451  25.096  1.00  0.00     0.277 HD
ATOM     30  H72 UNL     1      -2.319  51.867  24.949  1.00  0.00     0.277 HD
ATOM     31  H71 UNL     1      -2.699  50.730  23.766  1.00  0.00     0.277 HD
ENDBRANCH  22  28
BRANCH  22  32
HETATM   32  C8  UNL     1       0.300  50.519  23.636  1.00  0.00     0.238 C 
BRANCH  32  33
HETATM   33  O3  UNL     1       1.520  51.179  23.614  1.00  0.00    -0.396 OA
ATOM     34  H3  UNL     1       2.212  50.583  23.871  1.00  0.00     0.209 HD
ENDBRANCH  32  33
ENDBRANCH  22  32
ENDBRANCH  16  18
ENDBRANCH   9  16
BRANCH  12  35
HETATM   35  C10 UNL     1       0.997  57.638  25.208  1.00  0.00     0.298 C 
HETATM   36  N9  UNL     1       1.975  58.631  25.439  1.00  0.00    -0.054 NA
HETATM   37  O4  UNL     1       0.050  57.940  24.431  1.00  0.00    -0.268 OA
ENDBRANCH  12  35
BRANCH   1  38
HETATM   38  N1  UNL     1       3.267  55.710  29.191  1.00  0.00    -0.382 N 
ATOM     39  H12 UNL     1       2.815  56.260  29.921  1.00  0.00     0.157 HD
ATOM     40  H11 UNL     1       4.204  55.923  28.849  1.00  0.00     0.157 HD
ENDBRANCH   1  38
TORSDOF 9
ENDMDL
MODEL 5
REMARK VINA RESULT: -5.719100814      2.408      4.566
REMARK  9 active torsions:
REMARK  status: ('A' for Active; 'I' for Inactive)
REMARK    1  A    between atoms: N1_1  and  C1_4 
REMARK    2  A    between atoms: C3_12  and  N5_13 
REMARK    3  A    between atoms: N5_13  and  C4_15 
REMARK    4  A    between atoms: C5_17  and  C6_18 
REMARK    5  A    between atoms: C6_18  and  O2_19 
REMARK    6  A    between atoms: C7_24  and  N7_25 
REMARK    7  A    between atoms: C7_24  and  C8_29 
REMARK    8  A    between atoms: C8_29  and  O3_30 
REMARK    9  A    between atoms: C9_34  and  C10_35 
ROOT
HETATM    1  C1  UNL     1       0.884  51.732  24.864  1.00  0.00     0.144 A 
HETATM    2  N2  UNL     1       0.278  52.005  23.683  1.00  0.00    -0.269 N 
ATOM      3  H2  UNL     1      -0.058  51.258  23.075  1.00  0.00     0.190 HD
HETATM    4  N3  UNL     1       0.138  53.277  23.352  1.00  0.00    -0.240 N 
ATOM      5  H3  UNL     1      -0.317  53.507  22.468  1.00  0.00     0.208 HD
HETATM    6  N4  UNL     1       0.569  54.274  24.130  1.00  0.00    -0.280 N 
ATOM      7  H4  UNL     1       0.436  55.239  23.826  1.00  0.00     0.188 HD
HETATM    8  C2  UNL     1       1.170  54.032  25.299  1.00  0.00     0.123 A 
HETATM    9  C3  UNL     1       1.634  55.039  26.140  1.00  0.00     0.136 A 
HETATM   10  N8  UNL     1       2.242  54.751  27.325  1.00  0.00    -0.323 N 
ATOM     11  H8  UNL     1       2.577  55.500  27.931  1.00  0.00     0.169 HD
HETATM   12  C9  UNL     1       2.394  53.463  27.682  1.00  0.00     0.174 A 
HETATM   13  N10 UNL     1       1.955  52.472  26.886  1.00  0.00    -0.333 N 
ATOM     14  H10 UNL     1       2.084  51.504  27.182  1.00  0.00     0.168 HD
HETATM   15  C11 UNL     1       1.345  52.725  25.700  1.00  0.00     0.111 A 
ENDROOT
BRANCH   9  16
HETATM   16  N5  UNL     1       1.451  56.243  25.729  1.00  0.00    -0.344 N 
ATOM     17  H5  UNL     1       1.650  56.496  24.761  1.00  0.00     0.163 HD
BRANCH  16  18
HETATM   18  C4  UNL     1       0.968  57.218  26.648  1.00  0.00     0.292 C 
HETATM   19  O1  UNL     1      -0.195  56.847  27.313  1.00  0.00    -0.328 OA
HETATM   20  C5  UNL     1      -0.817  57.995  27.729  1.00  0.00     0.349 C 
HETATM   21  N6  UNL     1      -0.239  59.113  27.044  1.00  0.00    -0.006 N 
HETATM   22  C7  UNL     1       0.529  58.501  25.973  1.00  0.00     0.350 C 
ATOM     23  H62 UNL     1      -0.914  59.812  26.732  1.00  0.00     0.283 HD
ATOM     24  H61 UNL     1       0.299  59.742  27.641  1.00  0.00     0.283 HD
BRANCH  20  25
HETATM   25  C6  UNL     1      -2.315  57.965  27.503  1.00  0.00     0.225 C 
BRANCH  25  26
HETATM   26  O2  UNL     1      -2.644  57.102  26.464  1.00  0.00    -0.397 OA
ATOM     27  H2  UNL     1      -3.251  57.514  25.860  1.00  0.00     0.209 HD
ENDBRANCH  25  26
ENDBRANCH  20  25
BRANCH  22  28
HETATM   28  N7  UNL     1      -0.362  58.250  24.884  1.00  0.00    -0.038 N 
ATOM     29  H73 UNL     1      -1.310  58.073  25.213  1.00  0.00     0.277 HD
ATOM     30  H72 UNL     1      -0.536  59.098  24.344  1.00  0.00     0.277 HD
ATOM     31  H71 UNL     1      -0.028  57.492  24.288  1.00  0.00     0.277 HD
ENDBRANCH  22  28
BRANCH  22  32
HETATM   32  C8  UNL     1       1.715  59.353  25.582  1.00  0.00     0.238 C 
BRANCH  32  33
HETATM   33  O3  UNL     1       2.322  58.822  24.454  1.00  0.00    -0.396 OA
ATOM     34  H3  UNL     1       3.230  59.098  24.418  1.00  0.00     0.209 HD
ENDBRANCH  32  33
ENDBRANCH  22  32
ENDBRANCH  16  18
ENDBRANCH   9  16
BRANCH  12  35
HETATM   35  C10 UNL     1       3.045  53.128  28.950  1.00  0.00     0.298 C 
HETATM   36  N9  UNL     1       2.392  53.248  30.197  1.00  0.00    -0.054 NA
HETATM   37  O4  UNL     1       4.236  52.711  28.967  1.00  0.00    -0.268 OA
ENDBRANCH  12  35
BRANCH   1  38
HETATM   38  N1  UNL     1       1.039  50.519  25.221  1.00  0.00    -0.382 N 
ATOM     39  H12 UNL     1       1.356  49.845  24.525  1.00  0.00     0.157 HD
ATOM     40  H11 UNL     1       0.841  50.253  26.186  1.00  0.00     0.157 HD
ENDBRANCH   1  38
TORSDOF 9
ENDMDL
