MODEL 1
REMARK VINA RESULT: -6.581457769      0.000      0.000
REMARK  8 active torsions:
REMARK  status: ('A' for Active; 'I' for Inactive)
REMARK    1  A    between atoms: N1_1  and  C1_4 
REMARK    2  A    between atoms: N6_16  and  C5_17 
REMARK    3  A    between atoms: C6_21  and  O1_22 
REMARK    4  A    between atoms: C7_24  and  O2_25 
REMARK    5  A    between atoms: O2_25  and  N8_26 
REMARK    6  A    between atoms: N8_26  and  O3_27 
REMARK    7  A    between atoms: N8_26  and  N9_29 
REMARK    8  A    between atoms: C9_34  and  O4_35 
ROOT
HETATM    1  C5  UNL     1       1.041  56.323  25.567  1.00  0.00     0.344 C 
HETATM    2  N7  UNL     1       0.031  56.609  26.570  1.00  0.00    -0.021 N 
ATOM      3  H71 UNL     1      -0.125  55.881  27.268  1.00  0.00     0.283 HD
ATOM      4  H72 UNL     1      -0.936  56.612  26.244  1.00  0.00     0.283 HD
HETATM    5  C6  UNL     1       0.546  57.893  27.077  1.00  0.00     0.355 C 
HETATM    6  C7  UNL     1       0.748  58.643  25.785  1.00  0.00     0.238 C 
HETATM    7  C9  UNL     1       1.022  57.576  24.739  1.00  0.00     0.205 C 
ENDROOT
BRANCH   1   8
HETATM    8  N6  UNL     1       0.759  55.131  24.818  1.00  0.00    -0.225 N 
HETATM    9  C3  UNL     1       0.511  53.894  25.249  1.00  0.00     0.159 A 
HETATM   10  N3  UNL     1       0.441  53.351  26.459  1.00  0.00    -0.335 N 
HETATM   11  C4  UNL     1       0.297  53.082  24.138  1.00  0.00     0.139 A 
HETATM   12  C2  UNL     1       0.164  52.027  26.584  1.00  0.00     0.183 A 
ATOM     13  H3  UNL     1       0.594  53.924  27.289  1.00  0.00     0.168 HD
HETATM   14  N2  UNL     1      -0.045  51.237  25.510  1.00  0.00    -0.337 N 
HETATM   15  C1  UNL     1       0.014  51.735  24.273  1.00  0.00     0.132 A 
ATOM     16  H2  UNL     1      -0.251  50.247  25.645  1.00  0.00     0.168 HD
HETATM   17  N4  UNL     1       0.426  53.873  23.082  1.00  0.00    -0.279 N 
HETATM   18  N5  UNL     1       0.702  55.094  23.500  1.00  0.00    -0.236 N 
ATOM     19  H4  UNL     1       0.328  53.586  22.108  1.00  0.00     0.189 HD
ATOM     20  H5  UNL     1       0.850  55.898  22.889  1.00  0.00     0.208 HD
BRANCH  15  21
HETATM   21  N1  UNL     1      -0.182  50.998  23.232  1.00  0.00    -0.383 N 
ATOM     22  H12 UNL     1       0.167  51.287  22.319  1.00  0.00     0.157 HD
ATOM     23  H11 UNL     1      -0.685  50.112  23.286  1.00  0.00     0.157 HD
ENDBRANCH  15  21
ENDBRANCH   1   8
BRANCH   7  24
HETATM   24  O4  UNL     1       2.253  57.769  24.122  1.00  0.00    -0.389 OA
ATOM     25  H4  UNL     1       2.349  57.182  23.381  1.00  0.00     0.210 HD
ENDBRANCH   7  24
BRANCH   5  26
HETATM   26  O1  UNL     1      -0.399  58.497  27.873  1.00  0.00    -0.368 OA
ATOM     27  H1  UNL     1       0.002  59.193  28.382  1.00  0.00     0.212 HD
ENDBRANCH   5  26
BRANCH   6  28
HETATM   28  O2  UNL     1       1.689  59.618  25.833  1.00  0.00    -0.248 OA
BRANCH  28  29
HETATM   29  N8  UNL     1       1.642  60.516  24.830  1.00  0.00     0.038 NA
BRANCH  29  30
HETATM   30  O3  UNL     1       2.818  60.542  24.117  1.00  0.00    -0.270 OA
ATOM     31  H3  UNL     1       2.727  60.111  23.276  1.00  0.00     0.241 HD
ENDBRANCH  29  30
BRANCH  29  32
HETATM   32  N9  UNL     1       1.539  61.781  25.422  1.00  0.00    -0.247 N 
HETATM   33  C8  UNL     1       0.472  62.493  25.369  1.00  0.00     0.215 C 
HETATM   34  N10 UNL     1      -0.664  61.994  24.686  1.00  0.00    -0.065 NA
HETATM   35  N11 UNL     1       0.382  63.771  25.973  1.00  0.00    -0.065 NA
ATOM     36  H9  UNL     1       2.349  62.153  25.918  1.00  0.00     0.188 HD
ENDBRANCH  29  32
ENDBRANCH  28  29
ENDBRANCH   6  28
TORSDOF 8
ENDMDL
MODEL 2
REMARK VINA RESULT: -6.540123818      2.745      7.472
REMARK  8 active torsions:
REMARK  status: ('A' for Active; 'I' for Inactive)
REMARK    1  A    between atoms: N1_1  and  C1_4 
REMARK    2  A    between atoms: N6_16  and  C5_17 
REMARK    3  A    between atoms: C6_21  and  O1_22 
REMARK    4  A    between atoms: C7_24  and  O2_25 
REMARK    5  A    between atoms: O2_25  and  N8_26 
REMARK    6  A    between atoms: N8_26  and  O3_27 
REMARK    7  A    between atoms: N8_26  and  N9_29 
REMARK    8  A    between atoms: C9_34  and  O4_35 
ROOT
HETATM    1  C5  UNL     1       0.899  57.081  25.803  1.00  0.00     0.344 C 
HETATM    2  N7  UNL     1       1.204  56.573  24.478  1.00  0.00    -0.021 N 
ATOM      3  H71 UNL     1       1.943  57.062  23.972  1.00  0.00     0.283 HD
ATOM      4  H72 UNL     1       0.497  56.737  23.762  1.00  0.00     0.283 HD
HETATM    5  C6  UNL     1       1.472  55.164  24.812  1.00  0.00     0.355 C 
HETATM    6  C7  UNL     1       0.247  54.832  25.627  1.00  0.00     0.238 C 
HETATM    7  C9  UNL     1      -0.187  56.146  26.254  1.00  0.00     0.205 C 
ENDROOT
BRANCH   1   8
HETATM    8  N6  UNL     1       0.504  58.462  25.793  1.00  0.00    -0.225 N 
HETATM    9  C3  UNL     1       1.242  59.557  25.608  1.00  0.00     0.159 A 
HETATM   10  N3  UNL     1       2.536  59.751  25.380  1.00  0.00    -0.335 N 
HETATM   11  C4  UNL     1       0.403  60.665  25.686  1.00  0.00     0.139 A 
HETATM   12  C2  UNL     1       3.007  61.017  25.230  1.00  0.00     0.183 A 
ATOM     13  H3  UNL     1       3.172  58.956  25.317  1.00  0.00     0.168 HD
HETATM   14  N2  UNL     1       2.197  62.093  25.305  1.00  0.00    -0.337 N 
HETATM   15  C1  UNL     1       0.890  61.950  25.532  1.00  0.00     0.132 A 
ATOM     16  H2  UNL     1       2.588  63.028  25.188  1.00  0.00     0.168 HD
HETATM   17  N4  UNL     1      -0.811  60.183  25.917  1.00  0.00    -0.279 N 
HETATM   18  N5  UNL     1      -0.738  58.867  25.979  1.00  0.00    -0.236 N 
ATOM     19  H4  UNL     1      -1.659  60.738  26.029  1.00  0.00     0.189 HD
ATOM     20  H5  UNL     1      -1.532  58.248  26.146  1.00  0.00     0.208 HD
BRANCH  15  21
HETATM   21  N1  UNL     1       0.096  62.965  25.609  1.00  0.00    -0.383 N 
ATOM     22  H12 UNL     1       0.410  63.892  25.319  1.00  0.00     0.157 HD
ATOM     23  H11 UNL     1      -0.859  62.877  25.956  1.00  0.00     0.157 HD
ENDBRANCH  15  21
ENDBRANCH   1   8
BRANCH   7  24
HETATM   24  O4  UNL     1      -0.215  56.065  27.641  1.00  0.00    -0.389 OA
ATOM     25  H4  UNL     1      -0.609  55.247  27.919  1.00  0.00     0.210 HD
ENDBRANCH   7  24
BRANCH   5  26
HETATM   26  O1  UNL     1       1.536  54.412  23.662  1.00  0.00    -0.368 OA
ATOM     27  H1  UNL     1       2.261  53.800  23.714  1.00  0.00     0.212 HD
ENDBRANCH   5  26
BRANCH   6  28
HETATM   28  O2  UNL     1       0.413  53.826  26.520  1.00  0.00    -0.248 OA
BRANCH  28  29
HETATM   29  N8  UNL     1       1.675  53.640  26.954  1.00  0.00     0.038 NA
BRANCH  29  30
HETATM   30  O3  UNL     1       2.077  52.334  26.798  1.00  0.00    -0.270 OA
ATOM     31  H3  UNL     1       2.160  52.100  25.881  1.00  0.00     0.241 HD
ENDBRANCH  29  30
BRANCH  29  32
HETATM   32  N9  UNL     1       1.667  53.863  28.336  1.00  0.00    -0.247 N 
HETATM   33  C8  UNL     1       2.738  53.919  29.041  1.00  0.00     0.215 C 
HETATM   34  N10 UNL     1       3.996  53.749  28.412  1.00  0.00    -0.065 NA
HETATM   35  N11 UNL     1       2.715  54.146  30.439  1.00  0.00    -0.065 NA
ATOM     36  H9  UNL     1       0.769  53.988  28.803  1.00  0.00     0.188 HD
ENDBRANCH  29  32
ENDBRANCH  28  29
ENDBRANCH   6  28
TORSDOF 8
ENDMDL
MODEL 3
REMARK VINA RESULT: -6.453058670      1.112      1.164
REMARK  8 active torsions:
REMARK  status: ('A' for Active; 'I' for Inactive)
REMARK    1  A    between atoms: N1_1  and  C1_4 
REMARK    2  A    between atoms: N6_16  and  C5_17 
REMARK    3  A    between atoms: C6_21  and  O1_22 
REMARK    4  A    between atoms: C7_24  and  O2_25 
REMARK    5  A    between atoms: O2_25  and  N8_26 
REMARK    6  A    between atoms: N8_26  and  O3_27 
REMARK    7  A    between atoms: N8_26  and  N9_29 
REMARK    8  A    between atoms: C9_34  and  O4_35 
ROOT
HETATM    1  C5  UNL     1       0.928  56.843  25.867  1.00  0.00     0.344 C 
HETATM    2  N7  UNL     1      -0.230  56.941  26.736  1.00  0.00    -0.021 N 
ATOM      3  H71 UNL     1      -0.319  56.214  27.447  1.00  0.00     0.283 HD
ATOM      4  H72 UNL     1      -1.132  56.738  26.304  1.00  0.00     0.283 HD
HETATM    5  C6  UNL     1      -0.047  58.314  27.235  1.00  0.00     0.355 C 
HETATM    6  C7  UNL     1       0.153  59.058  25.938  1.00  0.00     0.238 C 
HETATM    7  C9  UNL     1       0.757  58.045  24.982  1.00  0.00     0.205 C 
ENDROOT
BRANCH   1   8
HETATM    8  N6  UNL     1       0.982  55.600  25.149  1.00  0.00    -0.225 N 
HETATM    9  C3  UNL     1       1.032  54.351  25.613  1.00  0.00     0.159 A 
HETATM   10  N3  UNL     1       1.051  53.838  26.838  1.00  0.00    -0.335 N 
HETATM   11  C4  UNL     1       1.071  53.484  24.524  1.00  0.00     0.139 A 
HETATM   12  C2  UNL     1       1.106  52.489  26.998  1.00  0.00     0.183 A 
ATOM     13  H3  UNL     1       1.023  54.451  27.652  1.00  0.00     0.168 HD
HETATM   14  N2  UNL     1       1.143  51.647  25.945  1.00  0.00    -0.337 N 
HETATM   15  C1  UNL     1       1.126  52.113  24.695  1.00  0.00     0.132 A 
ATOM     16  H2  UNL     1       1.185  50.640  26.106  1.00  0.00     0.168 HD
HETATM   17  N4  UNL     1       1.042  54.257  23.446  1.00  0.00    -0.279 N 
HETATM   18  N5  UNL     1       0.988  55.518  23.832  1.00  0.00    -0.236 N 
ATOM     19  H4  UNL     1       1.058  53.930  22.480  1.00  0.00     0.189 HD
ATOM     20  H5  UNL     1       0.957  56.318  23.199  1.00  0.00     0.208 HD
BRANCH  15  21
HETATM   21  N1  UNL     1       1.162  51.325  23.673  1.00  0.00    -0.383 N 
ATOM     22  H12 UNL     1       1.721  50.473  23.694  1.00  0.00     0.157 HD
ATOM     23  H11 UNL     1       0.638  51.526  22.821  1.00  0.00     0.157 HD
ENDBRANCH  15  21
ENDBRANCH   1   8
BRANCH   7  24
HETATM   24  O4  UNL     1       1.988  58.470  24.497  1.00  0.00    -0.389 OA
ATOM     25  H4  UNL     1       1.870  59.106  23.801  1.00  0.00     0.210 HD
ENDBRANCH   7  24
BRANCH   5  26
HETATM   26  O1  UNL     1      -1.181  58.732  27.891  1.00  0.00    -0.368 OA
ATOM     27  H1  UNL     1      -1.359  58.161  28.629  1.00  0.00     0.212 HD
ENDBRANCH   5  26
BRANCH   6  28
HETATM   28  O2  UNL     1       0.867  60.206  26.044  1.00  0.00    -0.248 OA
BRANCH  28  29
HETATM   29  N8  UNL     1       0.375  61.257  25.359  1.00  0.00     0.038 NA
BRANCH  29  30
HETATM   30  O3  UNL     1       0.320  61.002  24.009  1.00  0.00    -0.270 OA
ATOM     31  H3  UNL     1      -0.407  60.432  23.790  1.00  0.00     0.241 HD
ENDBRANCH  29  30
BRANCH  29  32
HETATM   32  N9  UNL     1       1.297  62.301  25.502  1.00  0.00    -0.247 N 
HETATM   33  C8  UNL     1       0.997  63.532  25.295  1.00  0.00     0.215 C 
HETATM   34  N10 UNL     1      -0.322  63.871  24.904  1.00  0.00    -0.065 NA
HETATM   35  N11 UNL     1       1.939  64.578  25.443  1.00  0.00    -0.065 NA
ATOM     36  H9  UNL     1       2.250  62.073  25.783  1.00  0.00     0.188 HD
ENDBRANCH  29  32
ENDBRANCH  28  29
ENDBRANCH   6  28
TORSDOF 8
ENDMDL
MODEL 4
REMARK VINA RESULT: -6.260733011      2.459      7.925
REMARK  8 active torsions:
REMARK  status: ('A' for Active; 'I' for Inactive)
REMARK    1  A    between atoms: N1_1  and  C1_4 
REMARK    2  A    between atoms: N6_16  and  C5_17 
REMARK    3  A    between atoms: C6_21  and  O1_22 
REMARK    4  A    between atoms: C7_24  and  O2_25 
REMARK    5  A    between atoms: O2_25  and  N8_26 
REMARK    6  A    between atoms: N8_26  and  O3_27 
REMARK    7  A    between atoms: N8_26  and  N9_29 
REMARK    8  A    between atoms: C9_34  and  O4_35 
ROOT
HETATM    1  C5  UNL     1       1.068  56.964  25.804  1.00  0.00     0.344 C 
HETATM    2  N7  UNL     1       1.195  56.453  24.451  1.00  0.00    -0.021 N 
ATOM      3  H71 UNL     1       1.841  56.956  23.842  1.00  0.00     0.283 HD
ATOM      4  H72 UNL     1       0.389  56.594  23.842  1.00  0.00     0.283 HD
HETATM    5  C6  UNL     1       1.543  55.054  24.749  1.00  0.00     0.355 C 
HETATM    6  C7  UNL     1       0.456  54.698  25.731  1.00  0.00     0.238 C 
HETATM    7  C9  UNL     1       0.082  56.005  26.408  1.00  0.00     0.205 C 
ENDROOT
BRANCH   1   8
HETATM    8  N6  UNL     1       0.640  58.334  25.843  1.00  0.00    -0.225 N 
HETATM    9  C3  UNL     1       1.335  59.449  25.613  1.00  0.00     0.159 A 
HETATM   10  N3  UNL     1       2.601  59.678  25.284  1.00  0.00    -0.335 N 
HETATM   11  C4  UNL     1       0.478  60.535  25.775  1.00  0.00     0.139 A 
HETATM   12  C2  UNL     1       3.027  60.958  25.113  1.00  0.00     0.183 A 
ATOM     13  H3  UNL     1       3.248  58.900  25.159  1.00  0.00     0.168 HD
HETATM   14  N2  UNL     1       2.199  62.012  25.268  1.00  0.00    -0.337 N 
HETATM   15  C1  UNL     1       0.919  61.834  25.598  1.00  0.00     0.132 A 
ATOM     16  H2  UNL     1       2.557  62.958  25.131  1.00  0.00     0.168 HD
HETATM   17  N4  UNL     1      -0.701  60.021  26.097  1.00  0.00    -0.279 N 
HETATM   18  N5  UNL     1      -0.592  58.706  26.135  1.00  0.00    -0.236 N 
ATOM     19  H4  UNL     1      -1.551  60.552  26.285  1.00  0.00     0.189 HD
ATOM     20  H5  UNL     1      -1.355  58.066  26.358  1.00  0.00     0.208 HD
BRANCH  15  21
HETATM   21  N1  UNL     1       0.110  62.828  25.753  1.00  0.00    -0.383 N 
ATOM     22  H12 UNL     1      -0.094  63.456  24.975  1.00  0.00     0.157 HD
ATOM     23  H11 UNL     1      -0.347  63.016  26.645  1.00  0.00     0.157 HD
ENDBRANCH  15  21
ENDBRANCH   1   8
BRANCH   7  24
HETATM   24  O4  UNL     1       0.254  55.936  27.786  1.00  0.00    -0.389 OA
ATOM     25  H4  UNL     1      -0.532  56.227  28.234  1.00  0.00     0.210 HD
ENDBRANCH   7  24
BRANCH   5  26
HETATM   26  O1  UNL     1       1.463  54.294  23.605  1.00  0.00    -0.368 OA
ATOM     27  H1  UNL     1       1.113  54.816  22.892  1.00  0.00     0.212 HD
ENDBRANCH   5  26
BRANCH   6  28
HETATM   28  O2  UNL     1       0.773  53.704  26.597  1.00  0.00    -0.248 OA
BRANCH  28  29
HETATM   29  N8  UNL     1       0.306  52.483  26.269  1.00  0.00     0.038 NA
BRANCH  29  30
HETATM   30  O3  UNL     1      -0.146  51.800  27.374  1.00  0.00    -0.270 OA
ATOM     31  H3  UNL     1      -0.931  51.301  27.180  1.00  0.00     0.241 HD
ENDBRANCH  29  30
BRANCH  29  32
HETATM   32  N9  UNL     1       1.397  51.744  25.797  1.00  0.00    -0.247 N 
HETATM   33  C8  UNL     1       1.456  51.265  24.608  1.00  0.00     0.215 C 
HETATM   34  N10 UNL     1       0.377  51.483  23.716  1.00  0.00    -0.065 NA
HETATM   35  N11 UNL     1       2.567  50.519  24.144  1.00  0.00    -0.065 NA
ATOM     36  H9  UNL     1       2.182  51.579  26.428  1.00  0.00     0.188 HD
ENDBRANCH  29  32
ENDBRANCH  28  29
ENDBRANCH   6  28
TORSDOF 8
ENDMDL
MODEL 5
REMARK VINA RESULT: -6.249005733      1.981      7.836
REMARK  8 active torsions:
REMARK  status: ('A' for Active; 'I' for Inactive)
REMARK    1  A    between atoms: N1_1  and  C1_4 
REMARK    2  A    between atoms: N6_16  and  C5_17 
REMARK    3  A    between atoms: C6_21  and  O1_22 
REMARK    4  A    between atoms: C7_24  and  O2_25 
REMARK    5  A    between atoms: O2_25  and  N8_26 
REMARK    6  A    between atoms: N8_26  and  O3_27 
REMARK    7  A    between atoms: N8_26  and  N9_29 
REMARK    8  A    between atoms: C9_34  and  O4_35 
ROOT
HETATM    1  C5  UNL     1       0.617  57.918  25.876  1.00  0.00     0.344 C 
HETATM    2  N7  UNL     1       1.106  57.358  27.123  1.00  0.00    -0.021 N 
ATOM      3  H71 UNL     1       0.845  57.860  27.971  1.00  0.00     0.283 HD
ATOM      4  H72 UNL     1       2.109  57.441  27.288  1.00  0.00     0.283 HD
HETATM    5  C6  UNL     1       0.583  55.987  26.996  1.00  0.00     0.355 C 
HETATM    6  C7  UNL     1       1.067  55.629  25.614  1.00  0.00     0.238 C 
HETATM    7  C9  UNL     1       1.155  56.947  24.864  1.00  0.00     0.205 C 
ENDROOT
BRANCH   1   8
HETATM    8  N6  UNL     1       1.052  59.271  25.666  1.00  0.00    -0.225 N 
HETATM    9  C3  UNL     1       0.387  60.414  25.833  1.00  0.00     0.159 A 
HETATM   10  N3  UNL     1      -0.849  60.695  26.232  1.00  0.00    -0.335 N 
HETATM   11  C4  UNL     1       1.238  61.465  25.499  1.00  0.00     0.139 A 
HETATM   12  C2  UNL     1      -1.250  61.992  26.304  1.00  0.00     0.183 A 
ATOM     13  H3  UNL     1      -1.491  59.944  26.482  1.00  0.00     0.168 HD
HETATM   14  N2  UNL     1      -0.428  63.012  25.981  1.00  0.00    -0.337 N 
HETATM   15  C1  UNL     1       0.822  62.781  25.576  1.00  0.00     0.132 A 
ATOM     16  H2  UNL     1      -0.767  63.972  26.048  1.00  0.00     0.168 HD
HETATM   17  N4  UNL     1       2.384  60.902  25.143  1.00  0.00    -0.279 N 
HETATM   18  N5  UNL     1       2.262  59.591  25.247  1.00  0.00    -0.236 N 
ATOM     19  H4  UNL     1       3.222  61.399  24.840  1.00  0.00     0.189 HD
ATOM     20  H5  UNL     1       3.000  58.920  25.033  1.00  0.00     0.208 HD
BRANCH  15  21
HETATM   21  N1  UNL     1       1.625  63.742  25.261  1.00  0.00    -0.383 N 
ATOM     22  H12 UNL     1       2.063  64.310  25.987  1.00  0.00     0.157 HD
ATOM     23  H11 UNL     1       1.847  63.962  24.290  1.00  0.00     0.157 HD
ENDBRANCH  15  21
ENDBRANCH   1   8
BRANCH   7  24
HETATM   24  O4  UNL     1       0.359  56.941  23.725  1.00  0.00    -0.389 OA
ATOM     25  H4  UNL     1       0.851  57.253  22.974  1.00  0.00     0.210 HD
ENDBRANCH   7  24
BRANCH   5  26
HETATM   26  O1  UNL     1       1.144  55.178  27.957  1.00  0.00    -0.368 OA
ATOM     27  H1  UNL     1       0.617  55.199  28.747  1.00  0.00     0.212 HD
ENDBRANCH   5  26
BRANCH   6  28
HETATM   28  O2  UNL     1       0.331  54.684  24.979  1.00  0.00    -0.248 OA
BRANCH  28  29
HETATM   29  N8  UNL     1       1.038  53.765  24.293  1.00  0.00     0.038 NA
BRANCH  29  30
HETATM   30  O3  UNL     1       1.504  54.268  23.101  1.00  0.00    -0.270 OA
ATOM     31  H3  UNL     1       2.154  53.696  22.710  1.00  0.00     0.241 HD
ENDBRANCH  29  30
BRANCH  29  32
HETATM   32  N9  UNL     1       0.145  52.745  23.942  1.00  0.00    -0.247 N 
HETATM   33  C8  UNL     1       0.518  51.541  23.701  1.00  0.00     0.215 C 
HETATM   34  N10 UNL     1       1.892  51.207  23.789  1.00  0.00    -0.065 NA
HETATM   35  N11 UNL     1      -0.397  50.519  23.347  1.00  0.00    -0.065 NA
ATOM     36  H9  UNL     1      -0.848  52.970  23.875  1.00  0.00     0.188 HD
ENDBRANCH  29  32
ENDBRANCH  28  29
ENDBRANCH   6  28
TORSDOF 8
ENDMDL
