MODEL 1
REMARK VINA RESULT: -5.998912722      0.000      0.000
REMARK  8 active torsions:
REMARK  status: ('A' for Active; 'I' for Inactive)
REMARK    1  A    between atoms: N1_1  and  N2_4 
REMARK    2  A    between atoms: N2_4  and  C1_5 
REMARK    3  A    between atoms: C1_5  and  N3_6 
REMARK    4  A    between atoms: C1_5  and  C2_10 
REMARK    5  A    between atoms: N5_19  and  C7_20 
REMARK    6  A    between atoms: C8_24  and  C9_25 
REMARK    7  A    between atoms: C9_25  and  N7_26 
REMARK    8  A    between atoms: C9_25  and  O3_30 
REMARK       I    between atoms: N8_34  and  C11_35 
ROOT
HETATM    1  C2  UNL     1       1.538  53.941  28.154  1.00  0.00     0.071 A 
HETATM    2  C3  UNL     1       1.593  53.319  26.933  1.00  0.00     0.050 A 
HETATM    3  C4  UNL     1       1.281  54.234  25.966  1.00  0.00     0.079 A 
HETATM    4  C5  UNL     1       1.215  54.061  24.586  1.00  0.00     0.263 A 
HETATM    5  O1  UNL     1       1.450  52.939  24.086  1.00  0.00    -0.267 OA
HETATM    6  N4  UNL     1       0.896  55.142  23.877  1.00  0.00    -0.274 N 
ATOM      7  H4  UNL     1       0.832  55.076  22.861  1.00  0.00     0.173 HD
HETATM    8  C6  UNL     1       0.657  56.312  24.477  1.00  0.00     0.334 A 
HETATM    9  O2  UNL     1       0.357  57.320  23.777  1.00  0.00    -0.246 OA
HETATM   10  N5  UNL     1       0.714  56.513  25.833  1.00  0.00    -0.232 N 
HETATM   11  C10 UNL     1       1.026  55.458  26.602  1.00  0.00     0.141 A 
HETATM   12  N8  UNL     1       1.189  55.256  27.945  1.00  0.00    -0.251 N 
HETATM   13  C11 UNL     1       1.118  56.183  28.967  1.00  0.00     0.341 C 
HETATM   14  N9  UNL     1       1.779  55.847  30.252  1.00  0.00    -0.039 NA
HETATM   15  O5  UNL     1       0.613  57.281  29.049  1.00  0.00    -0.250 OA
ENDROOT
BRANCH  10  16
HETATM   16  C7  UNL     1       0.516  57.838  26.342  1.00  0.00     0.446 C 
HETATM   17  N6  UNL     1      -0.203  58.778  25.514  1.00  0.00     0.001 N 
HETATM   18  C8  UNL     1       0.803  59.700  26.049  1.00  0.00     0.385 C 
ATOM     19  H62 UNL     1      -0.371  58.640  24.518  1.00  0.00     0.285 HD
ATOM     20  H61 UNL     1      -1.208  58.937  25.582  1.00  0.00     0.285 HD
HETATM   21  O4  UNL     1       1.684  58.629  25.923  1.00  0.00    -0.306 OA
BRANCH  18  22
HETATM   22  C9  UNL     1       1.059  60.903  25.212  1.00  0.00     0.373 C 
BRANCH  22  23
HETATM   23  N7  UNL     1       2.469  61.214  25.178  1.00  0.00    -0.049 N 
ATOM     24  H73 UNL     1       2.964  60.809  25.973  1.00  0.00     0.277 HD
ATOM     25  H72 UNL     1       2.948  60.715  24.429  1.00  0.00     0.277 HD
ATOM     26  H71 UNL     1       2.616  62.222  25.116  1.00  0.00     0.277 HD
ENDBRANCH  22  23
BRANCH  22  27
HETATM   27  O3  UNL     1       0.607  60.835  23.919  1.00  0.00    -0.367 OA
ATOM     28  H3  UNL     1       1.047  61.404  23.299  1.00  0.00     0.212 HD
ENDBRANCH  22  27
ENDBRANCH  18  22
ENDBRANCH  10  16
BRANCH   1  29
HETATM   29  C1  UNL     1       1.805  53.207  29.390  1.00  0.00     0.345 C 
BRANCH  29  30
HETATM   30  N2  UNL     1       3.123  52.595  29.324  1.00  0.00    -0.108 NA
BRANCH  30  31
HETATM   31  N1  UNL     1       3.358  51.718  30.369  1.00  0.00    -0.346 N 
ATOM     32  H12 UNL     1       2.615  51.189  30.824  1.00  0.00     0.172 HD
ATOM     33  H11 UNL     1       4.345  51.665  30.624  1.00  0.00     0.172 HD
ENDBRANCH  30  31
ENDBRANCH  29  30
BRANCH  29  34
HETATM   34  N3  UNL     1       0.897  52.000  29.387  1.00  0.00    -0.054 N 
ATOM     35  H33 UNL     1       0.572  51.707  28.465  1.00  0.00     0.276 HD
ATOM     36  H32 UNL     1       1.352  51.116  29.614  1.00  0.00     0.276 HD
ATOM     37  H31 UNL     1       0.161  52.286  30.033  1.00  0.00     0.276 HD
ENDBRANCH  29  34
ENDBRANCH   1  29
TORSDOF 8
ENDMDL
MODEL 2
REMARK VINA RESULT: -5.760419826      3.404      7.877
REMARK  8 active torsions:
REMARK  status: ('A' for Active; 'I' for Inactive)
REMARK    1  A    between atoms: N1_1  and  N2_4 
REMARK    2  A    between atoms: N2_4  and  C1_5 
REMARK    3  A    between atoms: C1_5  and  N3_6 
REMARK    4  A    between atoms: C1_5  and  C2_10 
REMARK    5  A    between atoms: N5_19  and  C7_20 
REMARK    6  A    between atoms: C8_24  and  C9_25 
REMARK    7  A    between atoms: C9_25  and  N7_26 
REMARK    8  A    between atoms: C9_25  and  O3_30 
REMARK       I    between atoms: N8_34  and  C11_35 
ROOT
HETATM    1  C2  UNL     1      -1.885  62.405  26.192  1.00  0.00     0.071 A 
HETATM    2  C3  UNL     1      -0.672  63.007  25.978  1.00  0.00     0.050 A 
HETATM    3  C4  UNL     1       0.257  62.034  25.731  1.00  0.00     0.079 A 
HETATM    4  C5  UNL     1       1.614  62.169  25.453  1.00  0.00     0.263 A 
HETATM    5  O1  UNL     1       2.133  63.307  25.419  1.00  0.00    -0.267 OA
HETATM    6  N4  UNL     1       2.282  61.038  25.238  1.00  0.00    -0.274 N 
ATOM      7  H4  UNL     1       3.280  61.075  25.029  1.00  0.00     0.173 HD
HETATM    8  C6  UNL     1       1.663  59.854  25.290  1.00  0.00     0.334 A 
HETATM    9  O2  UNL     1       2.325  58.798  25.080  1.00  0.00    -0.246 OA
HETATM   10  N5  UNL     1       0.329  59.688  25.560  1.00  0.00    -0.232 N 
HETATM   11  C10 UNL     1      -0.397  60.794  25.792  1.00  0.00     0.141 A 
HETATM   12  N8  UNL     1      -1.711  61.045  26.078  1.00  0.00    -0.251 N 
HETATM   13  C11 UNL     1      -2.756  60.146  26.165  1.00  0.00     0.341 C 
HETATM   14  N9  UNL     1      -4.135  60.674  26.016  1.00  0.00    -0.039 NA
HETATM   15  O5  UNL     1      -2.800  58.948  26.336  1.00  0.00    -0.250 OA
ENDROOT
BRANCH  10  16
HETATM   16  C7  UNL     1      -0.227  58.369  25.506  1.00  0.00     0.446 C 
HETATM   17  N6  UNL     1       0.504  57.302  26.149  1.00  0.00     0.001 N 
HETATM   18  C8  UNL     1       0.051  56.561  24.969  1.00  0.00     0.385 C 
ATOM     19  H62 UNL     1       1.482  57.377  26.430  1.00  0.00     0.285 HD
ATOM     20  H61 UNL     1       0.334  56.998  27.107  1.00  0.00     0.285 HD
HETATM   21  O4  UNL     1       0.288  57.746  24.277  1.00  0.00    -0.306 OA
BRANCH  18  22
HETATM   22  C9  UNL     1       0.883  55.379  24.614  1.00  0.00     0.373 C 
BRANCH  22  23
HETATM   23  N7  UNL     1       0.565  54.909  23.285  1.00  0.00    -0.049 N 
ATOM     24  H73 UNL     1       1.278  55.180  22.608  1.00  0.00     0.277 HD
ATOM     25  H72 UNL     1       0.659  53.896  23.210  1.00  0.00     0.277 HD
ATOM     26  H71 UNL     1      -0.363  55.225  23.002  1.00  0.00     0.277 HD
ENDBRANCH  22  23
BRANCH  22  27
HETATM   27  O3  UNL     1       2.239  55.563  24.687  1.00  0.00    -0.367 OA
ATOM     28  H3  UNL     1       2.656  55.237  25.476  1.00  0.00     0.212 HD
ENDBRANCH  22  27
ENDBRANCH  18  22
ENDBRANCH  10  16
BRANCH   1  29
HETATM   29  C1  UNL     1      -3.076  63.194  26.506  1.00  0.00     0.345 C 
BRANCH  29  30
HETATM   30  N2  UNL     1      -3.414  64.043  25.374  1.00  0.00    -0.108 NA
BRANCH  30  31
HETATM   31  N1  UNL     1      -3.933  63.330  24.307  1.00  0.00    -0.346 N 
ATOM     32  H12 UNL     1      -4.828  62.842  24.352  1.00  0.00     0.172 HD
ATOM     33  H11 UNL     1      -3.327  63.349  23.487  1.00  0.00     0.172 HD
ENDBRANCH  30  31
ENDBRANCH  29  30
BRANCH  29  34
HETATM   34  N3  UNL     1      -2.668  64.208  27.548  1.00  0.00    -0.054 N 
ATOM     35  H33 UNL     1      -1.874  64.795  27.293  1.00  0.00     0.276 HD
ATOM     36  H32 UNL     1      -3.321  64.980  27.679  1.00  0.00     0.276 HD
ATOM     37  H31 UNL     1      -2.523  63.620  28.370  1.00  0.00     0.276 HD
ENDBRANCH  29  34
ENDBRANCH   1  29
TORSDOF 8
ENDMDL
MODEL 3
REMARK VINA RESULT: -5.560647057      3.584      6.083
REMARK  8 active torsions:
REMARK  status: ('A' for Active; 'I' for Inactive)
REMARK    1  A    between atoms: N1_1  and  N2_4 
REMARK    2  A    between atoms: N2_4  and  C1_5 
REMARK    3  A    between atoms: C1_5  and  N3_6 
REMARK    4  A    between atoms: C1_5  and  C2_10 
REMARK    5  A    between atoms: N5_19  and  C7_20 
REMARK    6  A    between atoms: C8_24  and  C9_25 
REMARK    7  A    between atoms: C9_25  and  N7_26 
REMARK    8  A    between atoms: C9_25  and  O3_30 
REMARK       I    between atoms: N8_34  and  C11_35 
ROOT
HETATM    1  C2  UNL     1       0.669  58.354  25.623  1.00  0.00     0.071 A 
HETATM    2  C3  UNL     1       1.834  59.057  25.463  1.00  0.00     0.050 A 
HETATM    3  C4  UNL     1       1.539  60.393  25.467  1.00  0.00     0.079 A 
HETATM    4  C5  UNL     1       2.399  61.480  25.342  1.00  0.00     0.263 A 
HETATM    5  O1  UNL     1       3.626  61.291  25.189  1.00  0.00    -0.267 OA
HETATM    6  N4  UNL     1       1.831  62.683  25.397  1.00  0.00    -0.274 N 
ATOM      7  H4  UNL     1       2.412  63.518  25.311  1.00  0.00     0.173 HD
HETATM    8  C6  UNL     1       0.511  62.813  25.563  1.00  0.00     0.334 A 
HETATM    9  O2  UNL     1       0.002  63.969  25.611  1.00  0.00    -0.246 OA
HETATM   10  N5  UNL     1      -0.361  61.762  25.689  1.00  0.00    -0.232 N 
HETATM   11  C10 UNL     1       0.153  60.523  25.637  1.00  0.00     0.141 A 
HETATM   12  N8  UNL     1      -0.363  59.259  25.729  1.00  0.00    -0.251 N 
HETATM   13  C11 UNL     1      -1.669  58.881  25.974  1.00  0.00     0.341 C 
HETATM   14  N9  UNL     1      -1.906  57.510  26.491  1.00  0.00    -0.039 NA
HETATM   15  O5  UNL     1      -2.728  59.458  25.862  1.00  0.00    -0.250 OA
ENDROOT
BRANCH  10  16
HETATM   16  C7  UNL     1      -1.743  62.040  25.944  1.00  0.00     0.446 C 
HETATM   17  N6  UNL     1      -2.159  63.423  25.972  1.00  0.00     0.001 N 
HETATM   18  C8  UNL     1      -2.990  62.935  27.076  1.00  0.00     0.385 C 
ATOM     19  H62 UNL     1      -1.511  64.207  26.055  1.00  0.00     0.285 HD
ATOM     20  H61 UNL     1      -2.530  63.918  25.161  1.00  0.00     0.285 HD
HETATM   21  O4  UNL     1      -1.888  62.149  27.404  1.00  0.00    -0.306 OA
BRANCH  18  22
HETATM   22  C9  UNL     1      -3.408  63.976  28.053  1.00  0.00     0.373 C 
BRANCH  22  23
HETATM   23  N7  UNL     1      -4.075  63.377  29.186  1.00  0.00    -0.049 N 
ATOM     24  H73 UNL     1      -4.604  64.066  29.720  1.00  0.00     0.277 HD
ATOM     25  H72 UNL     1      -4.849  62.780  28.896  1.00  0.00     0.277 HD
ATOM     26  H71 UNL     1      -3.409  62.875  29.773  1.00  0.00     0.277 HD
ENDBRANCH  22  23
BRANCH  22  27
HETATM   27  O3  UNL     1      -2.407  64.784  28.527  1.00  0.00    -0.367 OA
ATOM     28  H3  UNL     1      -1.885  65.222  27.866  1.00  0.00     0.212 HD
ENDBRANCH  22  27
ENDBRANCH  18  22
ENDBRANCH  10  16
BRANCH   1  29
HETATM   29  C1  UNL     1       0.663  56.891  25.636  1.00  0.00     0.345 C 
BRANCH  29  30
HETATM   30  N2  UNL     1       1.456  56.407  26.755  1.00  0.00    -0.108 NA
BRANCH  30  31
HETATM   31  N1  UNL     1       0.781  56.486  27.962  1.00  0.00    -0.346 N 
ATOM     32  H12 UNL     1      -0.118  56.957  28.062  1.00  0.00     0.172 HD
ATOM     33  H11 UNL     1       1.281  56.027  28.723  1.00  0.00     0.172 HD
ENDBRANCH  30  31
ENDBRANCH  29  30
BRANCH  29  34
HETATM   34  N3  UNL     1       1.483  56.440  24.451  1.00  0.00    -0.054 N 
ATOM     35  H33 UNL     1       2.486  56.373  24.620  1.00  0.00     0.276 HD
ATOM     36  H32 UNL     1       1.364  55.461  24.191  1.00  0.00     0.276 HD
ATOM     37  H31 UNL     1       1.209  57.113  23.734  1.00  0.00     0.276 HD
ENDBRANCH  29  34
ENDBRANCH   1  29
TORSDOF 8
ENDMDL
MODEL 4
REMARK VINA RESULT: -5.489363977      3.034      7.460
REMARK  8 active torsions:
REMARK  status: ('A' for Active; 'I' for Inactive)
REMARK    1  A    between atoms: N1_1  and  N2_4 
REMARK    2  A    between atoms: N2_4  and  C1_5 
REMARK    3  A    between atoms: C1_5  and  N3_6 
REMARK    4  A    between atoms: C1_5  and  C2_10 
REMARK    5  A    between atoms: N5_19  and  C7_20 
REMARK    6  A    between atoms: C8_24  and  C9_25 
REMARK    7  A    between atoms: C9_25  and  N7_26 
REMARK    8  A    between atoms: C9_25  and  O3_30 
REMARK       I    between atoms: N8_34  and  C11_35 
ROOT
HETATM    1  C2  UNL     1       0.064  61.909  25.793  1.00  0.00     0.071 A 
HETATM    2  C3  UNL     1      -1.222  61.696  26.217  1.00  0.00     0.050 A 
HETATM    3  C4  UNL     1      -1.468  60.351  26.196  1.00  0.00     0.079 A 
HETATM    4  C5  UNL     1      -2.629  59.667  26.547  1.00  0.00     0.263 A 
HETATM    5  O1  UNL     1      -3.634  60.303  26.934  1.00  0.00    -0.267 OA
HETATM    6  N4  UNL     1      -2.581  58.341  26.441  1.00  0.00    -0.274 N 
ATOM      7  H4  UNL     1      -3.402  57.787  26.684  1.00  0.00     0.173 HD
HETATM    8  C6  UNL     1      -1.471  57.726  26.020  1.00  0.00     0.334 A 
HETATM    9  O2  UNL     1      -1.457  56.465  25.930  1.00  0.00    -0.246 OA
HETATM   10  N5  UNL     1      -0.313  58.370  25.668  1.00  0.00    -0.232 N 
HETATM   11  C10 UNL     1      -0.303  59.710  25.749  1.00  0.00     0.141 A 
HETATM   12  N8  UNL     1       0.625  60.685  25.506  1.00  0.00    -0.251 N 
HETATM   13  C11 UNL     1       1.945  60.538  25.122  1.00  0.00     0.341 C 
HETATM   14  N9  UNL     1       2.868  61.672  25.374  1.00  0.00    -0.039 NA
HETATM   15  O5  UNL     1       2.554  59.629  24.603  1.00  0.00    -0.250 OA
ENDROOT
BRANCH  10  16
HETATM   16  C7  UNL     1       0.832  57.586  25.311  1.00  0.00     0.446 C 
HETATM   17  N6  UNL     1       0.723  56.720  24.160  1.00  0.00     0.001 N 
HETATM   18  C8  UNL     1       1.510  55.828  25.017  1.00  0.00     0.385 C 
ATOM     19  H62 UNL     1      -0.165  56.456  23.733  1.00  0.00     0.285 HD
ATOM     20  H61 UNL     1       1.005  56.993  23.219  1.00  0.00     0.285 HD
HETATM   21  O4  UNL     1       0.723  56.321  26.055  1.00  0.00    -0.306 OA
BRANCH  18  22
HETATM   22  C9  UNL     1       1.392  54.381  24.691  1.00  0.00     0.373 C 
BRANCH  22  23
HETATM   23  N7  UNL     1       0.186  53.825  25.258  1.00  0.00    -0.049 N 
ATOM     24  H73 UNL     1      -0.002  54.198  26.188  1.00  0.00     0.277 HD
ATOM     25  H72 UNL     1      -0.649  54.170  24.784  1.00  0.00     0.277 HD
ATOM     26  H71 UNL     1       0.224  52.805  25.261  1.00  0.00     0.277 HD
ENDBRANCH  22  23
BRANCH  22  27
HETATM   27  O3  UNL     1       1.418  54.068  23.356  1.00  0.00    -0.367 OA
ATOM     28  H3  UNL     1       0.572  54.015  22.929  1.00  0.00     0.212 HD
ENDBRANCH  22  27
ENDBRANCH  18  22
ENDBRANCH  10  16
BRANCH   1  29
HETATM   29  C1  UNL     1       0.612  63.261  25.687  1.00  0.00     0.345 C 
BRANCH  29  30
HETATM   30  N2  UNL     1      -0.155  64.168  26.527  1.00  0.00    -0.108 NA
BRANCH  30  31
HETATM   31  N1  UNL     1       0.255  65.485  26.404  1.00  0.00    -0.346 N 
ATOM     32  H12 UNL     1      -0.311  66.272  26.720  1.00  0.00     0.172 HD
ATOM     33  H11 UNL     1       1.173  65.573  25.968  1.00  0.00     0.172 HD
ENDBRANCH  30  31
ENDBRANCH  29  30
BRANCH  29  34
HETATM   34  N3  UNL     1       0.281  63.760  24.301  1.00  0.00    -0.054 N 
ATOM     35  H33 UNL     1      -0.693  64.027  24.159  1.00  0.00     0.276 HD
ATOM     36  H32 UNL     1       0.667  64.675  24.067  1.00  0.00     0.276 HD
ATOM     37  H31 UNL     1       0.608  62.991  23.715  1.00  0.00     0.276 HD
ENDBRANCH  29  34
ENDBRANCH   1  29
TORSDOF 8
ENDMDL
MODEL 5
REMARK VINA RESULT: -5.469907101      4.452      7.074
REMARK  8 active torsions:
REMARK  status: ('A' for Active; 'I' for Inactive)
REMARK    1  A    between atoms: N1_1  and  N2_4 
REMARK    2  A    between atoms: N2_4  and  C1_5 
REMARK    3  A    between atoms: C1_5  and  N3_6 
REMARK    4  A    between atoms: C1_5  and  C2_10 
REMARK    5  A    between atoms: N5_19  and  C7_20 
REMARK    6  A    between atoms: C8_24  and  C9_25 
REMARK    7  A    between atoms: C9_25  and  N7_26 
REMARK    8  A    between atoms: C9_25  and  O3_30 
REMARK       I    between atoms: N8_34  and  C11_35 
ROOT
HETATM    1  C2  UNL     1       0.269  59.563  25.723  1.00  0.00     0.071 A 
HETATM    2  C3  UNL     1      -1.063  59.654  26.032  1.00  0.00     0.050 A 
HETATM    3  C4  UNL     1      -1.391  60.976  26.153  1.00  0.00     0.079 A 
HETATM    4  C5  UNL     1      -2.624  61.549  26.450  1.00  0.00     0.263 A 
HETATM    5  O1  UNL     1      -3.617  60.818  26.660  1.00  0.00    -0.267 OA
HETATM    6  N4  UNL     1      -2.657  62.880  26.490  1.00  0.00    -0.274 N 
ATOM      7  H4  UNL     1      -3.534  63.355  26.703  1.00  0.00     0.173 HD
HETATM    8  C6  UNL     1      -1.555  63.600  26.256  1.00  0.00     0.334 A 
HETATM    9  O2  UNL     1      -1.618  64.862  26.301  1.00  0.00    -0.246 OA
HETATM   10  N5  UNL     1      -0.327  63.066  25.960  1.00  0.00    -0.232 N 
HETATM   11  C10 UNL     1      -0.231  61.728  25.911  1.00  0.00     0.141 A 
HETATM   12  N8  UNL     1       0.777  60.841  25.650  1.00  0.00    -0.251 N 
HETATM   13  C11 UNL     1       2.081  61.108  25.283  1.00  0.00     0.341 C 
HETATM   14  N9  UNL     1       2.844  60.030  24.606  1.00  0.00    -0.039 NA
HETATM   15  O5  UNL     1       2.782  62.091  25.388  1.00  0.00    -0.250 OA
ENDROOT
BRANCH  10  16
HETATM   16  C7  UNL     1       0.754  63.953  25.650  1.00  0.00     0.446 C 
HETATM   17  N6  UNL     1       0.693  65.299  26.170  1.00  0.00     0.001 N 
HETATM   18  C8  UNL     1       1.255  65.611  24.853  1.00  0.00     0.385 C 
ATOM     19  H62 UNL     1      -0.158  65.725  26.537  1.00  0.00     0.285 HD
ATOM     20  H61 UNL     1       1.122  65.585  27.049  1.00  0.00     0.285 HD
HETATM   21  O4  UNL     1       0.405  64.613  24.382  1.00  0.00    -0.306 OA
BRANCH  18  22
HETATM   22  C9  UNL     1       1.012  67.001  24.381  1.00  0.00     0.373 C 
BRANCH  22  23
HETATM   23  N7  UNL     1       1.412  67.151  23.001  1.00  0.00    -0.049 N 
ATOM     24  H73 UNL     1       1.595  68.127  22.765  1.00  0.00     0.277 HD
ATOM     25  H72 UNL     1       2.345  66.776  22.835  1.00  0.00     0.277 HD
ATOM     26  H71 UNL     1       0.720  66.736  22.377  1.00  0.00     0.277 HD
ENDBRANCH  22  23
BRANCH  22  27
HETATM   27  O3  UNL     1      -0.277  67.453  24.502  1.00  0.00    -0.367 OA
ATOM     28  H3  UNL     1      -0.535  68.129  23.887  1.00  0.00     0.212 HD
ENDBRANCH  22  27
ENDBRANCH  18  22
ENDBRANCH  10  16
BRANCH   1  29
HETATM   29  C1  UNL     1       0.919  58.264  25.552  1.00  0.00     0.345 C 
BRANCH  29  30
HETATM   30  N2  UNL     1       0.280  57.535  24.467  1.00  0.00    -0.108 NA
BRANCH  30  31
HETATM   31  N1  UNL     1       0.975  56.392  24.110  1.00  0.00    -0.346 N 
ATOM     32  H12 UNL     1       1.903  56.418  23.688  1.00  0.00     0.172 HD
ATOM     33  H11 UNL     1       0.458  55.536  24.316  1.00  0.00     0.172 HD
ENDBRANCH  30  31
ENDBRANCH  29  30
BRANCH  29  34
HETATM   34  N3  UNL     1       0.551  57.428  26.754  1.00  0.00    -0.054 N 
ATOM     35  H33 UNL     1      -0.438  57.442  27.002  1.00  0.00     0.276 HD
ATOM     36  H32 UNL     1       0.601  56.420  26.610  1.00  0.00     0.276 HD
ATOM     37  H31 UNL     1       1.181  57.795  27.468  1.00  0.00     0.276 HD
ENDBRANCH  29  34
ENDBRANCH   1  29
TORSDOF 8
ENDMDL
