MODEL 1
REMARK VINA RESULT: -6.288393879      0.000      0.000
REMARK  12 active torsions:
REMARK  status: ('A' for Active; 'I' for Inactive)
REMARK    1  A    between atoms: N1_1  and  N2_4 
REMARK    2  A    between atoms: N2_4  and  C1_6 
REMARK    3  A    between atoms: C2_9  and  C3_10 
REMARK    4  A    between atoms: C3_10  and  C4_11 
REMARK    5  A    between atoms: C4_11  and  O2_13 
REMARK    6  A    between atoms: O2_13  and  C5_14 
REMARK    7  A    between atoms: C5_14  and  C6_15 
REMARK    8  A    between atoms: C6_15  and  O3_16 
REMARK    9  A    between atoms: C6_15  and  O4_18 
REMARK   10  A    between atoms: C7_20  and  S1_21 
REMARK   11  A    between atoms: N4_26  and  N5_28 
REMARK   12  A    between atoms: N6_31  and  N7_32 
ROOT
HETATM    1  C1  UNL     1       1.086  53.783  24.909  1.00  0.00     0.719 A 
HETATM    2  N3  UNL     1       0.940  55.091  25.138  1.00  0.00    -0.190 N 
ATOM      3  H3  UNL     1       0.716  55.695  24.348  1.00  0.00     0.184 HD
HETATM    4  C2  UNL     1       1.072  55.653  26.347  1.00  0.00     0.064 A 
HETATM    5  C7  UNL     1       1.379  54.863  27.459  1.00  0.00     0.151 A 
HETATM    6  C8  UNL     1       1.529  53.502  27.199  1.00  0.00     0.185 A 
HETATM    7  N4  UNL     1       1.862  52.681  28.069  1.00  0.00    -0.289 N 
ATOM      8  H4  UNL     1       1.886  51.780  27.593  1.00  0.00     0.188 HD
HETATM    9  N6  UNL     1       1.374  53.001  25.919  1.00  0.00    -0.072 N 
ENDROOT
BRANCH   4  10
HETATM   10  C3  UNL     1       0.888  57.092  26.449  1.00  0.00     0.170 C 
BRANCH  10  11
HETATM   11  C4  UNL     1       0.963  57.847  25.193  1.00  0.00     0.264 C 
HETATM   12  O1  UNL     1       0.146  57.651  24.271  1.00  0.00    -0.265 OA
BRANCH  11  13
HETATM   13  O2  UNL     1       1.961  58.784  25.054  1.00  0.00    -0.316 OA
BRANCH  13  14
HETATM   14  C5  UNL     1       1.868  60.108  25.525  1.00  0.00     0.238 C 
BRANCH  14  15
HETATM   15  C6  UNL     1       3.121  60.831  25.012  1.00  0.00     0.278 C 
BRANCH  15  16
HETATM   16  O3  UNL     1       3.030  62.196  25.172  1.00  0.00    -0.369 OA
ATOM     17  H3  UNL     1       3.683  62.659  24.661  1.00  0.00     0.212 HD
ENDBRANCH  15  16
BRANCH  15  18
HETATM   18  O4  UNL     1       3.320  60.435  23.695  1.00  0.00    -0.369 OA
ATOM     19  H4  UNL     1       3.408  61.223  23.171  1.00  0.00     0.212 HD
ENDBRANCH  15  18
ENDBRANCH  14  15
ENDBRANCH  13  14
ENDBRANCH  11  13
ENDBRANCH  10  11
ENDBRANCH   4  10
BRANCH   5  20
HETATM   20  S1  UNL     1       1.582  55.510  29.040  1.00  0.00     0.143 S 
HETATM   21  O5  UNL     1       1.017  56.935  29.175  1.00  0.00    -0.591 OA
HETATM   22  O6  UNL     1       0.801  54.767  30.079  1.00  0.00    -0.591 OA
HETATM   23  O7  UNL     1       3.198  55.547  29.549  1.00  0.00    -0.591 OA
ENDBRANCH   5  20
BRANCH   1  24
HETATM   24  N2  UNL     1       0.936  53.342  23.704  1.00  0.00    -0.137 N 
ATOM     25  H2  UNL     1       1.002  52.344  23.509  1.00  0.00     0.205 HD
BRANCH  24  26
HETATM   26  N1  UNL     1       0.685  54.234  22.684  1.00  0.00    -0.331 N 
ATOM     27  H12 UNL     1       0.330  55.164  22.909  1.00  0.00     0.177 HD
ATOM     28  H11 UNL     1       0.857  53.952  21.719  1.00  0.00     0.177 HD
ENDBRANCH  24  26
ENDBRANCH   1  24
BRANCH   9  29
HETATM   29  N7  UNL     1       1.540  51.612  25.736  1.00  0.00    -0.322 N 
ATOM     30  H72 UNL     1       2.067  51.302  24.920  1.00  0.00     0.178 HD
ATOM     31  H71 UNL     1       1.144  50.945  26.399  1.00  0.00     0.178 HD
ENDBRANCH   9  29
BRANCH   7  32
HETATM   32  N5  UNL     1       2.195  52.428  29.309  1.00  0.00    -0.344 N 
ATOM     33  H52 UNL     1       1.754  53.186  29.829  1.00  0.00     0.176 HD
ATOM     34  H51 UNL     1       2.680  51.837  29.984  1.00  0.00     0.176 HD
ENDBRANCH   7  32
TORSDOF 12
ENDMDL
MODEL 2
REMARK VINA RESULT: -6.238362275      2.501      3.743
REMARK  12 active torsions:
REMARK  status: ('A' for Active; 'I' for Inactive)
REMARK    1  A    between atoms: N1_1  and  N2_4 
REMARK    2  A    between atoms: N2_4  and  C1_6 
REMARK    3  A    between atoms: C2_9  and  C3_10 
REMARK    4  A    between atoms: C3_10  and  C4_11 
REMARK    5  A    between atoms: C4_11  and  O2_13 
REMARK    6  A    between atoms: O2_13  and  C5_14 
REMARK    7  A    between atoms: C5_14  and  C6_15 
REMARK    8  A    between atoms: C6_15  and  O3_16 
REMARK    9  A    between atoms: C6_15  and  O4_18 
REMARK   10  A    between atoms: C7_20  and  S1_21 
REMARK   11  A    between atoms: N4_26  and  N5_28 
REMARK   12  A    between atoms: N6_31  and  N7_32 
ROOT
HETATM    1  C1  UNL     1       2.678  54.872  28.501  1.00  0.00     0.719 A 
HETATM    2  N3  UNL     1       2.005  55.827  27.854  1.00  0.00    -0.190 N 
ATOM      3  H3  UNL     1       2.022  56.772  28.238  1.00  0.00     0.184 HD
HETATM    4  C2  UNL     1       1.310  55.614  26.728  1.00  0.00     0.064 A 
HETATM    5  C7  UNL     1       1.259  54.336  26.166  1.00  0.00     0.151 A 
HETATM    6  C8  UNL     1       1.965  53.353  26.857  1.00  0.00     0.185 A 
HETATM    7  N4  UNL     1       1.966  52.159  26.519  1.00  0.00    -0.289 N 
ATOM      8  H4  UNL     1       2.562  51.687  27.199  1.00  0.00     0.188 HD
HETATM    9  N6  UNL     1       2.660  53.657  28.014  1.00  0.00    -0.072 N 
ENDROOT
BRANCH   4  10
HETATM   10  C3  UNL     1       0.623  56.749  26.131  1.00  0.00     0.170 C 
BRANCH  10  11
HETATM   11  C4  UNL     1       1.460  57.697  25.387  1.00  0.00     0.264 C 
HETATM   12  O1  UNL     1       1.793  57.477  24.204  1.00  0.00    -0.265 OA
BRANCH  11  13
HETATM   13  O2  UNL     1       1.873  58.843  26.026  1.00  0.00    -0.316 OA
BRANCH  13  14
HETATM   14  C5  UNL     1       1.574  60.145  25.577  1.00  0.00     0.238 C 
BRANCH  14  15
HETATM   15  C6  UNL     1       2.909  60.758  25.131  1.00  0.00     0.278 C 
BRANCH  15  16
HETATM   16  O3  UNL     1       2.904  62.131  25.231  1.00  0.00    -0.369 OA
ATOM     17  H3  UNL     1       2.311  62.437  25.908  1.00  0.00     0.212 HD
ENDBRANCH  15  16
BRANCH  15  18
HETATM   18  O4  UNL     1       3.173  60.292  23.848  1.00  0.00    -0.369 OA
ATOM     19  H4  UNL     1       2.456  60.570  23.292  1.00  0.00     0.212 HD
ENDBRANCH  15  18
ENDBRANCH  14  15
ENDBRANCH  13  14
ENDBRANCH  11  13
ENDBRANCH  10  11
ENDBRANCH   4  10
BRANCH   5  20
HETATM   20  S1  UNL     1       0.376  53.977  24.734  1.00  0.00     0.143 S 
HETATM   21  O5  UNL     1      -0.650  52.849  24.937  1.00  0.00    -0.591 OA
HETATM   22  O6  UNL     1      -0.493  55.110  24.284  1.00  0.00    -0.591 OA
HETATM   23  O7  UNL     1       1.364  53.545  23.425  1.00  0.00    -0.591 OA
ENDBRANCH   5  20
BRANCH   1  24
HETATM   24  N2  UNL     1       3.318  55.184  29.579  1.00  0.00    -0.137 N 
ATOM     25  H2  UNL     1       4.310  54.968  29.670  1.00  0.00     0.205 HD
BRANCH  24  26
HETATM   26  N1  UNL     1       2.647  55.812  30.606  1.00  0.00    -0.331 N 
ATOM     27  H12 UNL     1       1.980  56.552  30.388  1.00  0.00     0.177 HD
ATOM     28  H11 UNL     1       2.827  55.528  31.569  1.00  0.00     0.177 HD
ENDBRANCH  24  26
ENDBRANCH   1  24
BRANCH   9  29
HETATM   29  N7  UNL     1       3.352  52.608  28.656  1.00  0.00    -0.322 N 
ATOM     30  H72 UNL     1       3.933  52.847  29.460  1.00  0.00     0.178 HD
ATOM     31  H71 UNL     1       3.271  51.647  28.324  1.00  0.00     0.178 HD
ENDBRANCH   9  29
BRANCH   7  32
HETATM   32  N5  UNL     1       1.563  51.220  25.701  1.00  0.00    -0.344 N 
ATOM     33  H52 UNL     1       0.579  51.445  25.553  1.00  0.00     0.176 HD
ATOM     34  H51 UNL     1       1.770  50.385  25.153  1.00  0.00     0.176 HD
ENDBRANCH   7  32
TORSDOF 12
ENDMDL
MODEL 3
REMARK VINA RESULT: -6.126697756      2.594      3.819
REMARK  12 active torsions:
REMARK  status: ('A' for Active; 'I' for Inactive)
REMARK    1  A    between atoms: N1_1  and  N2_4 
REMARK    2  A    between atoms: N2_4  and  C1_6 
REMARK    3  A    between atoms: C2_9  and  C3_10 
REMARK    4  A    between atoms: C3_10  and  C4_11 
REMARK    5  A    between atoms: C4_11  and  O2_13 
REMARK    6  A    between atoms: O2_13  and  C5_14 
REMARK    7  A    between atoms: C5_14  and  C6_15 
REMARK    8  A    between atoms: C6_15  and  O3_16 
REMARK    9  A    between atoms: C6_15  and  O4_18 
REMARK   10  A    between atoms: C7_20  and  S1_21 
REMARK   11  A    between atoms: N4_26  and  N5_28 
REMARK   12  A    between atoms: N6_31  and  N7_32 
ROOT
HETATM    1  C1  UNL     1       1.904  54.876  28.137  1.00  0.00     0.719 A 
HETATM    2  N3  UNL     1       1.805  55.668  27.066  1.00  0.00    -0.190 N 
ATOM      3  H3  UNL     1       2.064  56.649  27.168  1.00  0.00     0.184 HD
HETATM    4  C2  UNL     1       1.385  55.246  25.866  1.00  0.00     0.064 A 
HETATM    5  C7  UNL     1       1.019  53.910  25.680  1.00  0.00     0.151 A 
HETATM    6  C8  UNL     1       1.127  53.100  26.810  1.00  0.00     0.185 A 
HETATM    7  N4  UNL     1       0.783  51.908  26.822  1.00  0.00    -0.289 N 
ATOM      8  H4  UNL     1       0.979  51.580  27.767  1.00  0.00     0.188 HD
HETATM    9  N6  UNL     1       1.573  53.616  28.014  1.00  0.00    -0.072 N 
ENDROOT
BRANCH   4  10
HETATM   10  C3  UNL     1       1.324  56.220  24.788  1.00  0.00     0.170 C 
BRANCH  10  11
HETATM   11  C4  UNL     1       0.945  57.586  25.167  1.00  0.00     0.264 C 
HETATM   12  O1  UNL     1      -0.132  57.819  25.755  1.00  0.00    -0.265 OA
BRANCH  11  13
HETATM   13  O2  UNL     1       1.807  58.612  24.859  1.00  0.00    -0.316 OA
BRANCH  13  14
HETATM   14  C5  UNL     1       1.787  59.873  25.488  1.00  0.00     0.238 C 
BRANCH  14  15
HETATM   15  C6  UNL     1       3.040  60.612  25.000  1.00  0.00     0.278 C 
BRANCH  15  16
HETATM   16  O3  UNL     1       2.947  61.971  25.200  1.00  0.00    -0.369 OA
ATOM     17  H3  UNL     1       3.440  62.254  25.961  1.00  0.00     0.212 HD
ENDBRANCH  15  16
BRANCH  15  18
HETATM   18  O4  UNL     1       3.244  60.255  23.672  1.00  0.00    -0.369 OA
ATOM     19  H4  UNL     1       3.146  59.312  23.613  1.00  0.00     0.212 HD
ENDBRANCH  15  18
ENDBRANCH  14  15
ENDBRANCH  13  14
ENDBRANCH  11  13
ENDBRANCH  10  11
ENDBRANCH   4  10
BRANCH   5  20
HETATM   20  S1  UNL     1       0.454  53.294  24.177  1.00  0.00     0.143 S 
HETATM   21  O5  UNL     1       1.203  52.023  23.738  1.00  0.00    -0.591 OA
HETATM   22  O6  UNL     1      -0.963  52.813  24.238  1.00  0.00    -0.591 OA
HETATM   23  O7  UNL     1       0.556  54.415  22.910  1.00  0.00    -0.591 OA
ENDBRANCH   5  20
BRANCH   1  24
HETATM   24  N2  UNL     1       2.323  55.384  29.249  1.00  0.00    -0.137 N 
ATOM     25  H2  UNL     1       1.658  55.649  29.976  1.00  0.00     0.205 HD
BRANCH  24  26
HETATM   26  N1  UNL     1       3.675  55.563  29.445  1.00  0.00    -0.331 N 
ATOM     27  H12 UNL     1       4.328  54.861  29.097  1.00  0.00     0.177 HD
ATOM     28  H11 UNL     1       4.004  56.396  29.934  1.00  0.00     0.177 HD
ENDBRANCH  24  26
ENDBRANCH   1  24
BRANCH   9  29
HETATM   29  N7  UNL     1       1.658  52.733  29.112  1.00  0.00    -0.322 N 
ATOM     30  H72 UNL     1       1.219  53.022  29.986  1.00  0.00     0.178 HD
ATOM     31  H71 UNL     1       2.141  51.839  29.029  1.00  0.00     0.178 HD
ENDBRANCH   9  29
BRANCH   7  32
HETATM   32  N5  UNL     1       0.287  50.873  26.192  1.00  0.00    -0.344 N 
ATOM     33  H52 UNL     1      -0.444  51.281  25.611  1.00  0.00     0.176 HD
ATOM     34  H51 UNL     1       0.292  49.869  26.015  1.00  0.00     0.176 HD
ENDBRANCH   7  32
TORSDOF 12
ENDMDL
MODEL 4
REMARK VINA RESULT: -6.060023395      1.387      1.595
REMARK  12 active torsions:
REMARK  status: ('A' for Active; 'I' for Inactive)
REMARK    1  A    between atoms: N1_1  and  N2_4 
REMARK    2  A    between atoms: N2_4  and  C1_6 
REMARK    3  A    between atoms: C2_9  and  C3_10 
REMARK    4  A    between atoms: C3_10  and  C4_11 
REMARK    5  A    between atoms: C4_11  and  O2_13 
REMARK    6  A    between atoms: O2_13  and  C5_14 
REMARK    7  A    between atoms: C5_14  and  C6_15 
REMARK    8  A    between atoms: C6_15  and  O3_16 
REMARK    9  A    between atoms: C6_15  and  O4_18 
REMARK   10  A    between atoms: C7_20  and  S1_21 
REMARK   11  A    between atoms: N4_26  and  N5_28 
REMARK   12  A    between atoms: N6_31  and  N7_32 
ROOT
HETATM    1  C1  UNL     1       0.099  53.880  23.860  1.00  0.00     0.719 A 
HETATM    2  N3  UNL     1       0.608  55.035  24.300  1.00  0.00    -0.190 N 
ATOM      3  H3  UNL     1       0.831  55.755  23.614  1.00  0.00     0.184 HD
HETATM    4  C2  UNL     1       0.842  55.298  25.593  1.00  0.00     0.064 A 
HETATM    5  C7  UNL     1       0.552  54.340  26.568  1.00  0.00     0.151 A 
HETATM    6  C8  UNL     1       0.025  53.142  26.088  1.00  0.00     0.185 A 
HETATM    7  N4  UNL     1      -0.226  52.173  26.822  1.00  0.00    -0.289 N 
ATOM      8  H4  UNL     1      -0.598  51.455  26.201  1.00  0.00     0.188 HD
HETATM    9  N6  UNL     1      -0.188  52.951  24.735  1.00  0.00    -0.072 N 
ENDROOT
BRANCH   4  10
HETATM   10  C3  UNL     1       1.402  56.597  25.929  1.00  0.00     0.170 C 
BRANCH  10  11
HETATM   11  C4  UNL     1       1.036  57.711  25.045  1.00  0.00     0.264 C 
HETATM   12  O1  UNL     1      -0.066  57.737  24.460  1.00  0.00    -0.265 OA
BRANCH  11  13
HETATM   13  O2  UNL     1       1.941  58.732  24.874  1.00  0.00    -0.316 OA
BRANCH  13  14
HETATM   14  C5  UNL     1       1.847  59.982  25.519  1.00  0.00     0.238 C 
BRANCH  14  15
HETATM   15  C6  UNL     1       3.074  60.787  25.067  1.00  0.00     0.278 C 
BRANCH  15  16
HETATM   16  O3  UNL     1       2.894  62.141  25.242  1.00  0.00    -0.369 OA
ATOM     17  H3  UNL     1       2.557  62.347  26.106  1.00  0.00     0.212 HD
ENDBRANCH  15  16
BRANCH  15  18
HETATM   18  O4  UNL     1       3.349  60.424  23.754  1.00  0.00    -0.369 OA
ATOM     19  H4  UNL     1       2.562  60.579  23.245  1.00  0.00     0.212 HD
ENDBRANCH  15  18
ENDBRANCH  14  15
ENDBRANCH  13  14
ENDBRANCH  11  13
ENDBRANCH  10  11
ENDBRANCH   4  10
BRANCH   5  20
HETATM   20  S1  UNL     1       0.839  54.595  28.245  1.00  0.00     0.143 S 
HETATM   21  O5  UNL     1      -0.401  54.307  29.109  1.00  0.00    -0.591 OA
HETATM   22  O6  UNL     1       1.844  53.643  28.817  1.00  0.00    -0.591 OA
HETATM   23  O7  UNL     1       1.365  56.165  28.607  1.00  0.00    -0.591 OA
ENDBRANCH   5  20
BRANCH   1  24
HETATM   24  N2  UNL     1      -0.089  53.728  22.590  1.00  0.00    -0.137 N 
ATOM     25  H2  UNL     1      -0.622  52.932  22.241  1.00  0.00     0.205 HD
BRANCH  24  26
HETATM   26  N1  UNL     1       0.436  54.652  21.713  1.00  0.00    -0.331 N 
ATOM     27  H12 UNL     1       1.441  54.665  21.543  1.00  0.00     0.177 HD
ATOM     28  H11 UNL     1      -0.188  55.311  21.247  1.00  0.00     0.177 HD
ENDBRANCH  24  26
ENDBRANCH   1  24
BRANCH   9  29
HETATM   29  N7  UNL     1      -0.728  51.712  24.327  1.00  0.00    -0.322 N 
ATOM     30  H72 UNL     1      -0.241  51.205  23.589  1.00  0.00     0.178 HD
ATOM     31  H71 UNL     1      -1.575  51.342  24.759  1.00  0.00     0.178 HD
ENDBRANCH   9  29
BRANCH   7  32
HETATM   32  N5  UNL     1      -0.239  51.639  28.017  1.00  0.00    -0.344 N 
ATOM     33  H52 UNL     1       0.750  51.584  28.259  1.00  0.00     0.176 HD
ATOM     34  H51 UNL     1      -0.766  51.261  28.803  1.00  0.00     0.176 HD
ENDBRANCH   7  32
TORSDOF 12
ENDMDL
MODEL 5
REMARK VINA RESULT: -5.973650469      4.601      6.868
REMARK  12 active torsions:
REMARK  status: ('A' for Active; 'I' for Inactive)
REMARK    1  A    between atoms: N1_1  and  N2_4 
REMARK    2  A    between atoms: N2_4  and  C1_6 
REMARK    3  A    between atoms: C2_9  and  C3_10 
REMARK    4  A    between atoms: C3_10  and  C4_11 
REMARK    5  A    between atoms: C4_11  and  O2_13 
REMARK    6  A    between atoms: O2_13  and  C5_14 
REMARK    7  A    between atoms: C5_14  and  C6_15 
REMARK    8  A    between atoms: C6_15  and  O3_16 
REMARK    9  A    between atoms: C6_15  and  O4_18 
REMARK   10  A    between atoms: C7_20  and  S1_21 
REMARK   11  A    between atoms: N4_26  and  N5_28 
REMARK   12  A    between atoms: N6_31  and  N7_32 
ROOT
HETATM    1  C1  UNL     1       2.159  60.887  25.292  1.00  0.00     0.719 A 
HETATM    2  N3  UNL     1       2.080  59.573  25.520  1.00  0.00    -0.190 N 
ATOM      3  H3  UNL     1       2.904  59.002  25.334  1.00  0.00     0.184 HD
HETATM    4  C2  UNL     1       0.979  58.963  25.979  1.00  0.00     0.064 A 
HETATM    5  C7  UNL     1      -0.174  59.706  26.247  1.00  0.00     0.151 A 
HETATM    6  C8  UNL     1      -0.072  61.074  26.001  1.00  0.00     0.185 A 
HETATM    7  N4  UNL     1      -1.027  61.856  26.132  1.00  0.00    -0.289 N 
ATOM      8  H4  UNL     1      -0.657  62.775  25.889  1.00  0.00     0.188 HD
HETATM    9  N6  UNL     1       1.105  61.626  25.528  1.00  0.00    -0.072 N 
ENDROOT
BRANCH   4  10
HETATM   10  C3  UNL     1       1.034  57.524  26.178  1.00  0.00     0.170 C 
BRANCH  10  11
HETATM   11  C4  UNL     1       1.056  56.700  24.964  1.00  0.00     0.264 C 
HETATM   12  O1  UNL     1       0.546  57.104  23.898  1.00  0.00    -0.265 OA
BRANCH  11  13
HETATM   13  O2  UNL     1       1.655  55.463  25.025  1.00  0.00    -0.316 OA
BRANCH  13  14
HETATM   14  C5  UNL     1       0.967  54.270  25.324  1.00  0.00     0.238 C 
BRANCH  14  15
HETATM   15  C6  UNL     1       0.380  53.773  23.997  1.00  0.00     0.278 C 
BRANCH  15  16
HETATM   16  O3  UNL     1       1.179  54.103  22.924  1.00  0.00    -0.369 OA
ATOM     17  H3  UNL     1       2.093  54.177  23.171  1.00  0.00     0.212 HD
ENDBRANCH  15  16
BRANCH  15  18
HETATM   18  O4  UNL     1      -0.915  54.269  23.902  1.00  0.00    -0.369 OA
ATOM     19  H4  UNL     1      -1.289  53.935  23.096  1.00  0.00     0.212 HD
ENDBRANCH  15  18
ENDBRANCH  14  15
ENDBRANCH  13  14
ENDBRANCH  11  13
ENDBRANCH  10  11
ENDBRANCH   4  10
BRANCH   5  20
HETATM   20  S1  UNL     1      -1.632  58.996  26.822  1.00  0.00     0.143 S 
HETATM   21  O5  UNL     1      -2.175  59.693  28.082  1.00  0.00    -0.591 OA
HETATM   22  O6  UNL     1      -2.774  59.152  25.866  1.00  0.00    -0.591 OA
HETATM   23  O7  UNL     1      -1.485  57.344  27.170  1.00  0.00    -0.591 OA
ENDBRANCH   5  20
BRANCH   1  24
HETATM   24  N2  UNL     1       3.271  61.375  24.850  1.00  0.00    -0.137 N 
ATOM     25  H2  UNL     1       3.711  62.164  25.323  1.00  0.00     0.205 HD
BRANCH  24  26
HETATM   26  N1  UNL     1       3.856  60.820  23.733  1.00  0.00    -0.331 N 
ATOM     27  H12 UNL     1       3.361  60.851  22.842  1.00  0.00     0.177 HD
ATOM     28  H11 UNL     1       4.776  60.387  23.813  1.00  0.00     0.177 HD
ENDBRANCH  24  26
ENDBRANCH   1  24
BRANCH   9  29
HETATM   29  N7  UNL     1       1.130  63.019  25.306  1.00  0.00    -0.322 N 
ATOM     30  H72 UNL     1       1.620  63.356  24.477  1.00  0.00     0.178 HD
ATOM     31  H71 UNL     1       0.674  63.661  25.953  1.00  0.00     0.178 HD
ENDBRANCH   9  29
BRANCH   7  32
HETATM   32  N5  UNL     1      -2.284  62.058  26.435  1.00  0.00    -0.344 N 
ATOM     33  H52 UNL     1      -2.731  62.159  25.524  1.00  0.00     0.176 HD
ATOM     34  H51 UNL     1      -3.011  62.158  27.143  1.00  0.00     0.176 HD
ENDBRANCH   7  32
TORSDOF 12
ENDMDL
