MODEL 1
REMARK VINA RESULT: -9.219525104      0.000      0.000
REMARK  5 active torsions:
REMARK  status: ('A' for Active; 'I' for Inactive)
REMARK    1  A    between atoms: C2_2  and  N1_4 
REMARK    2  A    between atoms: C6_11  and  C7_12 
REMARK    3  A    between atoms: C17_24  and  C18_25 
REMARK    4  A    between atoms: C18_25  and  N4_26 
REMARK       I    between atoms: N4_26  and  C19_28 
REMARK    5  A    between atoms: C19_28  and  C20_30 
ROOT
HETATM    1  N1  UNL     1      16.122 -14.233  19.698  1.00  0.00    -0.289 N 
HETATM    2  C4  UNL     1      15.495 -15.275  20.477  1.00  0.00     0.254 C 
HETATM    3  O1  UNL     1      15.002 -14.893  21.574  1.00  0.00    -0.271 OA
HETATM    4  C5  UNL     1      15.390 -16.704  20.093  1.00  0.00     0.336 C 
HETATM    5  N2  UNL     1      15.061 -17.463  21.256  1.00  0.00    -0.060 N 
ATOM      6  H21 UNL     1      14.174 -17.949  21.127  1.00  0.00     0.278 HD
ATOM      7  H22 UNL     1      14.810 -16.846  22.028  1.00  0.00     0.278 HD
HETATM    8  C6  UNL     1      16.112 -18.406  21.670  1.00  0.00     0.220 C 
HETATM    9  C13 UNL     1      16.855 -17.870  22.840  1.00  0.00     0.062 C 
HETATM   10  C14 UNL     1      18.303 -18.092  22.873  1.00  0.00    -0.028 C 
HETATM   11  C15 UNL     1      19.247 -17.724  22.057  1.00  0.00    -0.030 C 
HETATM   12  C16 UNL     1      19.175 -16.949  20.804  1.00  0.00     0.038 C 
HETATM   13  C17 UNL     1      18.712 -15.519  20.959  1.00  0.00     0.042 C 
HETATM   14  C23 UNL     1      18.536 -14.946  19.601  1.00  0.00    -0.025 A 
HETATM   15  C24 UNL     1      19.711 -14.988  18.844  1.00  0.00     0.010 A 
HETATM   16  C25 UNL     1      19.787 -14.502  17.549  1.00  0.00     0.001 A 
HETATM   17  C26 UNL     1      18.650 -13.958  17.002  1.00  0.00     0.002 A 
HETATM   18  C27 UNL     1      17.485 -13.919  17.767  1.00  0.00     0.030 A 
HETATM   19  C28 UNL     1      17.404 -14.403  19.059  1.00  0.00     0.048 A 
ENDROOT
BRANCH   8  20
HETATM   20  C7  UNL     1      15.339 -19.681  22.070  1.00  0.00     0.169 C 
HETATM   21  C8  UNL     1      14.512 -20.207  20.961  1.00  0.00     0.150 C 
HETATM   22  N3  UNL     1      13.312 -20.871  21.317  1.00  0.00    -0.408 N 
HETATM   23  C9  UNL     1      12.139 -20.460  20.620  1.00  0.00     0.143 C 
HETATM   24  C10 UNL     1      13.135 -21.233  22.669  1.00  0.00     0.098 C 
HETATM   25  C11 UNL     1      12.998 -22.755  22.738  1.00  0.00     0.034 C 
HETATM   26  C12 UNL     1      14.135 -20.715  23.639  1.00  0.00     0.192 C 
HETATM   27  O2  UNL     1      14.572 -19.446  23.197  1.00  0.00    -0.380 OA
ENDBRANCH   8  20
BRANCH   1  28
HETATM   28  C2  UNL     1      15.444 -12.936  19.644  1.00  0.00    -0.010 C 
HETATM   29  C1  UNL     1      14.034 -12.952  19.208  1.00  0.00     0.063 C 
HETATM   30  C3  UNL     1      15.743 -12.014  20.816  1.00  0.00     0.063 C 
ENDBRANCH   1  28
BRANCH  13  31
HETATM   31  C18 UNL     1      19.888 -14.831  21.680  1.00  0.00     0.132 C 
BRANCH  31  32
HETATM   32  N4  UNL     1      19.697 -14.728  23.086  1.00  0.00    -0.360 N 
HETATM   33  C19 UNL     1      20.773 -14.988  23.952  1.00  0.00     0.221 C 
HETATM   34  O3  UNL     1      21.903 -15.312  23.521  1.00  0.00    -0.273 OA
ATOM     35  H4  UNL     1      18.786 -14.467  23.463  1.00  0.00     0.162 HD
BRANCH  33  36
HETATM   36  C20 UNL     1      20.580 -14.881  25.415  1.00  0.00     0.078 A 
HETATM   37  C21 UNL     1      21.868 -14.852  26.196  1.00  0.00     0.015 A 
HETATM   38  C22 UNL     1      20.990 -13.682  26.175  1.00  0.00     0.015 A 
ENDBRANCH  33  36
ENDBRANCH  31  32
ENDBRANCH  13  31
TORSDOF 5
ENDMDL
MODEL 2
REMARK VINA RESULT: -9.065611329      1.103      1.348
REMARK  5 active torsions:
REMARK  status: ('A' for Active; 'I' for Inactive)
REMARK    1  A    between atoms: C2_2  and  N1_4 
REMARK    2  A    between atoms: C6_11  and  C7_12 
REMARK    3  A    between atoms: C17_24  and  C18_25 
REMARK    4  A    between atoms: C18_25  and  N4_26 
REMARK       I    between atoms: N4_26  and  C19_28 
REMARK    5  A    between atoms: C19_28  and  C20_30 
ROOT
HETATM    1  N1  UNL     1      16.293 -14.357  19.582  1.00  0.00    -0.289 N 
HETATM    2  C4  UNL     1      15.761 -15.498  20.290  1.00  0.00     0.254 C 
HETATM    3  O1  UNL     1      15.251 -15.234  21.414  1.00  0.00    -0.271 OA
HETATM    4  C5  UNL     1      15.769 -16.901  19.808  1.00  0.00     0.336 C 
HETATM    5  N2  UNL     1      15.516 -17.763  20.917  1.00  0.00    -0.060 N 
ATOM      6  H21 UNL     1      14.670 -18.309  20.760  1.00  0.00     0.278 HD
ATOM      7  H22 UNL     1      15.223 -17.222  21.731  1.00  0.00     0.278 HD
HETATM    8  C6  UNL     1      16.645 -18.642  21.259  1.00  0.00     0.220 C 
HETATM    9  C13 UNL     1      17.355 -18.128  22.460  1.00  0.00     0.062 C 
HETATM   10  C14 UNL     1      18.816 -18.233  22.470  1.00  0.00    -0.028 C 
HETATM   11  C15 UNL     1      19.718 -17.734  21.675  1.00  0.00    -0.030 C 
HETATM   12  C16 UNL     1      19.569 -16.882  20.480  1.00  0.00     0.038 C 
HETATM   13  C17 UNL     1      18.993 -15.510  20.737  1.00  0.00     0.042 C 
HETATM   14  C23 UNL     1      18.756 -14.860  19.422  1.00  0.00    -0.025 A 
HETATM   15  C24 UNL     1      19.922 -14.754  18.658  1.00  0.00     0.010 A 
HETATM   16  C25 UNL     1      19.943 -14.175  17.400  1.00  0.00     0.001 A 
HETATM   17  C26 UNL     1      18.761 -13.690  16.899  1.00  0.00     0.002 A 
HETATM   18  C27 UNL     1      17.604 -13.799  17.670  1.00  0.00     0.030 A 
HETATM   19  C28 UNL     1      17.577 -14.377  18.926  1.00  0.00     0.048 A 
ENDROOT
BRANCH   8  20
HETATM   20  C7  UNL     1      15.982 -20.000  21.574  1.00  0.00     0.169 C 
HETATM   21  C8  UNL     1      14.886 -19.874  22.560  1.00  0.00     0.150 C 
HETATM   22  N3  UNL     1      14.667 -20.979  23.419  1.00  0.00    -0.408 N 
HETATM   23  C9  UNL     1      14.558 -20.681  24.808  1.00  0.00     0.143 C 
HETATM   24  C10 UNL     1      15.295 -22.200  23.095  1.00  0.00     0.098 C 
HETATM   25  C11 UNL     1      14.203 -23.248  22.865  1.00  0.00     0.034 C 
HETATM   26  C12 UNL     1      16.287 -22.172  21.988  1.00  0.00     0.192 C 
HETATM   27  O2  UNL     1      16.930 -20.914  21.996  1.00  0.00    -0.380 OA
ENDBRANCH   8  20
BRANCH   1  28
HETATM   28  C2  UNL     1      15.511 -13.119  19.622  1.00  0.00    -0.010 C 
HETATM   29  C1  UNL     1      14.078 -13.240  19.293  1.00  0.00     0.063 C 
HETATM   30  C3  UNL     1      15.825 -12.207  20.798  1.00  0.00     0.063 C 
ENDBRANCH   1  28
BRANCH  13  31
HETATM   31  C18 UNL     1      20.117 -14.778  21.497  1.00  0.00     0.132 C 
BRANCH  31  32
HETATM   32  N4  UNL     1      19.857 -14.652  22.891  1.00  0.00    -0.360 N 
HETATM   33  C19 UNL     1      20.856 -14.999  23.816  1.00  0.00     0.221 C 
HETATM   34  O3  UNL     1      21.976 -15.422  23.450  1.00  0.00    -0.273 OA
ATOM     35  H4  UNL     1      18.952 -14.311  23.215  1.00  0.00     0.162 HD
BRANCH  33  36
HETATM   36  C20 UNL     1      20.590 -14.867  25.265  1.00  0.00     0.078 A 
HETATM   37  C21 UNL     1      21.836 -14.872  26.112  1.00  0.00     0.015 A 
HETATM   38  C22 UNL     1      21.001 -13.674  26.033  1.00  0.00     0.015 A 
ENDBRANCH  33  36
ENDBRANCH  31  32
ENDBRANCH  13  31
TORSDOF 5
ENDMDL
MODEL 3
REMARK VINA RESULT: -8.527899269      2.322      6.111
REMARK  5 active torsions:
REMARK  status: ('A' for Active; 'I' for Inactive)
REMARK    1  A    between atoms: C2_2  and  N1_4 
REMARK    2  A    between atoms: C6_11  and  C7_12 
REMARK    3  A    between atoms: C17_24  and  C18_25 
REMARK    4  A    between atoms: C18_25  and  N4_26 
REMARK       I    between atoms: N4_26  and  C19_28 
REMARK    5  A    between atoms: C19_28  and  C20_30 
ROOT
HETATM    1  N1  UNL     1      21.626 -17.761  24.402  1.00  0.00    -0.289 N 
HETATM    2  C4  UNL     1      20.619 -18.691  23.947  1.00  0.00     0.254 C 
HETATM    3  O1  UNL     1      20.913 -19.318  22.892  1.00  0.00    -0.271 OA
HETATM    4  C5  UNL     1      19.317 -18.955  24.608  1.00  0.00     0.336 C 
HETATM    5  N2  UNL     1      18.465 -19.625  23.680  1.00  0.00    -0.060 N 
ATOM      6  H21 UNL     1      18.191 -20.538  24.041  1.00  0.00     0.278 HD
ATOM      7  H22 UNL     1      18.991 -19.916  22.856  1.00  0.00     0.278 HD
HETATM    8  C6  UNL     1      17.280 -18.846  23.288  1.00  0.00     0.220 C 
HETATM    9  C13 UNL     1      17.468 -18.266  21.932  1.00  0.00     0.062 C 
HETATM   10  C14 UNL     1      16.962 -16.909  21.708  1.00  0.00    -0.028 C 
HETATM   11  C15 UNL     1      17.259 -15.777  22.276  1.00  0.00    -0.030 C 
HETATM   12  C16 UNL     1      18.221 -15.474  23.353  1.00  0.00     0.038 C 
HETATM   13  C17 UNL     1      19.671 -15.715  23.005  1.00  0.00     0.042 C 
HETATM   14  C23 UNL     1      20.474 -15.526  24.240  1.00  0.00    -0.025 A 
HETATM   15  C24 UNL     1      20.320 -14.250  24.790  1.00  0.00     0.010 A 
HETATM   16  C25 UNL     1      20.980 -13.844  25.939  1.00  0.00     0.001 A 
HETATM   17  C26 UNL     1      21.816 -14.746  26.549  1.00  0.00     0.002 A 
HETATM   18  C27 UNL     1      21.964 -16.015  25.990  1.00  0.00     0.030 A 
HETATM   19  C28 UNL     1      21.308 -16.426  24.844  1.00  0.00     0.048 A 
ENDROOT
BRANCH   8  20
HETATM   20  C7  UNL     1      16.137 -19.883  23.269  1.00  0.00     0.169 C 
HETATM   21  C8  UNL     1      15.526 -20.019  21.927  1.00  0.00     0.150 C 
HETATM   22  N3  UNL     1      14.149 -20.348  21.882  1.00  0.00    -0.408 N 
HETATM   23  C9  UNL     1      13.340 -19.541  21.030  1.00  0.00     0.143 C 
HETATM   24  C10 UNL     1      13.539 -20.797  23.071  1.00  0.00     0.098 C 
HETATM   25  C11 UNL     1      13.014 -22.214  22.829  1.00  0.00     0.034 C 
HETATM   26  C12 UNL     1      14.345 -20.703  24.316  1.00  0.00     0.192 C 
HETATM   27  O2  UNL     1      15.185 -19.570  24.221  1.00  0.00    -0.380 OA
ENDBRANCH   8  20
BRANCH   1  28
HETATM   28  C2  UNL     1      23.023 -18.191  24.316  1.00  0.00    -0.010 C 
HETATM   29  C1  UNL     1      24.010 -17.145  23.986  1.00  0.00     0.063 C 
HETATM   30  C3  UNL     1      23.457 -19.161  25.405  1.00  0.00     0.063 C 
ENDBRANCH   1  28
BRANCH  13  31
HETATM   31  C18 UNL     1      19.992 -14.604  21.986  1.00  0.00     0.132 C 
BRANCH  31  32
HETATM   32  N4  UNL     1      19.836 -15.025  20.635  1.00  0.00    -0.360 N 
HETATM   33  C19 UNL     1      20.109 -14.122  19.593  1.00  0.00     0.221 C 
HETATM   34  O3  UNL     1      20.487 -12.950  19.817  1.00  0.00    -0.273 OA
ATOM     35  H4  UNL     1      19.528 -15.974  20.425  1.00  0.00     0.162 HD
BRANCH  33  36
HETATM   36  C20 UNL     1      19.950 -14.555  18.187  1.00  0.00     0.078 A 
HETATM   37  C21 UNL     1      18.760 -13.943  17.496  1.00  0.00     0.015 A 
HETATM   38  C22 UNL     1      20.117 -13.621  17.055  1.00  0.00     0.015 A 
ENDBRANCH  33  36
ENDBRANCH  31  32
ENDBRANCH  13  31
TORSDOF 5
ENDMDL
MODEL 4
REMARK VINA RESULT: -8.398617388      2.731      6.345
REMARK  5 active torsions:
REMARK  status: ('A' for Active; 'I' for Inactive)
REMARK    1  A    between atoms: C2_2  and  N1_4 
REMARK    2  A    between atoms: C6_11  and  C7_12 
REMARK    3  A    between atoms: C17_24  and  C18_25 
REMARK    4  A    between atoms: C18_25  and  N4_26 
REMARK       I    between atoms: N4_26  and  C19_28 
REMARK    5  A    between atoms: C19_28  and  C20_30 
ROOT
HETATM    1  N1  UNL     1      21.801 -17.746  24.449  1.00  0.00    -0.289 N 
HETATM    2  C4  UNL     1      20.835 -18.703  23.961  1.00  0.00     0.254 C 
HETATM    3  O1  UNL     1      21.172 -19.306  22.905  1.00  0.00    -0.271 OA
HETATM    4  C5  UNL     1      19.528 -19.017  24.590  1.00  0.00     0.336 C 
HETATM    5  N2  UNL     1      18.719 -19.703  23.636  1.00  0.00    -0.060 N 
ATOM      6  H21 UNL     1      18.467 -20.629  23.980  1.00  0.00     0.278 HD
ATOM      7  H22 UNL     1      19.272 -19.966  22.820  1.00  0.00     0.278 HD
HETATM    8  C6  UNL     1      17.518 -18.958  23.227  1.00  0.00     0.220 C 
HETATM    9  C13 UNL     1      17.716 -18.355  21.883  1.00  0.00     0.062 C 
HETATM   10  C14 UNL     1      17.170 -17.013  21.663  1.00  0.00    -0.028 C 
HETATM   11  C15 UNL     1      17.418 -15.879  22.251  1.00  0.00    -0.030 C 
HETATM   12  C16 UNL     1      18.346 -15.558  23.352  1.00  0.00     0.038 C 
HETATM   13  C17 UNL     1      19.811 -15.748  23.034  1.00  0.00     0.042 C 
HETATM   14  C23 UNL     1      20.580 -15.548  24.288  1.00  0.00    -0.025 A 
HETATM   15  C24 UNL     1      20.373 -14.285  24.850  1.00  0.00     0.010 A 
HETATM   16  C25 UNL     1      20.993 -13.872  26.018  1.00  0.00     0.001 A 
HETATM   17  C26 UNL     1      21.846 -14.754  26.635  1.00  0.00     0.002 A 
HETATM   18  C27 UNL     1      22.047 -16.010  26.065  1.00  0.00     0.030 A 
HETATM   19  C28 UNL     1      21.430 -16.428  24.900  1.00  0.00     0.048 A 
ENDROOT
BRANCH   8  20
HETATM   20  C7  UNL     1      16.410 -20.031  23.170  1.00  0.00     0.169 C 
HETATM   21  C8  UNL     1      15.404 -19.857  24.242  1.00  0.00     0.150 C 
HETATM   22  N3  UNL     1      14.787 -21.032  24.737  1.00  0.00    -0.408 N 
HETATM   23  C9  UNL     1      14.755 -21.173  26.155  1.00  0.00     0.143 C 
HETATM   24  C10 UNL     1      14.950 -22.223  24.000  1.00  0.00     0.098 C 
HETATM   25  C11 UNL     1      13.565 -22.702  23.560  1.00  0.00     0.034 C 
HETATM   26  C12 UNL     1      15.916 -22.186  22.870  1.00  0.00     0.192 C 
HETATM   27  O2  UNL     1      16.962 -21.297  23.205  1.00  0.00    -0.380 OA
ENDBRANCH   8  20
BRANCH   1  28
HETATM   28  C2  UNL     1      23.213 -18.129  24.390  1.00  0.00    -0.010 C 
HETATM   29  C1  UNL     1      24.164 -17.064  24.019  1.00  0.00     0.063 C 
HETATM   30  C3  UNL     1      23.673 -19.036  25.520  1.00  0.00     0.063 C 
ENDBRANCH   1  28
BRANCH  13  31
HETATM   31  C18 UNL     1      20.117 -14.614  22.035  1.00  0.00     0.132 C 
BRANCH  31  32
HETATM   32  N4  UNL     1      20.020 -15.027  20.677  1.00  0.00    -0.360 N 
HETATM   33  C19 UNL     1      20.142 -14.072  19.653  1.00  0.00     0.221 C 
HETATM   34  O3  UNL     1      20.331 -12.860  19.900  1.00  0.00    -0.273 OA
ATOM     35  H4  UNL     1      19.865 -16.008  20.448  1.00  0.00     0.162 HD
BRANCH  33  36
HETATM   36  C20 UNL     1      20.044 -14.497  18.239  1.00  0.00     0.078 A 
HETATM   37  C21 UNL     1      18.786 -14.032  17.552  1.00  0.00     0.015 A 
HETATM   38  C22 UNL     1      20.091 -13.528  17.124  1.00  0.00     0.015 A 
ENDBRANCH  33  36
ENDBRANCH  31  32
ENDBRANCH  13  31
TORSDOF 5
ENDMDL
MODEL 5
REMARK VINA RESULT: -8.397142455      1.390      1.551
REMARK  5 active torsions:
REMARK  status: ('A' for Active; 'I' for Inactive)
REMARK    1  A    between atoms: C2_2  and  N1_4 
REMARK    2  A    between atoms: C6_11  and  C7_12 
REMARK    3  A    between atoms: C17_24  and  C18_25 
REMARK    4  A    between atoms: C18_25  and  N4_26 
REMARK       I    between atoms: N4_26  and  C19_28 
REMARK    5  A    between atoms: C19_28  and  C20_30 
ROOT
HETATM    1  N1  UNL     1      16.373 -14.298  19.451  1.00  0.00    -0.289 N 
HETATM    2  C4  UNL     1      15.941 -15.507  20.113  1.00  0.00     0.254 C 
HETATM    3  O1  UNL     1      15.475 -15.340  21.274  1.00  0.00    -0.271 OA
HETATM    4  C5  UNL     1      16.000 -16.877  19.546  1.00  0.00     0.336 C 
HETATM    5  N2  UNL     1      15.850 -17.816  20.611  1.00  0.00    -0.060 N 
ATOM      6  H21 UNL     1      15.028 -18.399  20.460  1.00  0.00     0.278 HD
ATOM      7  H22 UNL     1      15.571 -17.342  21.470  1.00  0.00     0.278 HD
HETATM    8  C6  UNL     1      17.041 -18.648  20.844  1.00  0.00     0.220 C 
HETATM    9  C13 UNL     1      17.782 -18.166  22.039  1.00  0.00     0.062 C 
HETATM   10  C14 UNL     1      19.246 -18.188  21.973  1.00  0.00    -0.028 C 
HETATM   11  C15 UNL     1      20.078 -17.592  21.169  1.00  0.00    -0.030 C 
HETATM   12  C16 UNL     1      19.823 -16.682  20.036  1.00  0.00     0.038 C 
HETATM   13  C17 UNL     1      19.187 -15.362  20.404  1.00  0.00     0.042 C 
HETATM   14  C23 UNL     1      18.849 -14.651  19.145  1.00  0.00    -0.025 A 
HETATM   15  C24 UNL     1      19.967 -14.434  18.334  1.00  0.00     0.010 A 
HETATM   16  C25 UNL     1      19.893 -13.782  17.113  1.00  0.00     0.001 A 
HETATM   17  C26 UNL     1      18.662 -13.336  16.700  1.00  0.00     0.002 A 
HETATM   18  C27 UNL     1      17.554 -13.556  17.517  1.00  0.00     0.030 A 
HETATM   19  C28 UNL     1      17.622 -14.207  18.735  1.00  0.00     0.048 A 
ENDROOT
BRANCH   8  20
HETATM   20  C7  UNL     1      16.469 -20.058  21.106  1.00  0.00     0.169 C 
HETATM   21  C8  UNL     1      15.112 -20.227  20.540  1.00  0.00     0.150 C 
HETATM   22  N3  UNL     1      14.237 -21.104  21.227  1.00  0.00    -0.408 N 
HETATM   23  C9  UNL     1      12.934 -20.599  21.504  1.00  0.00     0.143 C 
HETATM   24  C10 UNL     1      14.792 -21.955  22.206  1.00  0.00     0.098 C 
HETATM   25  C11 UNL     1      14.533 -23.402  21.777  1.00  0.00     0.034 C 
HETATM   26  C12 UNL     1      16.214 -21.724  22.569  1.00  0.00     0.192 C 
HETATM   27  O2  UNL     1      16.485 -20.341  22.459  1.00  0.00    -0.380 OA
ENDBRANCH   8  20
BRANCH   1  28
HETATM   28  C2  UNL     1      15.529 -13.111  19.605  1.00  0.00    -0.010 C 
HETATM   29  C1  UNL     1      14.088 -13.297  19.347  1.00  0.00     0.063 C 
HETATM   30  C3  UNL     1      15.860 -12.249  20.813  1.00  0.00     0.063 C 
ENDBRANCH   1  28
BRANCH  13  31
HETATM   31  C18 UNL     1      20.307 -14.614  21.153  1.00  0.00     0.132 C 
BRANCH  31  32
HETATM   32  N4  UNL     1      20.352 -14.922  22.542  1.00  0.00    -0.360 N 
HETATM   33  C19 UNL     1      19.208 -14.720  23.333  1.00  0.00     0.221 C 
HETATM   34  O3  UNL     1      18.143 -14.272  22.852  1.00  0.00    -0.273 OA
ATOM     35  H4  UNL     1      21.207 -15.287  22.960  1.00  0.00     0.162 HD
BRANCH  33  36
HETATM   36  C20 UNL     1      19.250 -15.041  24.777  1.00  0.00     0.078 A 
HETATM   37  C21 UNL     1      18.335 -16.171  25.173  1.00  0.00     0.015 A 
HETATM   38  C22 UNL     1      19.786 -16.321  25.281  1.00  0.00     0.015 A 
ENDBRANCH  33  36
ENDBRANCH  31  32
ENDBRANCH  13  31
TORSDOF 5
ENDMDL
