MODEL 1
REMARK VINA RESULT: -10.199202384      0.000      0.000
REMARK  5 active torsions:
REMARK  status: ('A' for Active; 'I' for Inactive)
REMARK    1  A    between atoms: C5_5  and  S1_6 
REMARK    2  A    between atoms: S1_6  and  C6_9 
REMARK    3  A    between atoms: C9_14  and  C10_15 
REMARK    4  A    between atoms: C14_25  and  N5_26 
REMARK       I    between atoms: N5_26  and  C15_28 
REMARK       I    between atoms: C15_28  and  N6_30 
REMARK    5  A    between atoms: N6_30  and  C16_32 
ROOT
HETATM    1  C6  UNL     1      12.797  23.891 117.691  1.00  0.00     0.107 A 
HETATM    2  C7  UNL     1      11.667  24.598 117.970  1.00  0.00     0.062 A 
HETATM    3  C8  UNL     1      11.711  25.932 117.733  1.00  0.00     0.056 A 
HETATM    4  N1  UNL     1      10.695  26.832 117.941  1.00  0.00    -0.339 N 
ATOM      5  H1  UNL     1       9.803  26.503 118.309  1.00  0.00     0.167 HD
HETATM    6  C9  UNL     1      10.853  28.120 117.672  1.00  0.00     0.134 A 
HETATM    7  N4  UNL     1      11.986  28.652 117.186  1.00  0.00    -0.325 N 
ATOM      8  H4  UNL     1      12.060  29.651 116.995  1.00  0.00     0.169 HD
HETATM    9  C14 UNL     1      13.024  27.819 116.960  1.00  0.00     0.130 A 
HETATM   10  C22 UNL     1      12.869  26.451 117.242  1.00  0.00     0.077 A 
HETATM   11  S2  UNL     1      13.872  25.074 117.119  1.00  0.00    -0.072 SA
ENDROOT
BRANCH   9  12
HETATM   12  N5  UNL     1      14.131  28.220 116.507  1.00  0.00    -0.293 N 
HETATM   13  C15 UNL     1      14.511  28.364 115.139  1.00  0.00     0.326 C 
HETATM   14  O3  UNL     1      14.230  29.462 114.624  1.00  0.00    -0.247 OA
HETATM   15  N6  UNL     1      15.153  27.318 114.466  1.00  0.00    -0.307 N 
ATOM     16  H6  UNL     1      15.310  26.482 115.028  1.00  0.00     0.170 HD
ATOM     17  H5  UNL     1      14.836  28.472 117.198  1.00  0.00     0.172 HD
BRANCH  15  18
HETATM   18  C16 UNL     1      15.617  27.232 113.142  1.00  0.00     0.058 A 
HETATM   19  C17 UNL     1      16.048  28.347 112.458  1.00  0.00     0.033 A 
HETATM   20  C18 UNL     1      16.501  28.204 111.140  1.00  0.00     0.019 A 
HETATM   21  C19 UNL     1      16.497  26.963 110.583  1.00  0.00     0.088 A 
HETATM   22  N7  UNL     1      16.076  25.894 111.263  1.00  0.00    -0.368 N 
HETATM   23  C20 UNL     1      15.643  25.993 112.507  1.00  0.00     0.032 A 
ATOM     24  H7  UNL     1      16.090  24.980 110.811  1.00  0.00     0.165 HD
HETATM   25  C21 UNL     1      15.188  24.782 113.215  1.00  0.00     0.070 C 
ENDBRANCH  15  18
ENDBRANCH   9  12
BRANCH   6  26
HETATM   26  C10 UNL     1       9.742  29.037 117.910  1.00  0.00     0.079 A 
HETATM   27  C11 UNL     1       8.456  28.554 117.874  1.00  0.00     0.050 A 
HETATM   28  C12 UNL     1       7.438  29.453 118.104  1.00  0.00     0.091 A 
HETATM   29  N2  UNL     1       7.646  30.762 118.357  1.00  0.00    -0.362 N 
HETATM   30  C13 UNL     1       8.913  31.193 118.383  1.00  0.00     0.180 A 
ATOM     31  H2  UNL     1       6.867  31.399 118.522  1.00  0.00     0.165 HD
HETATM   32  N3  UNL     1       9.928  30.332 118.161  1.00  0.00    -0.349 N 
ATOM     33  H3  UNL     1      10.882  30.689 118.188  1.00  0.00     0.166 HD
ENDBRANCH   6  26
BRANCH   1  34
HETATM   34  S1  UNL     1      13.120  22.180 117.862  1.00  0.00     0.213 S 
HETATM   35  O1  UNL     1      14.306  21.950 118.787  1.00  0.00    -0.217 OA
HETATM   36  O2  UNL     1      11.936  21.553 118.558  1.00  0.00    -0.217 OA
BRANCH  34  37
HETATM   37  C5  UNL     1      13.406  21.417 116.309  1.00  0.00     0.064 A 
HETATM   38  C4  UNL     1      12.553  20.436 115.843  1.00  0.00     0.024 A 
HETATM   39  C3  UNL     1      12.763  19.825 114.622  1.00  0.00     0.008 A 
HETATM   40  C2  UNL     1      13.828  20.164 113.815  1.00  0.00    -0.062 A 
HETATM   41  C1  UNL     1      14.047  19.498 112.496  1.00  0.00     0.048 C 
HETATM   42  C24 UNL     1      14.683  21.143 114.275  1.00  0.00     0.008 A 
HETATM   43  C23 UNL     1      14.470  21.753 115.498  1.00  0.00     0.024 A 
ENDBRANCH  34  37
ENDBRANCH   1  34
TORSDOF 5
ENDMDL
MODEL 2
REMARK VINA RESULT: -9.341130178      3.475      8.320
REMARK  5 active torsions:
REMARK  status: ('A' for Active; 'I' for Inactive)
REMARK    1  A    between atoms: C5_5  and  S1_6 
REMARK    2  A    between atoms: S1_6  and  C6_9 
REMARK    3  A    between atoms: C9_14  and  C10_15 
REMARK    4  A    between atoms: C14_25  and  N5_26 
REMARK       I    between atoms: N5_26  and  C15_28 
REMARK       I    between atoms: C15_28  and  N6_30 
REMARK    5  A    between atoms: N6_30  and  C16_32 
ROOT
HETATM    1  C6  UNL     1      12.553  21.690 116.541  1.00  0.00     0.107 A 
HETATM    2  C7  UNL     1      12.973  20.500 116.028  1.00  0.00     0.062 A 
HETATM    3  C8  UNL     1      13.198  20.459 114.692  1.00  0.00     0.056 A 
HETATM    4  N1  UNL     1      13.622  19.372 113.969  1.00  0.00    -0.339 N 
ATOM      5  H1  UNL     1      13.796  18.489 114.448  1.00  0.00     0.167 HD
HETATM    6  C9  UNL     1      13.809  19.450 112.659  1.00  0.00     0.134 A 
HETATM    7  N4  UNL     1      13.607  20.564 111.937  1.00  0.00    -0.325 N 
ATOM      8  H4  UNL     1      13.764  20.574 110.929  1.00  0.00     0.169 HD
HETATM    9  C14 UNL     1      13.189  21.668 112.590  1.00  0.00     0.130 A 
HETATM   10  C22 UNL     1      12.987  21.598 113.979  1.00  0.00     0.077 A 
HETATM   11  S2  UNL     1      12.481  22.703 115.180  1.00  0.00    -0.072 SA
ENDROOT
BRANCH   9  12
HETATM   12  N5  UNL     1      12.970  22.763 112.002  1.00  0.00    -0.293 N 
HETATM   13  C15 UNL     1      13.875  23.851 111.825  1.00  0.00     0.326 C 
HETATM   14  O3  UNL     1      14.593  23.782 110.809  1.00  0.00    -0.247 OA
HETATM   15  N6  UNL     1      13.915  24.901 112.749  1.00  0.00    -0.307 N 
ATOM     16  H6  UNL     1      13.263  24.808 113.528  1.00  0.00     0.170 HD
ATOM     17  H5  UNL     1      12.038  22.884 111.608  1.00  0.00     0.172 HD
BRANCH  15  18
HETATM   18  C16 UNL     1      14.707  26.062 112.781  1.00  0.00     0.058 A 
HETATM   19  C17 UNL     1      14.532  27.075 111.864  1.00  0.00     0.033 A 
HETATM   20  C18 UNL     1      15.349  28.211 111.941  1.00  0.00     0.019 A 
HETATM   21  C19 UNL     1      16.288  28.270 112.922  1.00  0.00     0.088 A 
HETATM   22  N7  UNL     1      16.442  27.278 113.802  1.00  0.00    -0.368 N 
HETATM   23  C20 UNL     1      15.689  26.193 113.759  1.00  0.00     0.032 A 
ATOM     24  H7  UNL     1      17.157  27.359 114.525  1.00  0.00     0.165 HD
HETATM   25  C21 UNL     1      15.898  25.124 114.753  1.00  0.00     0.070 C 
ENDBRANCH  15  18
ENDBRANCH   9  12
BRANCH   6  26
HETATM   26  C10 UNL     1      14.261  18.265 111.935  1.00  0.00     0.079 A 
HETATM   27  C11 UNL     1      13.488  17.768 110.914  1.00  0.00     0.050 A 
HETATM   28  C12 UNL     1      13.952  16.650 110.257  1.00  0.00     0.091 A 
HETATM   29  N2  UNL     1      15.111  16.034 110.569  1.00  0.00    -0.362 N 
HETATM   30  C13 UNL     1      15.836  16.549 111.570  1.00  0.00     0.180 A 
ATOM     31  H2  UNL     1      15.423  15.207 110.062  1.00  0.00     0.165 HD
HETATM   32  N3  UNL     1      15.403  17.644 112.227  1.00  0.00    -0.349 N 
ATOM     33  H3  UNL     1      15.976  18.014 112.985  1.00  0.00     0.166 HD
ENDBRANCH   6  26
BRANCH   1  34
HETATM   34  S1  UNL     1      12.165  22.127 118.191  1.00  0.00     0.213 S 
HETATM   35  O1  UNL     1      10.859  21.477 118.622  1.00  0.00    -0.217 OA
HETATM   36  O2  UNL     1      13.227  21.535 119.087  1.00  0.00    -0.217 OA
BRANCH  34  37
HETATM   37  C5  UNL     1      12.074  23.865 118.396  1.00  0.00     0.064 A 
HETATM   38  C4  UNL     1      10.972  24.566 117.949  1.00  0.00     0.024 A 
HETATM   39  C3  UNL     1      10.883  25.936 118.103  1.00  0.00     0.008 A 
HETATM   40  C2  UNL     1      11.886  26.665 118.708  1.00  0.00    -0.062 A 
HETATM   41  C1  UNL     1      11.781  28.146 118.871  1.00  0.00     0.048 C 
HETATM   42  C24 UNL     1      12.989  25.969 119.157  1.00  0.00     0.008 A 
HETATM   43  C23 UNL     1      13.074  24.598 119.001  1.00  0.00     0.024 A 
ENDBRANCH  34  37
ENDBRANCH   1  34
TORSDOF 5
ENDMDL
MODEL 3
REMARK VINA RESULT: -9.334504644      1.230      1.824
REMARK  5 active torsions:
REMARK  status: ('A' for Active; 'I' for Inactive)
REMARK    1  A    between atoms: C5_5  and  S1_6 
REMARK    2  A    between atoms: S1_6  and  C6_9 
REMARK    3  A    between atoms: C9_14  and  C10_15 
REMARK    4  A    between atoms: C14_25  and  N5_26 
REMARK       I    between atoms: N5_26  and  C15_28 
REMARK       I    between atoms: C15_28  and  N6_30 
REMARK    5  A    between atoms: N6_30  and  C16_32 
ROOT
HETATM    1  C6  UNL     1      12.995  24.031 117.671  1.00  0.00     0.107 A 
HETATM    2  C7  UNL     1      11.858  24.716 117.975  1.00  0.00     0.062 A 
HETATM    3  C8  UNL     1      11.861  26.046 117.714  1.00  0.00     0.056 A 
HETATM    4  N1  UNL     1      10.830  26.924 117.940  1.00  0.00    -0.339 N 
ATOM      5  H1  UNL     1       9.958  26.581 118.343  1.00  0.00     0.167 HD
HETATM    6  C9  UNL     1      10.948  28.211 117.643  1.00  0.00     0.134 A 
HETATM    7  N4  UNL     1      12.051  28.761 117.111  1.00  0.00    -0.325 N 
ATOM      8  H4  UNL     1      12.094  29.758 116.901  1.00  0.00     0.169 HD
HETATM    9  C14 UNL     1      13.101  27.950 116.866  1.00  0.00     0.130 A 
HETATM   10  C22 UNL     1      12.988  26.584 117.176  1.00  0.00     0.077 A 
HETATM   11  S2  UNL     1      14.021  25.229 117.043  1.00  0.00    -0.072 SA
ENDROOT
BRANCH   9  12
HETATM   12  N5  UNL     1      14.182  28.369 116.369  1.00  0.00    -0.293 N 
HETATM   13  C15 UNL     1      14.533  28.446 114.988  1.00  0.00     0.326 C 
HETATM   14  O3  UNL     1      14.197  29.499 114.414  1.00  0.00    -0.247 OA
HETATM   15  N6  UNL     1      15.210  27.391 114.367  1.00  0.00    -0.307 N 
ATOM     16  H6  UNL     1      15.412  26.597 114.975  1.00  0.00     0.170 HD
ATOM     17  H5  UNL     1      14.887  28.692 117.031  1.00  0.00     0.172 HD
BRANCH  15  18
HETATM   18  C16 UNL     1      15.656  27.244 113.042  1.00  0.00     0.058 A 
HETATM   19  C17 UNL     1      16.083  28.326 112.305  1.00  0.00     0.033 A 
HETATM   20  C18 UNL     1      16.519  28.124 110.988  1.00  0.00     0.019 A 
HETATM   21  C19 UNL     1      16.502  26.860 110.486  1.00  0.00     0.088 A 
HETATM   22  N7  UNL     1      16.084  25.824 111.217  1.00  0.00    -0.368 N 
HETATM   23  C20 UNL     1      15.668  25.979 112.461  1.00  0.00     0.032 A 
ATOM     24  H7  UNL     1      16.088  24.891 110.805  1.00  0.00     0.165 HD
HETATM   25  C21 UNL     1      15.216  24.803 113.227  1.00  0.00     0.070 C 
ENDBRANCH  15  18
ENDBRANCH   9  12
BRANCH   6  26
HETATM   26  C10 UNL     1       9.822  29.105 117.902  1.00  0.00     0.079 A 
HETATM   27  C11 UNL     1       8.546  28.596 117.890  1.00  0.00     0.050 A 
HETATM   28  C12 UNL     1       7.514  29.474 118.140  1.00  0.00     0.091 A 
HETATM   29  N2  UNL     1       7.700  30.787 118.389  1.00  0.00    -0.362 N 
HETATM   30  C13 UNL     1       8.958  31.244 118.391  1.00  0.00     0.180 A 
ATOM     31  H2  UNL     1       6.912  31.407 118.568  1.00  0.00     0.165 HD
HETATM   32  N3  UNL     1       9.986  30.404 118.150  1.00  0.00    -0.349 N 
ATOM     33  H3  UNL     1      10.933  30.780 118.159  1.00  0.00     0.166 HD
ENDBRANCH   6  26
BRANCH   1  34
HETATM   34  S1  UNL     1      13.366  22.332 117.860  1.00  0.00     0.213 S 
HETATM   35  O1  UNL     1      14.666  21.987 117.150  1.00  0.00    -0.217 OA
HETATM   36  O2  UNL     1      13.625  22.075 119.326  1.00  0.00    -0.217 OA
BRANCH  34  37
HETATM   37  C5  UNL     1      12.065  21.316 117.270  1.00  0.00     0.064 A 
HETATM   38  C4  UNL     1      10.839  21.307 117.906  1.00  0.00     0.024 A 
HETATM   39  C3  UNL     1       9.803  20.512 117.454  1.00  0.00     0.008 A 
HETATM   40  C2  UNL     1       9.943  19.696 116.351  1.00  0.00    -0.062 A 
HETATM   41  C1  UNL     1       8.816  18.841 115.870  1.00  0.00     0.048 C 
HETATM   42  C24 UNL     1      11.164  19.701 115.712  1.00  0.00     0.008 A 
HETATM   43  C23 UNL     1      12.199  20.497 116.167  1.00  0.00     0.024 A 
ENDBRANCH  34  37
ENDBRANCH   1  34
TORSDOF 5
ENDMDL
MODEL 4
REMARK VINA RESULT: -9.277538087      3.800      8.821
REMARK  5 active torsions:
REMARK  status: ('A' for Active; 'I' for Inactive)
REMARK    1  A    between atoms: C5_5  and  S1_6 
REMARK    2  A    between atoms: S1_6  and  C6_9 
REMARK    3  A    between atoms: C9_14  and  C10_15 
REMARK    4  A    between atoms: C14_25  and  N5_26 
REMARK       I    between atoms: N5_26  and  C15_28 
REMARK       I    between atoms: C15_28  and  N6_30 
REMARK    5  A    between atoms: N6_30  and  C16_32 
ROOT
HETATM    1  C6  UNL     1      11.680  21.158 116.101  1.00  0.00     0.107 A 
HETATM    2  C7  UNL     1      11.773  19.910 115.564  1.00  0.00     0.062 A 
HETATM    3  C8  UNL     1      12.809  19.688 114.717  1.00  0.00     0.056 A 
HETATM    4  N1  UNL     1      13.093  18.513 114.067  1.00  0.00    -0.339 N 
ATOM      5  H1  UNL     1      12.488  17.704 114.207  1.00  0.00     0.167 HD
HETATM    6  C9  UNL     1      14.139  18.412 113.258  1.00  0.00     0.134 A 
HETATM    7  N4  UNL     1      14.993  19.417 113.006  1.00  0.00    -0.325 N 
ATOM      8  H4  UNL     1      15.784  19.290 112.376  1.00  0.00     0.169 HD
HETATM    9  C14 UNL     1      14.768  20.599 113.616  1.00  0.00     0.130 A 
HETATM   10  C22 UNL     1      13.662  20.719 114.476  1.00  0.00     0.077 A 
HETATM   11  S2  UNL     1      13.008  21.977 115.429  1.00  0.00    -0.072 SA
ENDROOT
BRANCH   9  12
HETATM   12  N5  UNL     1      15.511  21.604 113.445  1.00  0.00    -0.293 N 
HETATM   13  C15 UNL     1      15.484  22.839 114.158  1.00  0.00     0.326 C 
HETATM   14  O3  UNL     1      16.174  22.867 115.195  1.00  0.00    -0.247 OA
HETATM   15  N6  UNL     1      14.724  23.916 113.688  1.00  0.00    -0.307 N 
ATOM     16  H6  UNL     1      14.213  23.732 112.824  1.00  0.00     0.170 HD
ATOM     17  H5  UNL     1      16.214  21.524 112.711  1.00  0.00     0.172 HD
BRANCH  15  18
HETATM   18  C16 UNL     1      14.548  25.209 114.210  1.00  0.00     0.058 A 
HETATM   19  C17 UNL     1      13.412  25.553 114.907  1.00  0.00     0.033 A 
HETATM   20  C18 UNL     1      13.288  26.857 115.407  1.00  0.00     0.019 A 
HETATM   21  C19 UNL     1      14.301  27.737 115.181  1.00  0.00     0.088 A 
HETATM   22  N7  UNL     1      15.395  27.383 114.502  1.00  0.00    -0.368 N 
HETATM   23  C20 UNL     1      15.544  26.163 114.018  1.00  0.00     0.032 A 
ATOM     24  H7  UNL     1      16.133  28.072 114.355  1.00  0.00     0.165 HD
HETATM   25  C21 UNL     1      16.771  25.822 113.275  1.00  0.00     0.070 C 
ENDBRANCH  15  18
ENDBRANCH   9  12
BRANCH   6  26
HETATM   26  C10 UNL     1      14.399  17.140 112.589  1.00  0.00     0.079 A 
HETATM   27  C11 UNL     1      15.398  17.069 111.649  1.00  0.00     0.050 A 
HETATM   28  C12 UNL     1      15.609  15.851 111.043  1.00  0.00     0.091 A 
HETATM   29  N2  UNL     1      14.890  14.745 111.328  1.00  0.00    -0.362 N 
HETATM   30  C13 UNL     1      13.925  14.855 112.249  1.00  0.00     0.180 A 
ATOM     31  H2  UNL     1      15.074  13.859 110.858  1.00  0.00     0.165 HD
HETATM   32  N3  UNL     1      13.700  16.038 112.857  1.00  0.00    -0.349 N 
ATOM     33  H3  UNL     1      12.958  16.092 113.556  1.00  0.00     0.166 HD
ENDBRANCH   6  26
BRANCH   1  34
HETATM   34  S1  UNL     1      10.502  21.815 117.215  1.00  0.00     0.213 S 
HETATM   35  O1  UNL     1       9.108  21.768 116.606  1.00  0.00    -0.217 OA
HETATM   36  O2  UNL     1      10.449  20.907 118.420  1.00  0.00    -0.217 OA
BRANCH  34  37
HETATM   37  C5  UNL     1      10.901  23.455 117.687  1.00  0.00     0.064 A 
HETATM   38  C4  UNL     1      12.046  23.716 118.414  1.00  0.00     0.024 A 
HETATM   39  C3  UNL     1      12.376  25.003 118.794  1.00  0.00     0.008 A 
HETATM   40  C2  UNL     1      11.583  26.082 118.466  1.00  0.00    -0.062 A 
HETATM   41  C1  UNL     1      11.948  27.469 118.882  1.00  0.00     0.048 C 
HETATM   42  C24 UNL     1      10.439  25.828 117.741  1.00  0.00     0.008 A 
HETATM   43  C23 UNL     1      10.111  24.539 117.361  1.00  0.00     0.024 A 
ENDBRANCH  34  37
ENDBRANCH   1  34
TORSDOF 5
ENDMDL
MODEL 5
REMARK VINA RESULT: -9.207446695      1.420      1.949
REMARK  5 active torsions:
REMARK  status: ('A' for Active; 'I' for Inactive)
REMARK    1  A    between atoms: C5_5  and  S1_6 
REMARK    2  A    between atoms: S1_6  and  C6_9 
REMARK    3  A    between atoms: C9_14  and  C10_15 
REMARK    4  A    between atoms: C14_25  and  N5_26 
REMARK       I    between atoms: N5_26  and  C15_28 
REMARK       I    between atoms: C15_28  and  N6_30 
REMARK    5  A    between atoms: N6_30  and  C16_32 
ROOT
HETATM    1  C6  UNL     1      14.215  23.864 116.316  1.00  0.00     0.107 A 
HETATM    2  C7  UNL     1      13.127  24.453 116.885  1.00  0.00     0.062 A 
HETATM    3  C8  UNL     1      13.010  25.795 116.730  1.00  0.00     0.056 A 
HETATM    4  N1  UNL     1      12.001  26.588 117.216  1.00  0.00    -0.339 N 
ATOM      5  H1  UNL     1      11.245  26.163 117.753  1.00  0.00     0.167 HD
HETATM    6  C9  UNL     1      11.992  27.896 117.001  1.00  0.00     0.134 A 
HETATM    7  N4  UNL     1      12.938  28.549 116.309  1.00  0.00    -0.325 N 
ATOM      8  H4  UNL     1      12.888  29.558 116.170  1.00  0.00     0.169 HD
HETATM    9  C14 UNL     1      13.959  27.826 115.804  1.00  0.00     0.130 A 
HETATM   10  C22 UNL     1      13.980  26.438 116.025  1.00  0.00     0.077 A 
HETATM   11  S2  UNL     1      15.034  25.165 115.593  1.00  0.00    -0.072 SA
ENDROOT
BRANCH   9  12
HETATM   12  N5  UNL     1      14.898  28.345 115.140  1.00  0.00    -0.293 N 
HETATM   13  C15 UNL     1      15.081  28.321 113.726  1.00  0.00     0.326 C 
HETATM   14  O3  UNL     1      14.519  29.242 113.104  1.00  0.00    -0.247 OA
HETATM   15  N6  UNL     1      15.849  27.317 113.125  1.00  0.00    -0.307 N 
ATOM     16  H6  UNL     1      16.241  26.635 113.774  1.00  0.00     0.170 HD
ATOM     17  H5  UNL     1      15.608  28.841 115.678  1.00  0.00     0.172 HD
BRANCH  15  18
HETATM   18  C16 UNL     1      16.167  27.095 111.774  1.00  0.00     0.058 A 
HETATM   19  C17 UNL     1      16.488  28.135 110.932  1.00  0.00     0.033 A 
HETATM   20  C18 UNL     1      16.798  27.858 109.593  1.00  0.00     0.019 A 
HETATM   21  C19 UNL     1      16.769  26.563 109.176  1.00  0.00     0.088 A 
HETATM   22  N7  UNL     1      16.455  25.568 110.009  1.00  0.00    -0.368 N 
HETATM   23  C20 UNL     1      16.158  25.795 111.276  1.00  0.00     0.032 A 
ATOM     24  H7  UNL     1      16.445  24.610 109.658  1.00  0.00     0.165 HD
HETATM   25  C21 UNL     1      15.819  24.661 112.155  1.00  0.00     0.070 C 
ENDBRANCH  15  18
ENDBRANCH   9  12
BRANCH   6  26
HETATM   26  C10 UNL     1      10.895  28.696 117.539  1.00  0.00     0.079 A 
HETATM   27  C11 UNL     1      11.120  30.015 117.853  1.00  0.00     0.050 A 
HETATM   28  C12 UNL     1      10.058  30.733 118.358  1.00  0.00     0.091 A 
HETATM   29  N2  UNL     1       8.831  30.205 118.554  1.00  0.00    -0.362 N 
HETATM   30  C13 UNL     1       8.653  28.918 118.236  1.00  0.00     0.180 A 
ATOM     31  H2  UNL     1       8.069  30.767 118.931  1.00  0.00     0.165 HD
HETATM   32  N3  UNL     1       9.678  28.194 117.739  1.00  0.00    -0.349 N 
ATOM     33  H3  UNL     1       9.512  27.215 117.506  1.00  0.00     0.166 HD
ENDBRANCH   6  26
BRANCH   1  34
HETATM   34  S1  UNL     1      14.702  22.184 116.301  1.00  0.00     0.213 S 
HETATM   35  O1  UNL     1      16.219  22.068 116.269  1.00  0.00    -0.217 OA
HETATM   36  O2  UNL     1      14.276  21.567 117.612  1.00  0.00    -0.217 OA
BRANCH  34  37
HETATM   37  C5  UNL     1      14.000  21.318 114.947  1.00  0.00     0.064 A 
HETATM   38  C4  UNL     1      14.458  21.535 113.664  1.00  0.00     0.024 A 
HETATM   39  C3  UNL     1      13.917  20.861 112.586  1.00  0.00     0.008 A 
HETATM   40  C2  UNL     1      12.898  19.944 112.741  1.00  0.00    -0.062 A 
HETATM   41  C1  UNL     1      12.319  19.221 111.570  1.00  0.00     0.048 C 
HETATM   42  C24 UNL     1      12.436  19.724 114.021  1.00  0.00     0.008 A 
HETATM   43  C23 UNL     1      12.981  20.400 115.098  1.00  0.00     0.024 A 
ENDBRANCH  34  37
ENDBRANCH   1  34
TORSDOF 5
ENDMDL
