MODEL 1
REMARK VINA RESULT: -8.833534039      0.000      0.000
REMARK  6 active torsions:
REMARK  status: ('A' for Active; 'I' for Inactive)
REMARK    1  A    between atoms: N1_10  and  O1_11 
REMARK    2  A    between atoms: C12_18  and  N3_19 
REMARK    3  A    between atoms: N3_19  and  C13_20 
REMARK    4  A    between atoms: C16_23  and  S2_24 
REMARK    5  A    between atoms: S2_24  and  N4_25 
REMARK    6  A    between atoms: C19_32  and  N5_33 
ROOT
HETATM    1  C1  UNL     1      11.596  29.902 118.587  1.00  0.00     0.057 C 
HETATM    2  C2  UNL     1      12.210  28.975 117.574  1.00  0.00    -0.014 A 
HETATM    3  S1  UNL     1      13.140  29.429 116.239  1.00  0.00    -0.091 SA
HETATM    4  C3  UNL     1      13.454  27.878 115.593  1.00  0.00     0.044 A 
HETATM    5  C4  UNL     1      12.806  27.020 116.457  1.00  0.00     0.003 A 
HETATM    6  C5  UNL     1      12.927  25.659 116.141  1.00  0.00     0.004 A 
HETATM    7  C6  UNL     1      12.356  24.535 116.845  1.00  0.00     0.045 A 
HETATM    8  C7  UNL     1      11.025  24.252 116.809  1.00  0.00     0.050 A 
HETATM    9  C8  UNL     1      10.549  23.108 117.389  1.00  0.00     0.126 A 
HETATM   10  N1  UNL     1      11.356  22.242 118.000  1.00  0.00    -0.232 N 
HETATM   11  C9  UNL     1      12.663  22.523 118.033  1.00  0.00     0.213 A 
HETATM   12  N2  UNL     1      13.154  23.631 117.476  1.00  0.00    -0.350 N 
ATOM     13  H2  UNL     1      14.158  23.807 117.524  1.00  0.00     0.166 HD
HETATM   14  C10 UNL     1      13.677  25.284 115.016  1.00  0.00     0.032 A 
HETATM   15  C11 UNL     1      14.309  26.150 114.181  1.00  0.00     0.036 A 
HETATM   16  C12 UNL     1      15.046  25.677 113.063  1.00  0.00     0.154 A 
HETATM   17  C19 UNL     1      15.641  26.667 112.292  1.00  0.00     0.159 A 
HETATM   18  C20 UNL     1      15.479  28.016 112.657  1.00  0.00     0.128 A 
HETATM   19  N6  UNL     1      14.770  28.394 113.726  1.00  0.00    -0.361 N 
ATOM     20  H6  UNL     1      14.677  29.383 113.958  1.00  0.00     0.165 HD
HETATM   21  C21 UNL     1      14.192  27.473 114.478  1.00  0.00     0.064 A 
HETATM   22  C22 UNL     1      12.160  27.604 117.492  1.00  0.00    -0.037 A 
HETATM   23  C23 UNL     1      11.434  26.890 118.623  1.00  0.00     0.050 C 
ENDROOT
BRANCH  16  24
HETATM   24  N3  UNL     1      15.070  24.477 112.866  1.00  0.00    -0.402 NA
BRANCH  24  25
HETATM   25  C13 UNL     1      14.735  23.206 112.927  1.00  0.00     0.107 A 
HETATM   26  C14 UNL     1      15.400  22.333 113.803  1.00  0.00     0.046 A 
HETATM   27  C15 UNL     1      15.068  21.015 113.862  1.00  0.00     0.028 A 
HETATM   28  C16 UNL     1      14.070  20.527 113.054  1.00  0.00     0.079 A 
HETATM   29  C17 UNL     1      13.397  21.351 112.182  1.00  0.00     0.028 A 
HETATM   30  C18 UNL     1      13.737  22.673 112.131  1.00  0.00     0.046 A 
BRANCH  28  31
HETATM   31  S2  UNL     1      13.626  18.839 113.117  1.00  0.00     0.256 S 
HETATM   32  O2  UNL     1      12.992  18.580 114.461  1.00  0.00    -0.201 OA
HETATM   33  O3  UNL     1      12.663  18.529 112.015  1.00  0.00    -0.201 OA
BRANCH  31  34
HETATM   34  N4  UNL     1      15.012  17.831 112.962  1.00  0.00    -0.324 N 
ATOM     35  H42 UNL     1      15.955  18.186 112.800  1.00  0.00     0.169 HD
ATOM     36  H41 UNL     1      14.760  16.846 113.053  1.00  0.00     0.169 HD
ENDBRANCH  31  34
ENDBRANCH  28  31
ENDBRANCH  24  25
ENDBRANCH  16  24
BRANCH  17  37
HETATM   37  N5  UNL     1      16.408  26.416 111.139  1.00  0.00    -0.111 N 
HETATM   38  O4  UNL     1      16.715  25.293 110.782  1.00  0.00    -0.532 OA
HETATM   39  O5  UNL     1      16.862  27.481 110.404  1.00  0.00    -0.532 OA
ENDBRANCH  17  37
BRANCH  10  40
HETATM   40  O1  UNL     1      10.869  21.081 118.587  1.00  0.00    -0.282 OA
ATOM     41  H1  UNL     1      11.179  20.781 119.433  1.00  0.00     0.245 HD
ENDBRANCH  10  40
TORSDOF 6
ENDMDL
MODEL 2
REMARK VINA RESULT: -8.639144000      5.618      9.199
REMARK  6 active torsions:
REMARK  status: ('A' for Active; 'I' for Inactive)
REMARK    1  A    between atoms: N1_10  and  O1_11 
REMARK    2  A    between atoms: C12_18  and  N3_19 
REMARK    3  A    between atoms: N3_19  and  C13_20 
REMARK    4  A    between atoms: C16_23  and  S2_24 
REMARK    5  A    between atoms: S2_24  and  N4_25 
REMARK    6  A    between atoms: C19_32  and  N5_33 
ROOT
HETATM    1  C1  UNL     1      14.000  22.024 119.295  1.00  0.00     0.057 C 
HETATM    2  C2  UNL     1      12.753  22.566 118.652  1.00  0.00    -0.014 A 
HETATM    3  S1  UNL     1      11.498  21.654 117.981  1.00  0.00    -0.091 SA
HETATM    4  C3  UNL     1      10.487  22.931 117.466  1.00  0.00     0.044 A 
HETATM    5  C4  UNL     1      11.171  24.070 117.838  1.00  0.00     0.003 A 
HETATM    6  C5  UNL     1      10.526  25.277 117.528  1.00  0.00     0.004 A 
HETATM    7  C6  UNL     1      10.996  26.618 117.780  1.00  0.00     0.045 A 
HETATM    8  C7  UNL     1      12.017  27.178 117.075  1.00  0.00     0.050 A 
HETATM    9  C8  UNL     1      12.344  28.492 117.265  1.00  0.00     0.126 A 
HETATM   10  N1  UNL     1      11.687  29.262 118.131  1.00  0.00    -0.232 N 
HETATM   11  C9  UNL     1      10.684  28.709 118.822  1.00  0.00     0.213 A 
HETATM   12  N2  UNL     1      10.344  27.429 118.656  1.00  0.00    -0.350 N 
ATOM     13  H2  UNL     1       9.572  27.048 119.203  1.00  0.00     0.166 HD
HETATM   14  C10 UNL     1       9.276  25.238 116.893  1.00  0.00     0.032 A 
HETATM   15  C11 UNL     1       8.620  24.101 116.539  1.00  0.00     0.036 A 
HETATM   16  C12 UNL     1       7.355  24.160 115.896  1.00  0.00     0.154 A 
HETATM   17  C19 UNL     1       6.796  22.927 115.588  1.00  0.00     0.159 A 
HETATM   18  C20 UNL     1       7.493  21.752 115.920  1.00  0.00     0.128 A 
HETATM   19  N6  UNL     1       8.685  21.767 116.527  1.00  0.00    -0.361 N 
ATOM     20  H6  UNL     1       9.159  20.892 116.752  1.00  0.00     0.165 HD
HETATM   21  C21 UNL     1       9.242  22.926 116.832  1.00  0.00     0.064 A 
HETATM   22  C22 UNL     1      12.355  23.868 118.461  1.00  0.00    -0.037 A 
HETATM   23  C23 UNL     1      13.269  24.940 119.036  1.00  0.00     0.050 C 
ENDROOT
BRANCH  16  24
HETATM   24  N3  UNL     1       6.893  25.259 115.653  1.00  0.00    -0.402 NA
BRANCH  24  25
HETATM   25  C13 UNL     1       6.699  26.416 115.056  1.00  0.00     0.107 A 
HETATM   26  C14 UNL     1       6.239  27.526 115.782  1.00  0.00     0.046 A 
HETATM   27  C15 UNL     1       6.023  28.722 115.169  1.00  0.00     0.028 A 
HETATM   28  C16 UNL     1       6.256  28.847 113.821  1.00  0.00     0.079 A 
HETATM   29  C17 UNL     1       6.707  27.782 113.076  1.00  0.00     0.028 A 
HETATM   30  C18 UNL     1       6.920  26.586 113.702  1.00  0.00     0.046 A 
BRANCH  28  31
HETATM   31  S2  UNL     1       5.991  30.374 113.016  1.00  0.00     0.256 S 
HETATM   32  O2  UNL     1       5.970  31.454 114.069  1.00  0.00    -0.201 OA
HETATM   33  O3  UNL     1       7.089  30.623 112.031  1.00  0.00    -0.201 OA
BRANCH  31  34
HETATM   34  N4  UNL     1       4.478  30.382 112.194  1.00  0.00    -0.324 N 
ATOM     35  H42 UNL     1       3.979  29.536 111.920  1.00  0.00     0.169 HD
ATOM     36  H41 UNL     1       4.159  31.336 112.025  1.00  0.00     0.169 HD
ENDBRANCH  31  34
ENDBRANCH  28  31
ENDBRANCH  24  25
ENDBRANCH  16  24
BRANCH  17  37
HETATM   37  N5  UNL     1       5.555  22.762 114.946  1.00  0.00    -0.111 N 
HETATM   38  O4  UNL     1       5.434  22.744 113.735  1.00  0.00    -0.532 OA
HETATM   39  O5  UNL     1       4.424  22.652 115.716  1.00  0.00    -0.532 OA
ENDBRANCH  17  37
BRANCH  10  40
HETATM   40  O1  UNL     1      12.022  30.597 118.320  1.00  0.00    -0.282 OA
ATOM     41  H1  UNL     1      11.989  31.003 119.178  1.00  0.00     0.245 HD
ENDBRANCH  10  40
TORSDOF 6
ENDMDL
MODEL 3
REMARK VINA RESULT: -8.626104392      1.774      2.031
REMARK  6 active torsions:
REMARK  status: ('A' for Active; 'I' for Inactive)
REMARK    1  A    between atoms: N1_10  and  O1_11 
REMARK    2  A    between atoms: C12_18  and  N3_19 
REMARK    3  A    between atoms: N3_19  and  C13_20 
REMARK    4  A    between atoms: C16_23  and  S2_24 
REMARK    5  A    between atoms: S2_24  and  N4_25 
REMARK    6  A    between atoms: C19_32  and  N5_33 
ROOT
HETATM    1  C1  UNL     1      11.167  30.533 118.329  1.00  0.00     0.057 C 
HETATM    2  C2  UNL     1      11.664  29.418 117.451  1.00  0.00    -0.014 A 
HETATM    3  S1  UNL     1      13.133  29.381 116.618  1.00  0.00    -0.091 SA
HETATM    4  C3  UNL     1      12.976  27.852 115.869  1.00  0.00     0.044 A 
HETATM    5  C4  UNL     1      11.747  27.395 116.297  1.00  0.00     0.003 A 
HETATM    6  C5  UNL     1      11.387  26.127 115.819  1.00  0.00     0.004 A 
HETATM    7  C6  UNL     1      10.169  25.398 116.081  1.00  0.00     0.045 A 
HETATM    8  C7  UNL     1       8.973  25.757 115.538  1.00  0.00     0.050 A 
HETATM    9  C8  UNL     1       7.872  24.965 115.716  1.00  0.00     0.126 A 
HETATM   10  N1  UNL     1       7.927  23.831 116.413  1.00  0.00    -0.232 N 
HETATM   11  C9  UNL     1       9.104  23.481 116.945  1.00  0.00     0.213 A 
HETATM   12  N2  UNL     1      10.194  24.235 116.787  1.00  0.00    -0.350 N 
ATOM     13  H2  UNL     1      11.071  23.931 117.209  1.00  0.00     0.166 HD
HETATM   14  C10 UNL     1      12.274  25.439 114.977  1.00  0.00     0.032 A 
HETATM   15  C11 UNL     1      13.482  25.910 114.572  1.00  0.00     0.036 A 
HETATM   16  C12 UNL     1      14.314  25.141 113.715  1.00  0.00     0.154 A 
HETATM   17  C19 UNL     1      15.521  25.740 113.376  1.00  0.00     0.159 A 
HETATM   18  C20 UNL     1      15.823  27.016 113.885  1.00  0.00     0.128 A 
HETATM   19  N6  UNL     1      14.993  27.688 114.689  1.00  0.00    -0.361 N 
ATOM     20  H6  UNL     1      15.249  28.612 115.038  1.00  0.00     0.165 HD
HETATM   21  C21 UNL     1      13.837  27.143 115.028  1.00  0.00     0.064 A 
HETATM   22  C22 UNL     1      11.069  28.221 117.127  1.00  0.00    -0.037 A 
HETATM   23  C23 UNL     1       9.735  27.931 117.799  1.00  0.00     0.050 C 
ENDROOT
BRANCH  16  24
HETATM   24  N3  UNL     1      13.898  24.062 113.340  1.00  0.00    -0.402 NA
BRANCH  24  25
HETATM   25  C13 UNL     1      13.843  22.766 113.114  1.00  0.00     0.107 A 
HETATM   26  C14 UNL     1      14.631  21.877 113.863  1.00  0.00     0.046 A 
HETATM   27  C15 UNL     1      14.589  20.537 113.626  1.00  0.00     0.028 A 
HETATM   28  C16 UNL     1      13.768  20.045 112.642  1.00  0.00     0.079 A 
HETATM   29  C17 UNL     1      12.981  20.885 111.888  1.00  0.00     0.028 A 
HETATM   30  C18 UNL     1      13.030  22.228 112.133  1.00  0.00     0.046 A 
BRANCH  28  31
HETATM   31  S2  UNL     1      13.696  18.329 112.326  1.00  0.00     0.256 S 
HETATM   32  O2  UNL     1      12.859  17.695 113.410  1.00  0.00    -0.201 OA
HETATM   33  O3  UNL     1      13.084  18.088 110.982  1.00  0.00    -0.201 OA
BRANCH  31  34
HETATM   34  N4  UNL     1      15.268  17.628 112.369  1.00  0.00    -0.324 N 
ATOM     35  H42 UNL     1      15.722  17.208 111.558  1.00  0.00     0.169 HD
ATOM     36  H41 UNL     1      15.672  17.694 113.303  1.00  0.00     0.169 HD
ENDBRANCH  31  34
ENDBRANCH  28  31
ENDBRANCH  24  25
ENDBRANCH  16  24
BRANCH  17  37
HETATM   37  N5  UNL     1      16.485  25.154 112.536  1.00  0.00    -0.111 N 
HETATM   38  O4  UNL     1      16.655  25.501 111.382  1.00  0.00    -0.532 OA
HETATM   39  O5  UNL     1      17.243  24.119 113.025  1.00  0.00    -0.532 OA
ENDBRANCH  17  37
BRANCH  10  40
HETATM   40  O1  UNL     1       6.807  23.028 116.590  1.00  0.00    -0.282 OA
ATOM     41  H1  UNL     1       6.450  22.507 115.881  1.00  0.00     0.245 HD
ENDBRANCH  10  40
TORSDOF 6
ENDMDL
MODEL 4
REMARK VINA RESULT: -8.509953867      3.660      9.532
REMARK  6 active torsions:
REMARK  status: ('A' for Active; 'I' for Inactive)
REMARK    1  A    between atoms: N1_10  and  O1_11 
REMARK    2  A    between atoms: C12_18  and  N3_19 
REMARK    3  A    between atoms: N3_19  and  C13_20 
REMARK    4  A    between atoms: C16_23  and  S2_24 
REMARK    5  A    between atoms: S2_24  and  N4_25 
REMARK    6  A    between atoms: C19_32  and  N5_33 
ROOT
HETATM    1  C1  UNL     1      13.660  15.320 112.602  1.00  0.00     0.057 C 
HETATM    2  C2  UNL     1      12.955  16.388 113.391  1.00  0.00    -0.014 A 
HETATM    3  S1  UNL     1      11.486  16.221 114.208  1.00  0.00    -0.091 SA
HETATM    4  C3  UNL     1      11.346  17.806 114.832  1.00  0.00     0.044 A 
HETATM    5  C4  UNL     1      12.480  18.446 114.375  1.00  0.00     0.003 A 
HETATM    6  C5  UNL     1      12.605  19.785 114.772  1.00  0.00     0.004 A 
HETATM    7  C6  UNL     1      13.666  20.707 114.443  1.00  0.00     0.045 A 
HETATM    8  C7  UNL     1      13.810  21.239 113.199  1.00  0.00     0.050 A 
HETATM    9  C8  UNL     1      14.754  22.202 112.968  1.00  0.00     0.126 A 
HETATM   10  N1  UNL     1      15.553  22.650 113.936  1.00  0.00    -0.232 N 
HETATM   11  C9  UNL     1      15.408  22.125 115.157  1.00  0.00     0.213 A 
HETATM   12  N2  UNL     1      14.496  21.185 115.411  1.00  0.00    -0.350 N 
ATOM     13  H2  UNL     1      14.418  20.813 116.358  1.00  0.00     0.166 HD
HETATM   14  C10 UNL     1      11.609  20.352 115.582  1.00  0.00     0.032 A 
HETATM   15  C11 UNL     1      10.502  19.699 116.023  1.00  0.00     0.036 A 
HETATM   16  C12 UNL     1       9.545  20.357 116.840  1.00  0.00     0.154 A 
HETATM   17  C19 UNL     1       8.461  19.575 117.219  1.00  0.00     0.159 A 
HETATM   18  C20 UNL     1       8.390  18.240 116.785  1.00  0.00     0.128 A 
HETATM   19  N6  UNL     1       9.328  17.680 116.014  1.00  0.00    -0.361 N 
ATOM     20  H6  UNL     1       9.240  16.707 115.720  1.00  0.00     0.165 HD
HETATM   21  C21 UNL     1      10.371  18.400 115.637  1.00  0.00     0.064 A 
HETATM   22  C22 UNL     1      13.317  17.694 113.624  1.00  0.00    -0.037 A 
HETATM   23  C23 UNL     1      14.662  18.128 113.060  1.00  0.00     0.050 C 
ENDROOT
BRANCH  16  24
HETATM   24  N3  UNL     1       9.738  21.527 117.109  1.00  0.00    -0.402 NA
BRANCH  24  25
HETATM   25  C13 UNL     1      10.369  22.631 117.451  1.00  0.00     0.107 A 
HETATM   26  C14 UNL     1      11.534  22.576 118.231  1.00  0.00     0.046 A 
HETATM   27  C15 UNL     1      12.184  23.714 118.599  1.00  0.00     0.028 A 
HETATM   28  C16 UNL     1      11.694  24.935 118.205  1.00  0.00     0.079 A 
HETATM   29  C17 UNL     1      10.554  25.029 117.440  1.00  0.00     0.028 A 
HETATM   30  C18 UNL     1       9.910  23.881 117.076  1.00  0.00     0.046 A 
BRANCH  28  31
HETATM   31  S2  UNL     1      12.515  26.407 118.662  1.00  0.00     0.256 S 
HETATM   32  O2  UNL     1      13.474  26.073 119.778  1.00  0.00    -0.201 OA
HETATM   33  O3  UNL     1      13.253  26.959 117.484  1.00  0.00    -0.201 OA
BRANCH  31  34
HETATM   34  N4  UNL     1      11.397  27.584 119.235  1.00  0.00    -0.324 N 
ATOM     35  H42 UNL     1      10.973  27.557 120.163  1.00  0.00     0.169 HD
ATOM     36  H41 UNL     1      11.222  28.297 118.527  1.00  0.00     0.169 HD
ENDBRANCH  31  34
ENDBRANCH  28  31
ENDBRANCH  24  25
ENDBRANCH  16  24
BRANCH  17  37
HETATM   37  N5  UNL     1       7.400  20.033 118.020  1.00  0.00    -0.111 N 
HETATM   38  O4  UNL     1       7.261  19.706 119.185  1.00  0.00    -0.532 OA
HETATM   39  O5  UNL     1       6.457  20.856 117.458  1.00  0.00    -0.532 OA
ENDBRANCH  17  37
BRANCH  10  40
HETATM   40  O1  UNL     1      16.509  23.629 113.697  1.00  0.00    -0.282 OA
ATOM     41  H1  UNL     1      16.585  24.397 114.249  1.00  0.00     0.245 HD
ENDBRANCH  10  40
TORSDOF 6
ENDMDL
MODEL 5
REMARK VINA RESULT: -8.417603435      1.967      2.426
REMARK  6 active torsions:
REMARK  status: ('A' for Active; 'I' for Inactive)
REMARK    1  A    between atoms: N1_10  and  O1_11 
REMARK    2  A    between atoms: C12_18  and  N3_19 
REMARK    3  A    between atoms: N3_19  and  C13_20 
REMARK    4  A    between atoms: C16_23  and  S2_24 
REMARK    5  A    between atoms: S2_24  and  N4_25 
REMARK    6  A    between atoms: C19_32  and  N5_33 
ROOT
HETATM    1  C1  UNL     1      11.172  30.529 118.346  1.00  0.00     0.057 C 
HETATM    2  C2  UNL     1      11.644  29.397 117.476  1.00  0.00    -0.014 A 
HETATM    3  S1  UNL     1      13.137  29.294 116.693  1.00  0.00    -0.091 SA
HETATM    4  C3  UNL     1      12.933  27.780 115.928  1.00  0.00     0.044 A 
HETATM    5  C4  UNL     1      11.669  27.380 116.310  1.00  0.00     0.003 A 
HETATM    6  C5  UNL     1      11.265  26.133 115.810  1.00  0.00     0.004 A 
HETATM    7  C6  UNL     1      10.005  25.463 116.025  1.00  0.00     0.045 A 
HETATM    8  C7  UNL     1       8.847  25.882 115.445  1.00  0.00     0.050 A 
HETATM    9  C8  UNL     1       7.704  25.143 115.579  1.00  0.00     0.126 A 
HETATM   10  N1  UNL     1       7.681  24.003 116.270  1.00  0.00    -0.232 N 
HETATM   11  C9  UNL     1       8.821  23.594 116.838  1.00  0.00     0.213 A 
HETATM   12  N2  UNL     1       9.950  24.295 116.723  1.00  0.00    -0.350 N 
ATOM     13  H2  UNL     1      10.797  23.946 117.172  1.00  0.00     0.166 HD
HETATM   14  C10 UNL     1      12.146  25.408 114.993  1.00  0.00     0.032 A 
HETATM   15  C11 UNL     1      13.389  25.823 114.633  1.00  0.00     0.036 A 
HETATM   16  C12 UNL     1      14.212  25.020 113.799  1.00  0.00     0.154 A 
HETATM   17  C19 UNL     1      15.456  25.562 113.506  1.00  0.00     0.159 A 
HETATM   18  C20 UNL     1      15.802  26.819 114.034  1.00  0.00     0.128 A 
HETATM   19  N6  UNL     1      14.978  27.525 114.815  1.00  0.00    -0.361 N 
ATOM     20  H6  UNL     1      15.267  28.433 115.179  1.00  0.00     0.165 HD
HETATM   21  C21 UNL     1      13.787  27.034 115.111  1.00  0.00     0.064 A 
HETATM   22  C22 UNL     1      11.004  28.232 117.123  1.00  0.00    -0.037 A 
HETATM   23  C23 UNL     1       9.635  28.003 117.747  1.00  0.00     0.050 C 
ENDROOT
BRANCH  16  24
HETATM   24  N3  UNL     1      13.757  23.965 113.401  1.00  0.00    -0.402 NA
BRANCH  24  25
HETATM   25  C13 UNL     1      13.691  22.695 113.062  1.00  0.00     0.107 A 
HETATM   26  C14 UNL     1      12.763  22.259 112.102  1.00  0.00     0.046 A 
HETATM   27  C15 UNL     1      12.680  20.945 111.756  1.00  0.00     0.028 A 
HETATM   28  C16 UNL     1      13.512  20.030 112.352  1.00  0.00     0.079 A 
HETATM   29  C17 UNL     1      14.434  20.419 113.296  1.00  0.00     0.028 A 
HETATM   30  C18 UNL     1      14.509  21.740 113.637  1.00  0.00     0.046 A 
BRANCH  28  31
HETATM   31  S2  UNL     1      13.425  18.341 111.918  1.00  0.00     0.256 S 
HETATM   32  O2  UNL     1      12.536  18.221 110.705  1.00  0.00    -0.201 OA
HETATM   33  O3  UNL     1      14.798  17.827 111.615  1.00  0.00    -0.201 OA
BRANCH  31  34
HETATM   34  N4  UNL     1      12.739  17.411 113.194  1.00  0.00    -0.324 N 
ATOM     35  H42 UNL     1      12.272  17.820 114.004  1.00  0.00     0.169 HD
ATOM     36  H41 UNL     1      12.864  16.413 113.027  1.00  0.00     0.169 HD
ENDBRANCH  31  34
ENDBRANCH  28  31
ENDBRANCH  24  25
ENDBRANCH  16  24
BRANCH  17  37
HETATM   37  N5  UNL     1      16.419  24.935 112.695  1.00  0.00    -0.111 N 
HETATM   38  O4  UNL     1      17.187  24.088 113.115  1.00  0.00    -0.532 OA
HETATM   39  O5  UNL     1      16.525  25.317 111.381  1.00  0.00    -0.532 OA
ENDBRANCH  17  37
BRANCH  10  40
HETATM   40  O1  UNL     1       6.518  23.255 116.402  1.00  0.00    -0.282 OA
ATOM     41  H1  UNL     1       5.985  23.296 117.187  1.00  0.00     0.245 HD
ENDBRANCH  10  40
TORSDOF 6
ENDMDL
