MODEL 1
REMARK VINA RESULT: -10.049663281      0.000      0.000
REMARK  5 active torsions:
REMARK  status: ('A' for Active; 'I' for Inactive)
REMARK    1  A    between atoms: C4_5  and  C5_6 
REMARK       I    between atoms: C5_6  and  N2_8 
REMARK    2  A    between atoms: N2_8  and  C6_10 
REMARK    3  A    between atoms: C8_12  and  C9_13 
REMARK    4  A    between atoms: C12_17  and  C13_18 
REMARK    5  A    between atoms: C17_22  and  C18_23 
ROOT
HETATM    1  N1  UNL     1      13.611  29.931 112.649  1.00  0.00    -0.190 NA
HETATM    2  C1  UNL     1      13.630  29.945 111.491  1.00  0.00     0.117 C 
HETATM    3  C2  UNL     1      13.663  29.982 110.042  1.00  0.00     0.114 A 
HETATM    4  C3  UNL     1      14.686  29.435 109.329  1.00  0.00     0.058 A 
HETATM    5  C4  UNL     1      14.707  29.477 107.955  1.00  0.00     0.036 A 
HETATM    6  C26 UNL     1      13.651  30.098 107.309  1.00  0.00     0.034 A 
HETATM    7  C27 UNL     1      12.640  30.635 108.068  1.00  0.00     0.090 A 
HETATM    8  N8  UNL     1      12.638  30.584 109.405  1.00  0.00    -0.357 N 
ATOM      9  H8  UNL     1      11.870  30.995 109.937  1.00  0.00     0.166 HD
ENDROOT
BRANCH   5  10
HETATM   10  C5  UNL     1      15.814  28.885 107.223  1.00  0.00     0.257 C 
HETATM   11  O1  UNL     1      15.749  28.829 105.975  1.00  0.00    -0.267 OA
HETATM   12  N2  UNL     1      16.966  28.365 107.863  1.00  0.00    -0.309 N 
ATOM     13  H2  UNL     1      17.817  28.927 107.892  1.00  0.00     0.170 HD
BRANCH  12  14
HETATM   14  C6  UNL     1      16.960  27.193 108.412  1.00  0.00     0.108 A 
HETATM   15  C7  UNL     1      16.517  27.122 109.744  1.00  0.00     0.061 A 
HETATM   16  C8  UNL     1      16.506  25.893 110.344  1.00  0.00    -0.013 A 
HETATM   17  C24 UNL     1      16.922  24.802 109.634  1.00  0.00     0.030 A 
HETATM   18  C25 UNL     1      17.355  24.900 108.321  1.00  0.00     0.090 A 
HETATM   19  N7  UNL     1      17.363  26.101 107.742  1.00  0.00    -0.352 N 
ATOM     20  H7  UNL     1      17.679  26.191 106.777  1.00  0.00     0.166 HD
BRANCH  16  21
HETATM   21  C9  UNL     1      16.047  25.786 111.727  1.00  0.00     0.035 A 
HETATM   22  C10 UNL     1      15.180  26.615 112.403  1.00  0.00     0.118 A 
HETATM   23  N3  UNL     1      14.898  26.334 113.650  1.00  0.00    -0.309 N 
HETATM   24  C11 UNL     1      14.115  26.872 114.654  1.00  0.00     0.129 A 
HETATM   25  C23 UNL     1      15.467  25.259 114.196  1.00  0.00     0.156 A 
HETATM   26  C12 UNL     1      14.218  26.117 115.798  1.00  0.00     0.060 A 
HETATM   27  N6  UNL     1      15.059  25.121 115.497  1.00  0.00    -0.334 N 
ATOM     28  H6  UNL     1      15.351  24.379 116.134  1.00  0.00     0.168 HD
HETATM   29  S1  UNL     1      16.418  24.629 112.929  1.00  0.00    -0.051 SA
BRANCH  26  30
HETATM   30  C13 UNL     1      13.532  26.385 117.062  1.00  0.00    -0.007 A 
HETATM   31  C14 UNL     1      13.801  25.678 118.211  1.00  0.00     0.014 A 
HETATM   32  C15 UNL     1      13.164  25.918 119.407  1.00  0.00     0.002 A 
HETATM   33  C16 UNL     1      12.216  26.912 119.447  1.00  0.00     0.012 A 
HETATM   34  C17 UNL     1      11.893  27.666 118.329  1.00  0.00    -0.022 A 
HETATM   35  C22 UNL     1      12.575  27.371 117.151  1.00  0.00     0.026 A 
BRANCH  34  36
HETATM   36  C18 UNL     1      10.891  28.716 118.371  1.00  0.00     0.005 A 
HETATM   37  C19 UNL     1      11.244  30.026 118.190  1.00  0.00     0.106 A 
HETATM   38  N4  UNL     1      10.330  31.027 118.225  1.00  0.00    -0.318 N 
HETATM   39  C20 UNL     1       9.039  30.757 118.439  1.00  0.00     0.324 A 
ATOM     40  H4  UNL     1      10.630  31.992 118.088  1.00  0.00     0.170 HD
HETATM   41  O2  UNL     1       8.163  31.690 118.475  1.00  0.00    -0.247 OA
HETATM   42  N5  UNL     1       8.667  29.478 118.619  1.00  0.00    -0.318 N 
HETATM   43  C21 UNL     1       9.560  28.446 118.590  1.00  0.00     0.106 A 
ATOM     44  H5  UNL     1       7.682  29.271 118.783  1.00  0.00     0.170 HD
ENDBRANCH  34  36
ENDBRANCH  26  30
ENDBRANCH  16  21
ENDBRANCH  12  14
ENDBRANCH   5  10
TORSDOF 5
ENDMDL
MODEL 2
REMARK VINA RESULT: -9.492580373      6.689      8.882
REMARK  5 active torsions:
REMARK  status: ('A' for Active; 'I' for Inactive)
REMARK    1  A    between atoms: C4_5  and  C5_6 
REMARK       I    between atoms: C5_6  and  N2_8 
REMARK    2  A    between atoms: N2_8  and  C6_10 
REMARK    3  A    between atoms: C8_12  and  C9_13 
REMARK    4  A    between atoms: C12_17  and  C13_18 
REMARK    5  A    between atoms: C17_22  and  C18_23 
ROOT
HETATM    1  N1  UNL     1      16.253  15.240 114.243  1.00  0.00    -0.190 NA
HETATM    2  C1  UNL     1      15.801  15.442 113.195  1.00  0.00     0.117 C 
HETATM    3  C2  UNL     1      15.234  15.673 111.881  1.00  0.00     0.114 A 
HETATM    4  C3  UNL     1      13.893  15.819 111.688  1.00  0.00     0.058 A 
HETATM    5  C4  UNL     1      13.368  16.037 110.437  1.00  0.00     0.036 A 
HETATM    6  C26 UNL     1      14.245  16.102 109.367  1.00  0.00     0.034 A 
HETATM    7  C27 UNL     1      15.588  15.948 109.608  1.00  0.00     0.090 A 
HETATM    8  N8  UNL     1      16.081  15.738 110.834  1.00  0.00    -0.357 N 
ATOM      9  H8  UNL     1      17.085  15.627 110.975  1.00  0.00     0.166 HD
ENDROOT
BRANCH   5  10
HETATM   10  C5  UNL     1      11.933  16.189 110.265  1.00  0.00     0.257 C 
HETATM   11  O1  UNL     1      11.384  15.649 109.279  1.00  0.00    -0.267 OA
HETATM   12  N2  UNL     1      11.126  16.925 111.167  1.00  0.00    -0.309 N 
ATOM     13  H2  UNL     1      10.579  16.426 111.868  1.00  0.00     0.170 HD
BRANCH  12  14
HETATM   14  C6  UNL     1      11.069  18.217 111.119  1.00  0.00     0.108 A 
HETATM   15  C7  UNL     1      11.424  18.909 112.289  1.00  0.00     0.061 A 
HETATM   16  C8  UNL     1      11.367  20.275 112.260  1.00  0.00    -0.013 A 
HETATM   17  C24 UNL     1      10.973  20.901 111.112  1.00  0.00     0.030 A 
HETATM   18  C25 UNL     1      10.627  20.194 109.970  1.00  0.00     0.090 A 
HETATM   19  N7  UNL     1      10.685  18.863 110.005  1.00  0.00    -0.352 N 
ATOM     20  H7  UNL     1      10.434  18.328 109.174  1.00  0.00     0.166 HD
BRANCH  16  21
HETATM   21  C9  UNL     1      11.734  21.023 113.461  1.00  0.00     0.035 A 
HETATM   22  C10 UNL     1      11.311  22.275 113.847  1.00  0.00     0.118 A 
HETATM   23  N3  UNL     1      11.765  22.764 114.973  1.00  0.00    -0.309 N 
HETATM   24  C11 UNL     1      11.610  23.926 115.705  1.00  0.00     0.129 A 
HETATM   25  C23 UNL     1      12.614  22.020 115.684  1.00  0.00     0.156 A 
HETATM   26  C12 UNL     1      12.366  23.874 116.851  1.00  0.00     0.060 A 
HETATM   27  N6  UNL     1      12.982  22.687 116.823  1.00  0.00    -0.334 N 
ATOM     28  H6  UNL     1      13.623  22.335 117.535  1.00  0.00     0.168 HD
HETATM   29  S1  UNL     1      12.776  20.603 114.750  1.00  0.00    -0.051 SA
BRANCH  26  30
HETATM   30  C13 UNL     1      12.452  24.926 117.865  1.00  0.00    -0.007 A 
HETATM   31  C14 UNL     1      13.309  24.848 118.938  1.00  0.00     0.014 A 
HETATM   32  C15 UNL     1      13.401  25.827 119.900  1.00  0.00     0.002 A 
HETATM   33  C16 UNL     1      12.594  26.933 119.775  1.00  0.00     0.012 A 
HETATM   34  C17 UNL     1      11.706  27.081 118.720  1.00  0.00    -0.022 A 
HETATM   35  C22 UNL     1      11.664  26.052 117.782  1.00  0.00     0.026 A 
BRANCH  34  36
HETATM   36  C18 UNL     1      10.853  28.249 118.589  1.00  0.00     0.005 A 
HETATM   37  C19 UNL     1       9.496  28.142 118.732  1.00  0.00     0.106 A 
HETATM   38  N4  UNL     1       8.675  29.214 118.614  1.00  0.00    -0.318 N 
HETATM   39  C20 UNL     1       9.177  30.425 118.352  1.00  0.00     0.324 A 
ATOM     40  H4  UNL     1       7.668  29.096 118.725  1.00  0.00     0.170 HD
HETATM   41  O2  UNL     1       8.417  31.448 118.238  1.00  0.00    -0.247 OA
HETATM   42  N5  UNL     1      10.507  30.555 118.208  1.00  0.00    -0.318 N 
HETATM   43  C21 UNL     1      11.362  29.497 118.320  1.00  0.00     0.106 A 
ATOM     44  H5  UNL     1      10.891  31.478 118.007  1.00  0.00     0.170 HD
ENDBRANCH  34  36
ENDBRANCH  26  30
ENDBRANCH  16  21
ENDBRANCH  12  14
ENDBRANCH   5  10
TORSDOF 5
ENDMDL
MODEL 3
REMARK VINA RESULT: -9.364628104      6.429     10.894
REMARK  5 active torsions:
REMARK  status: ('A' for Active; 'I' for Inactive)
REMARK    1  A    between atoms: C4_5  and  C5_6 
REMARK       I    between atoms: C5_6  and  N2_8 
REMARK    2  A    between atoms: N2_8  and  C6_10 
REMARK    3  A    between atoms: C8_12  and  C9_13 
REMARK    4  A    between atoms: C12_17  and  C13_18 
REMARK    5  A    between atoms: C17_22  and  C18_23 
ROOT
HETATM    1  N1  UNL     1      17.308  25.157 113.685  1.00  0.00    -0.190 NA
HETATM    2  C1  UNL     1      16.566  26.039 113.797  1.00  0.00     0.117 C 
HETATM    3  C2  UNL     1      15.622  27.133 113.924  1.00  0.00     0.114 A 
HETATM    4  C3  UNL     1      14.713  27.189 114.936  1.00  0.00     0.058 A 
HETATM    5  C4  UNL     1      13.823  28.231 115.046  1.00  0.00     0.036 A 
HETATM    6  C26 UNL     1      13.874  29.231 114.089  1.00  0.00     0.034 A 
HETATM    7  C27 UNL     1      14.808  29.134 113.087  1.00  0.00     0.090 A 
HETATM    8  N8  UNL     1      15.667  28.111 112.997  1.00  0.00    -0.357 N 
ATOM      9  H8  UNL     1      16.345  28.072 112.237  1.00  0.00     0.166 HD
ENDROOT
BRANCH   5  10
HETATM   10  C5  UNL     1      12.865  28.260 116.138  1.00  0.00     0.257 C 
HETATM   11  O1  UNL     1      12.824  29.269 116.876  1.00  0.00    -0.267 OA
HETATM   12  N2  UNL     1      11.972  27.192 116.405  1.00  0.00    -0.309 N 
ATOM     13  H2  UNL     1      11.004  27.261 116.092  1.00  0.00     0.170 HD
BRANCH  12  14
HETATM   14  C6  UNL     1      12.361  26.132 117.037  1.00  0.00     0.108 A 
HETATM   15  C7  UNL     1      12.454  24.948 116.286  1.00  0.00     0.061 A 
HETATM   16  C8  UNL     1      12.860  23.815 116.937  1.00  0.00    -0.013 A 
HETATM   17  C24 UNL     1      13.154  23.882 118.270  1.00  0.00     0.030 A 
HETATM   18  C25 UNL     1      13.054  25.064 118.987  1.00  0.00     0.090 A 
HETATM   19  N7  UNL     1      12.658  26.163 118.347  1.00  0.00    -0.352 N 
ATOM     20  H7  UNL     1      12.578  27.042 118.860  1.00  0.00     0.166 HD
BRANCH  16  21
HETATM   21  C9  UNL     1      12.970  22.568 116.182  1.00  0.00     0.035 A 
HETATM   22  C10 UNL     1      13.782  22.293 115.105  1.00  0.00     0.118 A 
HETATM   23  N3  UNL     1      13.724  21.098 114.573  1.00  0.00    -0.309 N 
HETATM   24  C11 UNL     1      14.334  20.426 113.531  1.00  0.00     0.129 A 
HETATM   25  C23 UNL     1      12.880  20.213 115.106  1.00  0.00     0.156 A 
HETATM   26  C12 UNL     1      13.853  19.142 113.444  1.00  0.00     0.060 A 
HETATM   27  N6  UNL     1      12.954  19.026 114.427  1.00  0.00    -0.334 N 
ATOM     28  H6  UNL     1      12.410  18.189 114.637  1.00  0.00     0.168 HD
HETATM   29  S1  UNL     1      12.153  21.080 116.382  1.00  0.00    -0.051 SA
BRANCH  26  30
HETATM   30  C13 UNL     1      14.268  18.141 112.460  1.00  0.00    -0.007 A 
HETATM   31  C14 UNL     1      15.445  17.439 112.573  1.00  0.00     0.014 A 
HETATM   32  C15 UNL     1      15.849  16.495 111.656  1.00  0.00     0.002 A 
HETATM   33  C16 UNL     1      15.031  16.249 110.580  1.00  0.00     0.012 A 
HETATM   34  C17 UNL     1      13.830  16.917 110.400  1.00  0.00    -0.022 A 
HETATM   35  C22 UNL     1      13.481  17.859 111.365  1.00  0.00     0.026 A 
BRANCH  34  36
HETATM   36  C18 UNL     1      12.966  16.658 109.262  1.00  0.00     0.005 A 
HETATM   37  C19 UNL     1      13.314  15.727 108.320  1.00  0.00     0.106 A 
HETATM   38  N4  UNL     1      12.529  15.465 107.246  1.00  0.00    -0.318 N 
HETATM   39  C20 UNL     1      11.375  16.116 107.077  1.00  0.00     0.324 A 
ATOM     40  H4  UNL     1      12.821  14.766 106.563  1.00  0.00     0.170 HD
HETATM   41  O2  UNL     1      10.621  15.880 106.069  1.00  0.00    -0.247 OA
HETATM   42  N5  UNL     1      11.011  17.034 107.988  1.00  0.00    -0.318 N 
HETATM   43  C21 UNL     1      11.777  17.324 109.081  1.00  0.00     0.106 A 
ATOM     44  H5  UNL     1      10.131  17.533 107.860  1.00  0.00     0.170 HD
ENDBRANCH  34  36
ENDBRANCH  26  30
ENDBRANCH  16  21
ENDBRANCH  12  14
ENDBRANCH   5  10
TORSDOF 5
ENDMDL
MODEL 4
REMARK VINA RESULT: -9.074208952      5.812     10.777
REMARK  5 active torsions:
REMARK  status: ('A' for Active; 'I' for Inactive)
REMARK    1  A    between atoms: C4_5  and  C5_6 
REMARK       I    between atoms: C5_6  and  N2_8 
REMARK    2  A    between atoms: N2_8  and  C6_10 
REMARK    3  A    between atoms: C8_12  and  C9_13 
REMARK    4  A    between atoms: C12_17  and  C13_18 
REMARK    5  A    between atoms: C17_22  and  C18_23 
ROOT
HETATM    1  N1  UNL     1       7.997  25.116 116.161  1.00  0.00    -0.190 NA
HETATM    2  C1  UNL     1       8.183  26.175 116.593  1.00  0.00     0.117 C 
HETATM    3  C2  UNL     1       8.413  27.492 117.154  1.00  0.00     0.114 A 
HETATM    4  C3  UNL     1       9.664  27.943 117.448  1.00  0.00     0.058 A 
HETATM    5  C4  UNL     1       9.869  29.194 117.980  1.00  0.00     0.036 A 
HETATM    6  C26 UNL     1       8.760  29.990 118.213  1.00  0.00     0.034 A 
HETATM    7  C27 UNL     1       7.518  29.494 117.900  1.00  0.00     0.090 A 
HETATM    8  N8  UNL     1       7.338  28.274 117.382  1.00  0.00    -0.357 N 
ATOM      9  H8  UNL     1       6.400  27.939 117.164  1.00  0.00     0.166 HD
ENDROOT
BRANCH   5  10
HETATM   10  C5  UNL     1      11.216  29.646 118.284  1.00  0.00     0.257 C 
HETATM   11  O1  UNL     1      11.395  30.846 118.586  1.00  0.00    -0.267 OA
HETATM   12  N2  UNL     1      12.340  28.783 118.252  1.00  0.00    -0.309 N 
ATOM     13  H2  UNL     1      12.706  28.407 119.127  1.00  0.00     0.170 HD
BRANCH  12  14
HETATM   14  C6  UNL     1      12.911  28.463 117.136  1.00  0.00     0.108 A 
HETATM   15  C7  UNL     1      13.042  27.091 116.864  1.00  0.00     0.061 A 
HETATM   16  C8  UNL     1      13.646  26.731 115.691  1.00  0.00    -0.013 A 
HETATM   17  C24 UNL     1      14.091  27.707 114.845  1.00  0.00     0.030 A 
HETATM   18  C25 UNL     1      13.950  29.055 115.137  1.00  0.00     0.090 A 
HETATM   19  N7  UNL     1      13.360  29.398 116.282  1.00  0.00    -0.352 N 
ATOM     20  H7  UNL     1      13.248  30.386 116.513  1.00  0.00     0.166 HD
BRANCH  16  21
HETATM   21  C9  UNL     1      13.793  25.311 115.378  1.00  0.00     0.035 A 
HETATM   22  C10 UNL     1      12.819  24.338 115.356  1.00  0.00     0.118 A 
HETATM   23  N3  UNL     1      13.170  23.116 115.045  1.00  0.00    -0.309 N 
HETATM   24  C11 UNL     1      12.545  21.890 114.909  1.00  0.00     0.129 A 
HETATM   25  C23 UNL     1      14.452  22.882 114.766  1.00  0.00     0.156 A 
HETATM   26  C12 UNL     1      13.456  20.927 114.549  1.00  0.00     0.060 A 
HETATM   27  N6  UNL     1      14.634  21.557 114.465  1.00  0.00    -0.334 N 
ATOM     28  H6  UNL     1      15.522  21.123 114.217  1.00  0.00     0.168 HD
HETATM   29  S1  UNL     1      15.181  24.413 114.945  1.00  0.00    -0.051 SA
BRANCH  26  30
HETATM   30  C13 UNL     1      13.157  19.513 114.318  1.00  0.00    -0.007 A 
HETATM   31  C14 UNL     1      12.379  18.774 115.178  1.00  0.00     0.014 A 
HETATM   32  C15 UNL     1      12.089  17.444 114.975  1.00  0.00     0.002 A 
HETATM   33  C16 UNL     1      12.606  16.834 113.858  1.00  0.00     0.012 A 
HETATM   34  C17 UNL     1      13.398  17.515 112.946  1.00  0.00    -0.022 A 
HETATM   35  C22 UNL     1      13.652  18.859 113.212  1.00  0.00     0.026 A 
BRANCH  34  36
HETATM   36  C18 UNL     1      13.944  16.869 111.766  1.00  0.00     0.005 A 
HETATM   37  C19 UNL     1      13.117  16.301 110.835  1.00  0.00     0.106 A 
HETATM   38  N4  UNL     1      13.599  15.690 109.725  1.00  0.00    -0.318 N 
HETATM   39  C20 UNL     1      14.916  15.626 109.505  1.00  0.00     0.324 A 
ATOM     40  H4  UNL     1      12.953  15.276 109.054  1.00  0.00     0.170 HD
HETATM   41  O2  UNL     1      15.388  15.054 108.462  1.00  0.00    -0.247 OA
HETATM   42  N5  UNL     1      15.748  16.177 110.405  1.00  0.00    -0.318 N 
HETATM   43  C21 UNL     1      15.298  16.800 111.533  1.00  0.00     0.106 A 
ATOM     44  H5  UNL     1      16.753  16.128 110.238  1.00  0.00     0.170 HD
ENDBRANCH  34  36
ENDBRANCH  26  30
ENDBRANCH  16  21
ENDBRANCH  12  14
ENDBRANCH   5  10
TORSDOF 5
ENDMDL
MODEL 5
REMARK VINA RESULT: -9.007425321      6.621     11.755
REMARK  5 active torsions:
REMARK  status: ('A' for Active; 'I' for Inactive)
REMARK    1  A    between atoms: C4_5  and  C5_6 
REMARK       I    between atoms: C5_6  and  N2_8 
REMARK    2  A    between atoms: N2_8  and  C6_10 
REMARK    3  A    between atoms: C8_12  and  C9_13 
REMARK    4  A    between atoms: C12_17  and  C13_18 
REMARK    5  A    between atoms: C17_22  and  C18_23 
ROOT
HETATM    1  N1  UNL     1      16.026  25.025 122.782  1.00  0.00    -0.190 NA
HETATM    2  C1  UNL     1      15.362  24.786 121.863  1.00  0.00     0.117 C 
HETATM    3  C2  UNL     1      14.513  24.484 120.726  1.00  0.00     0.114 A 
HETATM    4  C3  UNL     1      13.893  25.462 120.008  1.00  0.00     0.058 A 
HETATM    5  C4  UNL     1      13.091  25.163 118.933  1.00  0.00     0.036 A 
HETATM    6  C26 UNL     1      12.925  23.830 118.597  1.00  0.00     0.034 A 
HETATM    7  C27 UNL     1      13.569  22.878 119.349  1.00  0.00     0.090 A 
HETATM    8  N8  UNL     1      14.348  23.188 120.393  1.00  0.00    -0.357 N 
ATOM      9  H8  UNL     1      14.809  22.454 120.929  1.00  0.00     0.166 HD
ENDROOT
BRANCH   5  10
HETATM   10  C5  UNL     1      12.444  26.229 118.188  1.00  0.00     0.257 C 
HETATM   11  O1  UNL     1      11.195  26.247 118.123  1.00  0.00    -0.267 OA
HETATM   12  N2  UNL     1      13.167  27.253 117.527  1.00  0.00    -0.309 N 
ATOM     13  H2  UNL     1      13.255  28.167 117.970  1.00  0.00     0.170 HD
BRANCH  12  14
HETATM   14  C6  UNL     1      13.719  27.050 116.374  1.00  0.00     0.108 A 
HETATM   15  C7  UNL     1      13.561  25.771 115.814  1.00  0.00     0.061 A 
HETATM   16  C8  UNL     1      14.140  25.536 114.597  1.00  0.00    -0.013 A 
HETATM   17  C24 UNL     1      14.837  26.539 113.986  1.00  0.00     0.030 A 
HETATM   18  C25 UNL     1      14.978  27.793 114.561  1.00  0.00     0.090 A 
HETATM   19  N7  UNL     1      14.412  28.015 115.746  1.00  0.00    -0.352 N 
ATOM     20  H7  UNL     1      14.506  28.932 116.184  1.00  0.00     0.166 HD
BRANCH  16  21
HETATM   21  C9  UNL     1      13.990  24.215 113.988  1.00  0.00     0.035 A 
HETATM   22  C10 UNL     1      14.526  23.018 114.406  1.00  0.00     0.118 A 
HETATM   23  N3  UNL     1      14.262  21.943 113.708  1.00  0.00    -0.309 N 
HETATM   24  C11 UNL     1      14.579  20.598 113.767  1.00  0.00     0.129 A 
HETATM   25  C23 UNL     1      13.488  22.067 112.630  1.00  0.00     0.156 A 
HETATM   26  C12 UNL     1      13.993  19.923 112.723  1.00  0.00     0.060 A 
HETATM   27  N6  UNL     1      13.321  20.848 112.028  1.00  0.00    -0.334 N 
ATOM     28  H6  UNL     1      12.772  20.674 111.186  1.00  0.00     0.168 HD
HETATM   29  S1  UNL     1      13.123  23.732 112.596  1.00  0.00    -0.051 SA
BRANCH  26  30
HETATM   30  C13 UNL     1      14.109  18.488 112.463  1.00  0.00    -0.007 A 
HETATM   31  C14 UNL     1      14.705  17.624 113.351  1.00  0.00     0.014 A 
HETATM   32  C15 UNL     1      14.823  16.272 113.121  1.00  0.00     0.002 A 
HETATM   33  C16 UNL     1      14.318  15.771 111.946  1.00  0.00     0.012 A 
HETATM   34  C17 UNL     1      13.703  16.581 111.003  1.00  0.00    -0.022 A 
HETATM   35  C22 UNL     1      13.617  17.939 111.300  1.00  0.00     0.026 A 
BRANCH  34  36
HETATM   36  C18 UNL     1      13.170  16.051 109.761  1.00  0.00     0.005 A 
HETATM   37  C19 UNL     1      13.980  15.381 108.884  1.00  0.00     0.106 A 
HETATM   38  N4  UNL     1      13.511  14.876 107.716  1.00  0.00    -0.318 N 
HETATM   39  C20 UNL     1      12.224  15.021 107.386  1.00  0.00     0.324 A 
ATOM     40  H4  UNL     1      14.144  14.383 107.087  1.00  0.00     0.170 HD
HETATM   41  O2  UNL     1      11.764  14.550 106.287  1.00  0.00    -0.247 OA
HETATM   42  N5  UNL     1      11.409  15.675 108.230  1.00  0.00    -0.318 N 
HETATM   43  C21 UNL     1      11.848  16.196 109.414  1.00  0.00     0.106 A 
ATOM     44  H5  UNL     1      10.428  15.787 107.978  1.00  0.00     0.170 HD
ENDBRANCH  34  36
ENDBRANCH  26  30
ENDBRANCH  16  21
ENDBRANCH  12  14
ENDBRANCH   5  10
TORSDOF 5
ENDMDL
