MODEL 1
REMARK VINA RESULT: -5.580663694      0.000      0.000
REMARK  16 active torsions:
REMARK  status: ('A' for Active; 'I' for Inactive)
REMARK    1  A    between atoms: O1_1  and  C1_3 
REMARK    2  A    between atoms: C1_3  and  C2_4 
REMARK    3  A    between atoms: C3_6  and  N1_7 
REMARK    4  A    between atoms: N1_7  and  C4_10 
REMARK    5  A    between atoms: C4_10  and  C5_11 
REMARK    6  A    between atoms: C5_11  and  C6_12 
REMARK    7  A    between atoms: C6_12  and  C7_13 
REMARK    8  A    between atoms: C7_13  and  C8_14 
REMARK    9  A    between atoms: C8_14  and  C9_15 
REMARK   10  A    between atoms: C9_15  and  C10_16 
REMARK   11  A    between atoms: C10_16  and  C11_17 
REMARK   12  A    between atoms: C11_17  and  N2_18 
REMARK   13  A    between atoms: N2_18  and  C12_20 
REMARK   14  A    between atoms: C17_25  and  O3_26 
REMARK   15  A    between atoms: C18_28  and  O4_29 
REMARK   16  A    between atoms: C19_31  and  O5_32 
ROOT
HETATM    1  N1  UNL     1      50.767  50.262  67.398  1.00  0.00    -0.046 N 
ATOM      2  H11 UNL     1      51.025  50.999  66.742  1.00  0.00     0.280 HD
ATOM      3  H12 UNL     1      49.878  49.977  66.987  1.00  0.00     0.280 HD
ENDROOT
BRANCH   1   4
HETATM    4  C3  UNL     1      50.575  50.797  68.732  1.00  0.00     0.353 C 
HETATM    5  O2  UNL     1      49.247  50.901  69.000  1.00  0.00    -0.347 OA
HETATM    6  C2  UNL     1      48.605  52.073  68.828  1.00  0.00     0.179 C 
HETATM    7  C19 UNL     1      49.376  53.280  69.257  1.00  0.00     0.180 C 
HETATM    8  C18 UNL     1      50.692  52.912  69.911  1.00  0.00     0.182 C 
HETATM    9  C17 UNL     1      51.414  52.012  68.929  1.00  0.00     0.205 C 
BRANCH   6  10
HETATM   10  C1  UNL     1      47.370  52.032  69.756  1.00  0.00     0.198 C 
BRANCH  10  11
HETATM   11  O1  UNL     1      47.597  51.159  70.829  1.00  0.00    -0.398 OA
ATOM     12  H1  UNL     1      47.220  51.512  71.626  1.00  0.00     0.209 HD
ENDBRANCH  10  11
ENDBRANCH   6  10
BRANCH   7  13
HETATM   13  O5  UNL     1      49.687  54.068  68.127  1.00  0.00    -0.390 OA
ATOM     14  H5  UNL     1      50.606  53.962  67.908  1.00  0.00     0.210 HD
ENDBRANCH   7  13
BRANCH   8  15
HETATM   15  O4  UNL     1      50.426  52.193  71.071  1.00  0.00    -0.390 OA
ATOM     16  H4  UNL     1      49.497  52.253  71.264  1.00  0.00     0.210 HD
ENDBRANCH   8  15
BRANCH   9  17
HETATM   17  O3  UNL     1      51.685  52.684  67.744  1.00  0.00    -0.388 OA
ATOM     18  H3  UNL     1      51.197  53.494  67.656  1.00  0.00     0.210 HD
ENDBRANCH   9  17
ENDBRANCH   1   4
BRANCH   1  19
HETATM   19  C4  UNL     1      51.731  49.171  67.360  1.00  0.00     0.235 C 
BRANCH  19  20
HETATM   20  C5  UNL     1      51.376  48.098  68.351  1.00  0.00     0.027 C 
BRANCH  20  21
HETATM   21  C6  UNL     1      52.527  47.368  68.948  1.00  0.00     0.002 C 
BRANCH  21  22
HETATM   22  C7  UNL     1      52.232  46.770  70.313  1.00  0.00     0.000 C 
BRANCH  22  23
HETATM   23  C8  UNL     1      52.235  47.766  71.393  1.00  0.00     0.000 C 
BRANCH  23  24
HETATM   24  C9  UNL     1      51.028  47.841  72.227  1.00  0.00     0.005 C 
BRANCH  24  25
HETATM   25  C10 UNL     1      49.836  48.569  71.702  1.00  0.00     0.044 C 
BRANCH  25  26
HETATM   26  C11 UNL     1      48.540  47.941  71.859  1.00  0.00     0.056 C 
BRANCH  26  27
HETATM   27  N2  UNL     1      47.573  47.929  70.841  1.00  0.00    -0.398 N 
ATOM     28  H2  UNL     1      46.595  47.957  71.130  1.00  0.00     0.159 HD
BRANCH  27  29
HETATM   29  C12 UNL     1      47.826  47.882  69.483  1.00  0.00     0.080 C 
HETATM   30  C13 UNL     1      48.040  46.552  68.844  1.00  0.00     0.025 C 
HETATM   31  C14 UNL     1      46.610  45.986  68.787  1.00  0.00     0.002 C 
HETATM   32  C15 UNL     1      45.674  47.123  68.990  1.00  0.00     0.002 C 
HETATM   33  C16 UNL     1      46.540  48.337  68.754  1.00  0.00     0.025 C 
ENDBRANCH  27  29
ENDBRANCH  26  27
ENDBRANCH  25  26
ENDBRANCH  24  25
ENDBRANCH  23  24
ENDBRANCH  22  23
ENDBRANCH  21  22
ENDBRANCH  20  21
ENDBRANCH  19  20
ENDBRANCH   1  19
TORSDOF 16
ENDMDL
MODEL 2
REMARK VINA RESULT: -5.315054167      5.034      7.817
REMARK  16 active torsions:
REMARK  status: ('A' for Active; 'I' for Inactive)
REMARK    1  A    between atoms: O1_1  and  C1_3 
REMARK    2  A    between atoms: C1_3  and  C2_4 
REMARK    3  A    between atoms: C3_6  and  N1_7 
REMARK    4  A    between atoms: N1_7  and  C4_10 
REMARK    5  A    between atoms: C4_10  and  C5_11 
REMARK    6  A    between atoms: C5_11  and  C6_12 
REMARK    7  A    between atoms: C6_12  and  C7_13 
REMARK    8  A    between atoms: C7_13  and  C8_14 
REMARK    9  A    between atoms: C8_14  and  C9_15 
REMARK   10  A    between atoms: C9_15  and  C10_16 
REMARK   11  A    between atoms: C10_16  and  C11_17 
REMARK   12  A    between atoms: C11_17  and  N2_18 
REMARK   13  A    between atoms: N2_18  and  C12_20 
REMARK   14  A    between atoms: C17_25  and  O3_26 
REMARK   15  A    between atoms: C18_28  and  O4_29 
REMARK   16  A    between atoms: C19_31  and  O5_32 
ROOT
HETATM    1  N1  UNL     1      50.557  47.857  67.770  1.00  0.00    -0.046 N 
ATOM      2  H11 UNL     1      50.132  48.572  67.180  1.00  0.00     0.280 HD
ATOM      3  H12 UNL     1      50.598  47.090  67.099  1.00  0.00     0.280 HD
ENDROOT
BRANCH   1   4
HETATM    4  C3  UNL     1      49.693  47.524  68.886  1.00  0.00     0.353 C 
HETATM    5  O2  UNL     1      48.879  46.490  68.546  1.00  0.00    -0.347 OA
HETATM    6  C2  UNL     1      47.625  46.723  68.112  1.00  0.00     0.179 C 
HETATM    7  C19 UNL     1      46.902  47.813  68.836  1.00  0.00     0.180 C 
HETATM    8  C18 UNL     1      47.706  48.355  69.999  1.00  0.00     0.182 C 
HETATM    9  C17 UNL     1      49.053  48.753  69.431  1.00  0.00     0.205 C 
BRANCH   6  10
HETATM   10  C1  UNL     1      46.818  45.438  68.406  1.00  0.00     0.198 C 
BRANCH  10  11
HETATM   11  O1  UNL     1      47.434  44.330  67.809  1.00  0.00    -0.398 OA
ATOM     12  H1  UNL     1      47.565  43.640  68.449  1.00  0.00     0.209 HD
ENDBRANCH  10  11
ENDBRANCH   6  10
BRANCH   7  13
HETATM   13  O5  UNL     1      46.675  48.894  67.956  1.00  0.00    -0.390 OA
ATOM     14  H5  UNL     1      45.946  49.415  68.273  1.00  0.00     0.210 HD
ENDBRANCH   7  13
BRANCH   8  15
HETATM   15  O4  UNL     1      47.891  47.334  70.925  1.00  0.00    -0.390 OA
ATOM     16  H4  UNL     1      48.774  47.390  71.272  1.00  0.00     0.210 HD
ENDBRANCH   8  15
BRANCH   9  17
HETATM   17  O3  UNL     1      48.916  49.761  68.484  1.00  0.00    -0.388 OA
ATOM     18  H3  UNL     1      49.063  50.629  68.841  1.00  0.00     0.210 HD
ENDBRANCH   9  17
ENDBRANCH   1   4
BRANCH   1  19
HETATM   19  C4  UNL     1      51.894  48.254  68.189  1.00  0.00     0.235 C 
BRANCH  19  20
HETATM   20  C5  UNL     1      52.463  47.280  69.184  1.00  0.00     0.027 C 
BRANCH  20  21
HETATM   21  C6  UNL     1      52.847  47.856  70.500  1.00  0.00     0.002 C 
BRANCH  21  22
HETATM   22  C7  UNL     1      54.189  47.366  71.016  1.00  0.00     0.000 C 
BRANCH  22  23
HETATM   23  C8  UNL     1      54.542  47.924  72.328  1.00  0.00     0.000 C 
BRANCH  23  24
HETATM   24  C9  UNL     1      55.709  47.340  73.002  1.00  0.00     0.005 C 
BRANCH  24  25
HETATM   25  C10 UNL     1      56.404  46.183  72.364  1.00  0.00     0.044 C 
BRANCH  25  26
HETATM   26  C11 UNL     1      57.852  46.193  72.348  1.00  0.00     0.056 C 
BRANCH  26  27
HETATM   27  N2  UNL     1      58.617  45.030  72.164  1.00  0.00    -0.398 N 
ATOM     28  H2  UNL     1      58.377  44.438  71.368  1.00  0.00     0.159 HD
BRANCH  27  29
HETATM   29  C12 UNL     1      59.665  44.612  72.964  1.00  0.00     0.080 C 
HETATM   30  C13 UNL     1      59.476  44.610  74.443  1.00  0.00     0.025 C 
HETATM   31  C14 UNL     1      58.580  43.377  74.652  1.00  0.00     0.002 C 
HETATM   32  C15 UNL     1      58.657  42.556  73.414  1.00  0.00     0.002 C 
HETATM   33  C16 UNL     1      59.874  43.102  72.707  1.00  0.00     0.025 C 
ENDBRANCH  27  29
ENDBRANCH  26  27
ENDBRANCH  25  26
ENDBRANCH  24  25
ENDBRANCH  23  24
ENDBRANCH  22  23
ENDBRANCH  21  22
ENDBRANCH  20  21
ENDBRANCH  19  20
ENDBRANCH   1  19
TORSDOF 16
ENDMDL
MODEL 3
REMARK VINA RESULT: -5.175809886      2.335      4.466
REMARK  16 active torsions:
REMARK  status: ('A' for Active; 'I' for Inactive)
REMARK    1  A    between atoms: O1_1  and  C1_3 
REMARK    2  A    between atoms: C1_3  and  C2_4 
REMARK    3  A    between atoms: C3_6  and  N1_7 
REMARK    4  A    between atoms: N1_7  and  C4_10 
REMARK    5  A    between atoms: C4_10  and  C5_11 
REMARK    6  A    between atoms: C5_11  and  C6_12 
REMARK    7  A    between atoms: C6_12  and  C7_13 
REMARK    8  A    between atoms: C7_13  and  C8_14 
REMARK    9  A    between atoms: C8_14  and  C9_15 
REMARK   10  A    between atoms: C9_15  and  C10_16 
REMARK   11  A    between atoms: C10_16  and  C11_17 
REMARK   12  A    between atoms: C11_17  and  N2_18 
REMARK   13  A    between atoms: N2_18  and  C12_20 
REMARK   14  A    between atoms: C17_25  and  O3_26 
REMARK   15  A    between atoms: C18_28  and  O4_29 
REMARK   16  A    between atoms: C19_31  and  O5_32 
ROOT
HETATM    1  N1  UNL     1      49.336  49.749  68.607  1.00  0.00    -0.046 N 
ATOM      2  H11 UNL     1      50.028  50.462  68.842  1.00  0.00     0.280 HD
ATOM      3  H12 UNL     1      49.059  50.085  67.684  1.00  0.00     0.280 HD
ENDROOT
BRANCH   1   4
HETATM    4  C3  UNL     1      48.218  49.786  69.529  1.00  0.00     0.353 C 
HETATM    5  O2  UNL     1      47.470  48.660  69.392  1.00  0.00    -0.347 OA
HETATM    6  C2  UNL     1      46.366  48.664  68.619  1.00  0.00     0.179 C 
HETATM    7  C19 UNL     1      45.533  49.901  68.721  1.00  0.00     0.180 C 
HETATM    8  C18 UNL     1      46.056  50.855  69.775  1.00  0.00     0.182 C 
HETATM    9  C17 UNL     1      47.515  51.095  69.439  1.00  0.00     0.205 C 
BRANCH   6  10
HETATM   10  C1  UNL     1      45.463  47.525  69.146  1.00  0.00     0.198 C 
BRANCH  10  11
HETATM   11  O1  UNL     1      44.321  48.056  69.762  1.00  0.00    -0.398 OA
ATOM     12  H1  UNL     1      43.912  47.403  70.316  1.00  0.00     0.209 HD
ENDBRANCH  10  11
ENDBRANCH   6  10
BRANCH   7  13
HETATM   13  O5  UNL     1      45.565  50.594  67.490  1.00  0.00    -0.390 OA
ATOM     14  H5  UNL     1      45.769  51.509  67.645  1.00  0.00     0.210 HD
ENDBRANCH   7  13
BRANCH   8  15
HETATM   15  O4  UNL     1      45.975  50.234  71.016  1.00  0.00    -0.390 OA
ATOM     16  H4  UNL     1      46.321  49.352  70.942  1.00  0.00     0.210 HD
ENDBRANCH   8  15
BRANCH   9  17
HETATM   17  O3  UNL     1      47.647  51.700  68.196  1.00  0.00    -0.388 OA
ATOM     18  H3  UNL     1      47.086  52.460  68.090  1.00  0.00     0.210 HD
ENDBRANCH   9  17
ENDBRANCH   1   4
BRANCH   1  19
HETATM   19  C4  UNL     1      49.954  48.434  68.518  1.00  0.00     0.235 C 
BRANCH  19  20
HETATM   20  C5  UNL     1      51.265  48.498  67.783  1.00  0.00     0.027 C 
BRANCH  20  21
HETATM   21  C6  UNL     1      52.440  47.958  68.517  1.00  0.00     0.002 C 
BRANCH  21  22
HETATM   22  C7  UNL     1      52.164  46.649  69.238  1.00  0.00     0.000 C 
BRANCH  22  23
HETATM   23  C8  UNL     1      53.045  46.429  70.392  1.00  0.00     0.000 C 
BRANCH  23  24
HETATM   24  C9  UNL     1      54.050  47.465  70.664  1.00  0.00     0.005 C 
BRANCH  24  25
HETATM   25  C10 UNL     1      54.613  47.577  72.042  1.00  0.00     0.044 C 
BRANCH  25  26
HETATM   26  C11 UNL     1      54.148  48.668  72.874  1.00  0.00     0.056 C 
BRANCH  26  27
HETATM   27  N2  UNL     1      52.916  48.637  73.546  1.00  0.00    -0.398 N 
ATOM     28  H2  UNL     1      52.802  47.930  74.274  1.00  0.00     0.159 HD
BRANCH  27  29
HETATM   29  C12 UNL     1      51.843  49.477  73.313  1.00  0.00     0.080 C 
HETATM   30  C13 UNL     1      51.140  49.388  72.001  1.00  0.00     0.025 C 
HETATM   31  C14 UNL     1      50.329  48.089  72.156  1.00  0.00     0.002 C 
HETATM   32  C15 UNL     1      50.286  47.763  73.607  1.00  0.00     0.002 C 
HETATM   33  C16 UNL     1      50.704  49.053  74.269  1.00  0.00     0.025 C 
ENDBRANCH  27  29
ENDBRANCH  26  27
ENDBRANCH  25  26
ENDBRANCH  24  25
ENDBRANCH  23  24
ENDBRANCH  22  23
ENDBRANCH  21  22
ENDBRANCH  20  21
ENDBRANCH  19  20
ENDBRANCH   1  19
TORSDOF 16
ENDMDL
MODEL 4
REMARK VINA RESULT: -5.151538788      1.989      5.068
REMARK  16 active torsions:
REMARK  status: ('A' for Active; 'I' for Inactive)
REMARK    1  A    between atoms: O1_1  and  C1_3 
REMARK    2  A    between atoms: C1_3  and  C2_4 
REMARK    3  A    between atoms: C3_6  and  N1_7 
REMARK    4  A    between atoms: N1_7  and  C4_10 
REMARK    5  A    between atoms: C4_10  and  C5_11 
REMARK    6  A    between atoms: C5_11  and  C6_12 
REMARK    7  A    between atoms: C6_12  and  C7_13 
REMARK    8  A    between atoms: C7_13  and  C8_14 
REMARK    9  A    between atoms: C8_14  and  C9_15 
REMARK   10  A    between atoms: C9_15  and  C10_16 
REMARK   11  A    between atoms: C10_16  and  C11_17 
REMARK   12  A    between atoms: C11_17  and  N2_18 
REMARK   13  A    between atoms: N2_18  and  C12_20 
REMARK   14  A    between atoms: C17_25  and  O3_26 
REMARK   15  A    between atoms: C18_28  and  O4_29 
REMARK   16  A    between atoms: C19_31  and  O5_32 
ROOT
HETATM    1  N1  UNL     1      46.895  48.163  69.909  1.00  0.00    -0.046 N 
ATOM      2  H11 UNL     1      46.005  48.038  70.392  1.00  0.00     0.280 HD
ATOM      3  H12 UNL     1      47.484  48.405  70.706  1.00  0.00     0.280 HD
ENDROOT
BRANCH   1   4
HETATM    4  C3  UNL     1      46.823  49.261  68.965  1.00  0.00     0.353 C 
HETATM    5  O2  UNL     1      47.503  50.332  69.452  1.00  0.00    -0.347 OA
HETATM    6  C2  UNL     1      46.850  51.319  70.097  1.00  0.00     0.179 C 
HETATM    7  C19 UNL     1      45.532  51.695  69.500  1.00  0.00     0.180 C 
HETATM    8  C18 UNL     1      45.259  50.952  68.209  1.00  0.00     0.182 C 
HETATM    9  C17 UNL     1      45.416  49.479  68.529  1.00  0.00     0.205 C 
BRANCH   6  10
HETATM   10  C1  UNL     1      47.730  52.583  69.960  1.00  0.00     0.198 C 
BRANCH  10  11
HETATM   11  O1  UNL     1      48.253  52.672  68.663  1.00  0.00    -0.398 OA
ATOM     12  H1  UNL     1      49.174  52.441  68.662  1.00  0.00     0.209 HD
ENDBRANCH  10  11
ENDBRANCH   6  10
BRANCH   7  13
HETATM   13  O5  UNL     1      44.494  51.354  70.396  1.00  0.00    -0.390 OA
ATOM     14  H5  UNL     1      44.238  50.450  70.257  1.00  0.00     0.210 HD
ENDBRANCH   7  13
BRANCH   8  15
HETATM   15  O4  UNL     1      46.222  51.316  67.275  1.00  0.00    -0.390 OA
ATOM     16  H4  UNL     1      46.676  52.090  67.586  1.00  0.00     0.210 HD
ENDBRANCH   8  15
BRANCH   9  17
HETATM   17  O3  UNL     1      44.484  49.072  69.475  1.00  0.00    -0.388 OA
ATOM     18  H3  UNL     1      43.701  48.696  69.089  1.00  0.00     0.210 HD
ENDBRANCH   9  17
ENDBRANCH   1   4
BRANCH   1  19
HETATM   19  C4  UNL     1      47.333  46.917  69.296  1.00  0.00     0.235 C 
BRANCH  19  20
HETATM   20  C5  UNL     1      48.310  47.175  68.182  1.00  0.00     0.027 C 
BRANCH  20  21
HETATM   21  C6  UNL     1      49.730  47.333  68.596  1.00  0.00     0.002 C 
BRANCH  21  22
HETATM   22  C7  UNL     1      50.629  47.890  67.506  1.00  0.00     0.000 C 
BRANCH  22  23
HETATM   23  C8  UNL     1      51.492  48.983  67.972  1.00  0.00     0.000 C 
BRANCH  23  24
HETATM   24  C9  UNL     1      50.848  50.284  68.197  1.00  0.00     0.005 C 
BRANCH  24  25
HETATM   25  C10 UNL     1      51.203  51.059  69.423  1.00  0.00     0.044 C 
BRANCH  25  26
HETATM   26  C11 UNL     1      51.080  50.390  70.702  1.00  0.00     0.056 C 
BRANCH  26  27
HETATM   27  N2  UNL     1      52.191  49.931  71.428  1.00  0.00    -0.398 N 
ATOM     28  H2  UNL     1      53.064  50.445  71.315  1.00  0.00     0.159 HD
BRANCH  27  29
HETATM   29  C12 UNL     1      52.208  48.844  72.283  1.00  0.00     0.080 C 
HETATM   30  C13 UNL     1      51.537  47.585  71.849  1.00  0.00     0.025 C 
HETATM   31  C14 UNL     1      52.533  47.027  70.817  1.00  0.00     0.002 C 
HETATM   32  C15 UNL     1      53.827  47.730  71.023  1.00  0.00     0.002 C 
HETATM   33  C16 UNL     1      53.672  48.358  72.387  1.00  0.00     0.025 C 
ENDBRANCH  27  29
ENDBRANCH  26  27
ENDBRANCH  25  26
ENDBRANCH  24  25
ENDBRANCH  23  24
ENDBRANCH  22  23
ENDBRANCH  21  22
ENDBRANCH  20  21
ENDBRANCH  19  20
ENDBRANCH   1  19
TORSDOF 16
ENDMDL
MODEL 5
REMARK VINA RESULT: -5.146766997      1.577      3.103
REMARK  16 active torsions:
REMARK  status: ('A' for Active; 'I' for Inactive)
REMARK    1  A    between atoms: O1_1  and  C1_3 
REMARK    2  A    between atoms: C1_3  and  C2_4 
REMARK    3  A    between atoms: C3_6  and  N1_7 
REMARK    4  A    between atoms: N1_7  and  C4_10 
REMARK    5  A    between atoms: C4_10  and  C5_11 
REMARK    6  A    between atoms: C5_11  and  C6_12 
REMARK    7  A    between atoms: C6_12  and  C7_13 
REMARK    8  A    between atoms: C7_13  and  C8_14 
REMARK    9  A    between atoms: C8_14  and  C9_15 
REMARK   10  A    between atoms: C9_15  and  C10_16 
REMARK   11  A    between atoms: C10_16  and  C11_17 
REMARK   12  A    between atoms: C11_17  and  N2_18 
REMARK   13  A    between atoms: N2_18  and  C12_20 
REMARK   14  A    between atoms: C17_25  and  O3_26 
REMARK   15  A    between atoms: C18_28  and  O4_29 
REMARK   16  A    between atoms: C19_31  and  O5_32 
ROOT
HETATM    1  N1  UNL     1      50.313  50.521  71.709  1.00  0.00    -0.046 N 
ATOM      2  H11 UNL     1      50.117  51.235  72.412  1.00  0.00     0.280 HD
ATOM      3  H12 UNL     1      51.320  50.657  71.611  1.00  0.00     0.280 HD
ENDROOT
BRANCH   1   4
HETATM    4  C3  UNL     1      49.627  50.814  70.466  1.00  0.00     0.353 C 
HETATM    5  O2  UNL     1      50.470  50.621  69.418  1.00  0.00    -0.347 OA
HETATM    6  C2  UNL     1      51.135  51.660  68.876  1.00  0.00     0.179 C 
HETATM    7  C19 UNL     1      50.338  52.919  68.752  1.00  0.00     0.180 C 
HETATM    8  C18 UNL     1      48.894  52.722  69.162  1.00  0.00     0.182 C 
HETATM    9  C17 UNL     1      48.929  52.127  70.556  1.00  0.00     0.205 C 
BRANCH   6  10
HETATM   10  C1  UNL     1      51.472  51.251  67.424  1.00  0.00     0.198 C 
BRANCH  10  11
HETATM   11  O1  UNL     1      50.697  50.148  67.038  1.00  0.00    -0.398 OA
ATOM     12  H1  UNL     1      50.859  49.413  67.617  1.00  0.00     0.209 HD
ENDBRANCH  10  11
ENDBRANCH   6  10
BRANCH   7  13
HETATM   13  O5  UNL     1      50.876  53.905  69.608  1.00  0.00    -0.390 OA
ATOM     14  H5  UNL     1      51.417  54.503  69.105  1.00  0.00     0.210 HD
ENDBRANCH   7  13
BRANCH   8  15
HETATM   15  O4  UNL     1      48.306  51.808  68.296  1.00  0.00    -0.390 OA
ATOM     16  H4  UNL     1      48.089  52.249  67.483  1.00  0.00     0.210 HD
ENDBRANCH   8  15
BRANCH   9  17
HETATM   17  O3  UNL     1      49.527  53.000  71.456  1.00  0.00    -0.388 OA
ATOM     18  H3  UNL     1      49.006  53.142  72.238  1.00  0.00     0.210 HD
ENDBRANCH   9  17
ENDBRANCH   1   4
BRANCH   1  19
HETATM   19  C4  UNL     1      50.014  49.191  72.221  1.00  0.00     0.235 C 
BRANCH  19  20
HETATM   20  C5  UNL     1      51.275  48.413  72.481  1.00  0.00     0.027 C 
BRANCH  20  21
HETATM   21  C6  UNL     1      52.529  49.039  71.984  1.00  0.00     0.002 C 
BRANCH  21  22
HETATM   22  C7  UNL     1      53.635  48.041  71.684  1.00  0.00     0.000 C 
BRANCH  22  23
HETATM   23  C8  UNL     1      53.235  47.008  70.720  1.00  0.00     0.000 C 
BRANCH  23  24
HETATM   24  C9  UNL     1      53.345  47.354  69.297  1.00  0.00     0.005 C 
BRANCH  24  25
HETATM   25  C10 UNL     1      52.097  47.608  68.520  1.00  0.00     0.044 C 
BRANCH  25  26
HETATM   26  C11 UNL     1      50.872  46.994  68.991  1.00  0.00     0.056 C 
BRANCH  26  27
HETATM   27  N2  UNL     1      49.652  47.686  69.055  1.00  0.00    -0.398 N 
ATOM     28  H2  UNL     1      49.523  48.328  69.837  1.00  0.00     0.159 HD
BRANCH  27  29
HETATM   29  C12 UNL     1      48.608  47.575  68.154  1.00  0.00     0.080 C 
HETATM   30  C13 UNL     1      47.973  46.240  67.961  1.00  0.00     0.025 C 
HETATM   31  C14 UNL     1      47.130  46.095  69.240  1.00  0.00     0.002 C 
HETATM   32  C15 UNL     1      47.006  47.447  69.846  1.00  0.00     0.002 C 
HETATM   33  C16 UNL     1      47.414  48.373  68.725  1.00  0.00     0.025 C 
ENDBRANCH  27  29
ENDBRANCH  26  27
ENDBRANCH  25  26
ENDBRANCH  24  25
ENDBRANCH  23  24
ENDBRANCH  22  23
ENDBRANCH  21  22
ENDBRANCH  20  21
ENDBRANCH  19  20
ENDBRANCH   1  19
TORSDOF 16
ENDMDL
