MODEL 1
REMARK VINA RESULT: -6.133168403      0.000      0.000
REMARK  15 active torsions:
REMARK  status: ('A' for Active; 'I' for Inactive)
REMARK    1  A    between atoms: C5_5  and  N1_6 
REMARK    2  A    between atoms: N1_6  and  C6_9 
REMARK    3  A    between atoms: C6_9  and  C7_10 
REMARK    4  A    between atoms: C7_10  and  C8_11 
REMARK    5  A    between atoms: C8_11  and  C9_12 
REMARK    6  A    between atoms: C9_12  and  C10_13 
REMARK    7  A    between atoms: C10_13  and  C11_14 
REMARK    8  A    between atoms: C11_14  and  C12_15 
REMARK    9  A    between atoms: C12_15  and  N2_16 
REMARK   10  A    between atoms: N2_16  and  C13_18 
REMARK   11  A    between atoms: C15_20  and  N3_21 
REMARK   12  A    between atoms: C16_25  and  O1_26 
REMARK   13  A    between atoms: C17_29  and  C18_30 
REMARK   14  A    between atoms: C18_30  and  O3_31 
REMARK   15  A    between atoms: C20_34  and  N4_35 
ROOT
HETATM    1  C10 UNL     1      51.772  47.625  71.284  1.00  0.00     0.005 C 
ENDROOT
BRANCH   1   2
HETATM    2  C9  UNL     1      52.436  46.703  70.355  1.00  0.00     0.000 C 
BRANCH   2   3
HETATM    3  C8  UNL     1      52.262  46.869  68.909  1.00  0.00     0.002 C 
BRANCH   3   4
HETATM    4  C7  UNL     1      51.589  48.043  68.340  1.00  0.00     0.027 C 
BRANCH   4   5
HETATM    5  C6  UNL     1      50.123  47.750  67.982  1.00  0.00     0.232 C 
BRANCH   5   6
HETATM    6  N1  UNL     1      49.233  48.671  68.607  1.00  0.00    -0.071 N 
ATOM      7  H12 UNL     1      49.058  49.492  68.028  1.00  0.00     0.277 HD
ATOM      8  H11 UNL     1      49.662  49.144  69.403  1.00  0.00     0.277 HD
BRANCH   6   9
HETATM    9  C5  UNL     1      47.987  47.971  68.978  1.00  0.00     0.188 C 
HETATM   10  C4  UNL     1      46.784  48.630  68.407  1.00  0.00     0.033 C 
HETATM   11  C3  UNL     1      45.572  48.006  69.065  1.00  0.00     0.008 C 
HETATM   12  C2  UNL     1      45.735  46.523  69.105  1.00  0.00     0.012 C 
HETATM   13  C1  UNL     1      44.429  45.786  68.812  1.00  0.00     0.012 C 
HETATM   14  C20 UNL     1      46.733  46.043  68.105  1.00  0.00     0.189 C 
HETATM   15  C19 UNL     1      48.114  46.570  68.462  1.00  0.00     0.066 C 
BRANCH  14  16
HETATM   16  N4  UNL     1      46.776  44.587  68.067  1.00  0.00    -0.075 N 
ATOM     17  H43 UNL     1      47.135  44.198  68.939  1.00  0.00     0.274 HD
ATOM     18  H42 UNL     1      45.839  44.183  68.089  1.00  0.00     0.274 HD
ATOM     19  H41 UNL     1      47.308  44.259  67.262  1.00  0.00     0.274 HD
ENDBRANCH  14  16
ENDBRANCH   6   9
ENDBRANCH   5   6
ENDBRANCH   4   5
ENDBRANCH   3   4
ENDBRANCH   2   3
ENDBRANCH   1   2
BRANCH   1  20
HETATM   20  C11 UNL     1      52.643  48.551  72.030  1.00  0.00     0.044 C 
BRANCH  20  21
HETATM   21  C12 UNL     1      52.120  49.970  71.895  1.00  0.00     0.056 C 
BRANCH  21  22
HETATM   22  N2  UNL     1      50.899  50.231  71.331  1.00  0.00    -0.395 N 
ATOM     23  H2  UNL     1      50.182  49.525  71.495  1.00  0.00     0.159 HD
BRANCH  22  24
HETATM   24  C13 UNL     1      50.503  51.309  70.575  1.00  0.00     0.114 C 
HETATM   25  C14 UNL     1      49.095  51.809  70.594  1.00  0.00     0.065 C 
HETATM   26  C15 UNL     1      48.916  52.635  69.331  1.00  0.00     0.240 C 
HETATM   27  C16 UNL     1      50.187  53.038  68.685  1.00  0.00     0.287 C 
HETATM   28  O2  UNL     1      51.304  53.177  69.430  1.00  0.00    -0.350 OA
HETATM   29  C17 UNL     1      51.369  52.541  70.639  1.00  0.00     0.170 C 
BRANCH  26  30
HETATM   30  N3  UNL     1      48.174  51.807  68.397  1.00  0.00    -0.070 N 
ATOM     31  H33 UNL     1      48.001  52.264  67.501  1.00  0.00     0.274 HD
ATOM     32  H32 UNL     1      48.716  51.021  68.036  1.00  0.00     0.274 HD
ATOM     33  H31 UNL     1      47.320  51.521  68.875  1.00  0.00     0.274 HD
ENDBRANCH  26  30
BRANCH  27  34
HETATM   34  O1  UNL     1      49.943  54.266  68.035  1.00  0.00    -0.369 OA
ATOM     35  H1  UNL     1      49.012  54.296  67.846  1.00  0.00     0.212 HD
ENDBRANCH  27  34
BRANCH  29  36
HETATM   36  C18 UNL     1      50.926  53.573  71.656  1.00  0.00     0.198 C 
BRANCH  36  37
HETATM   37  O3  UNL     1      51.423  53.089  72.894  1.00  0.00    -0.398 OA
ATOM     38  H3  UNL     1      50.661  53.057  73.461  1.00  0.00     0.209 HD
ENDBRANCH  36  37
ENDBRANCH  29  36
ENDBRANCH  22  24
ENDBRANCH  21  22
ENDBRANCH  20  21
ENDBRANCH   1  20
TORSDOF 15
ENDMDL
MODEL 2
REMARK VINA RESULT: -6.098666232      2.876      5.337
REMARK  15 active torsions:
REMARK  status: ('A' for Active; 'I' for Inactive)
REMARK    1  A    between atoms: C5_5  and  N1_6 
REMARK    2  A    between atoms: N1_6  and  C6_9 
REMARK    3  A    between atoms: C6_9  and  C7_10 
REMARK    4  A    between atoms: C7_10  and  C8_11 
REMARK    5  A    between atoms: C8_11  and  C9_12 
REMARK    6  A    between atoms: C9_12  and  C10_13 
REMARK    7  A    between atoms: C10_13  and  C11_14 
REMARK    8  A    between atoms: C11_14  and  C12_15 
REMARK    9  A    between atoms: C12_15  and  N2_16 
REMARK   10  A    between atoms: N2_16  and  C13_18 
REMARK   11  A    between atoms: C15_20  and  N3_21 
REMARK   12  A    between atoms: C16_25  and  O1_26 
REMARK   13  A    between atoms: C17_29  and  C18_30 
REMARK   14  A    between atoms: C18_30  and  O3_31 
REMARK   15  A    between atoms: C20_34  and  N4_35 
ROOT
HETATM    1  C10 UNL     1      51.154  51.643  68.758  1.00  0.00     0.005 C 
ENDROOT
BRANCH   1   2
HETATM    2  C9  UNL     1      50.219  52.759  68.576  1.00  0.00     0.000 C 
BRANCH   2   3
HETATM    3  C8  UNL     1      48.945  52.771  69.300  1.00  0.00     0.002 C 
BRANCH   3   4
HETATM    4  C7  UNL     1      48.376  51.552  69.889  1.00  0.00     0.027 C 
BRANCH   4   5
HETATM    5  C6  UNL     1      47.282  50.939  68.999  1.00  0.00     0.232 C 
BRANCH   5   6
HETATM    6  N1  UNL     1      46.583  49.894  69.669  1.00  0.00    -0.071 N 
ATOM      7  H12 UNL     1      45.585  50.089  69.756  1.00  0.00     0.277 HD
ATOM      8  H11 UNL     1      46.809  49.851  70.663  1.00  0.00     0.277 HD
BRANCH   6   9
HETATM    9  C5  UNL     1      46.844  48.613  68.981  1.00  0.00     0.188 C 
HETATM   10  C4  UNL     1      47.937  47.843  69.628  1.00  0.00     0.033 C 
HETATM   11  C3  UNL     1      48.301  46.705  68.697  1.00  0.00     0.008 C 
HETATM   12  C2  UNL     1      47.054  46.062  68.187  1.00  0.00     0.012 C 
HETATM   13  C1  UNL     1      47.177  44.541  68.106  1.00  0.00     0.012 C 
HETATM   14  C20 UNL     1      45.878  46.353  69.058  1.00  0.00     0.189 C 
HETATM   15  C19 UNL     1      45.561  47.839  69.018  1.00  0.00     0.066 C 
BRANCH  14  16
HETATM   16  N4  UNL     1      44.706  45.606  68.621  1.00  0.00    -0.075 N 
ATOM     17  H43 UNL     1      43.879  46.200  68.568  1.00  0.00     0.274 HD
ATOM     18  H42 UNL     1      44.773  45.344  67.637  1.00  0.00     0.274 HD
ATOM     19  H41 UNL     1      44.548  44.793  69.216  1.00  0.00     0.274 HD
ENDBRANCH  14  16
ENDBRANCH   6   9
ENDBRANCH   5   6
ENDBRANCH   4   5
ENDBRANCH   3   4
ENDBRANCH   2   3
ENDBRANCH   1   2
BRANCH   1  20
HETATM   20  C11 UNL     1      51.369  50.766  67.593  1.00  0.00     0.044 C 
BRANCH  20  21
HETATM   21  C12 UNL     1      50.696  49.425  67.826  1.00  0.00     0.056 C 
BRANCH  21  22
HETATM   22  N2  UNL     1      51.426  48.297  68.096  1.00  0.00    -0.395 N 
ATOM     23  H2  UNL     1      51.437  47.596  67.356  1.00  0.00     0.159 HD
BRANCH  22  24
HETATM   24  C13 UNL     1      52.145  47.976  69.221  1.00  0.00     0.114 C 
HETATM   25  C14 UNL     1      51.478  47.700  70.530  1.00  0.00     0.065 C 
HETATM   26  C15 UNL     1      52.543  47.874  71.600  1.00  0.00     0.240 C 
HETATM   27  C16 UNL     1      53.932  47.861  71.082  1.00  0.00     0.287 C 
HETATM   28  O2  UNL     1      54.218  47.188  69.948  1.00  0.00    -0.350 OA
HETATM   29  C17 UNL     1      53.202  46.911  69.076  1.00  0.00     0.170 C 
BRANCH  26  30
HETATM   30  N3  UNL     1      52.301  49.166  72.218  1.00  0.00    -0.070 N 
ATOM     31  H33 UNL     1      51.314  49.424  72.242  1.00  0.00     0.274 HD
ATOM     32  H32 UNL     1      52.457  49.167  73.226  1.00  0.00     0.274 HD
ATOM     33  H31 UNL     1      52.882  49.840  71.720  1.00  0.00     0.274 HD
ENDBRANCH  26  30
BRANCH  27  34
HETATM   34  O1  UNL     1      54.746  47.345  72.111  1.00  0.00    -0.369 OA
ATOM     35  H1  UNL     1      55.014  46.475  71.840  1.00  0.00     0.212 HD
ENDBRANCH  27  34
BRANCH  29  36
HETATM   36  C18 UNL     1      52.743  45.512  69.431  1.00  0.00     0.198 C 
BRANCH  36  37
HETATM   37  O3  UNL     1      53.795  44.668  68.991  1.00  0.00    -0.398 OA
ATOM     38  H3  UNL     1      53.928  44.059  69.709  1.00  0.00     0.209 HD
ENDBRANCH  36  37
ENDBRANCH  29  36
ENDBRANCH  22  24
ENDBRANCH  21  22
ENDBRANCH  20  21
ENDBRANCH   1  20
TORSDOF 15
ENDMDL
MODEL 3
REMARK VINA RESULT: -6.075326037      3.015      6.044
REMARK  15 active torsions:
REMARK  status: ('A' for Active; 'I' for Inactive)
REMARK    1  A    between atoms: C5_5  and  N1_6 
REMARK    2  A    between atoms: N1_6  and  C6_9 
REMARK    3  A    between atoms: C6_9  and  C7_10 
REMARK    4  A    between atoms: C7_10  and  C8_11 
REMARK    5  A    between atoms: C8_11  and  C9_12 
REMARK    6  A    between atoms: C9_12  and  C10_13 
REMARK    7  A    between atoms: C10_13  and  C11_14 
REMARK    8  A    between atoms: C11_14  and  C12_15 
REMARK    9  A    between atoms: C12_15  and  N2_16 
REMARK   10  A    between atoms: N2_16  and  C13_18 
REMARK   11  A    between atoms: C15_20  and  N3_21 
REMARK   12  A    between atoms: C16_25  and  O1_26 
REMARK   13  A    between atoms: C17_29  and  C18_30 
REMARK   14  A    between atoms: C18_30  and  O3_31 
REMARK   15  A    between atoms: C20_34  and  N4_35 
ROOT
HETATM    1  C10 UNL     1      47.988  47.027  67.813  1.00  0.00     0.005 C 
ENDROOT
BRANCH   1   2
HETATM    2  C9  UNL     1      47.137  45.838  67.939  1.00  0.00     0.000 C 
BRANCH   2   3
HETATM    3  C8  UNL     1      46.118  45.775  68.991  1.00  0.00     0.002 C 
BRANCH   3   4
HETATM    4  C7  UNL     1      44.889  46.577  68.928  1.00  0.00     0.027 C 
BRANCH   4   5
HETATM    5  C6  UNL     1      45.159  48.066  69.196  1.00  0.00     0.232 C 
BRANCH   5   6
HETATM    6  N1  UNL     1      45.256  48.342  70.591  1.00  0.00    -0.071 N 
ATOM      7  H12 UNL     1      45.362  47.493  71.147  1.00  0.00     0.277 HD
ATOM      8  H11 UNL     1      44.371  48.663  70.984  1.00  0.00     0.277 HD
BRANCH   6   9
HETATM    9  C5  UNL     1      46.352  49.305  70.824  1.00  0.00     0.188 C 
HETATM   10  C4  UNL     1      47.611  48.630  71.232  1.00  0.00     0.033 C 
HETATM   11  C3  UNL     1      48.567  49.705  71.704  1.00  0.00     0.008 C 
HETATM   12  C2  UNL     1      48.540  50.850  70.748  1.00  0.00     0.012 C 
HETATM   13  C1  UNL     1      49.929  51.441  70.510  1.00  0.00     0.012 C 
HETATM   14  C20 UNL     1      48.007  50.452  69.412  1.00  0.00     0.189 C 
HETATM   15  C19 UNL     1      46.547  50.050  69.539  1.00  0.00     0.066 C 
BRANCH  14  16
HETATM   16  N4  UNL     1      48.118  51.546  68.457  1.00  0.00    -0.075 N 
ATOM     17  H43 UNL     1      48.278  52.439  68.925  1.00  0.00     0.274 HD
ATOM     18  H42 UNL     1      48.985  51.493  67.923  1.00  0.00     0.274 HD
ATOM     19  H41 UNL     1      47.302  51.583  67.847  1.00  0.00     0.274 HD
ENDBRANCH  14  16
ENDBRANCH   6   9
ENDBRANCH   5   6
ENDBRANCH   4   5
ENDBRANCH   3   4
ENDBRANCH   2   3
ENDBRANCH   1   2
BRANCH   1  20
HETATM   20  C11 UNL     1      49.239  47.027  68.591  1.00  0.00     0.044 C 
BRANCH  20  21
HETATM   21  C12 UNL     1      50.253  47.949  67.936  1.00  0.00     0.056 C 
BRANCH  21  22
HETATM   22  N2  UNL     1      51.176  48.639  68.679  1.00  0.00    -0.395 N 
ATOM     23  H2  UNL     1      51.151  49.653  68.575  1.00  0.00     0.159 HD
BRANCH  22  24
HETATM   24  C13 UNL     1      52.129  48.158  69.543  1.00  0.00     0.114 C 
HETATM   25  C14 UNL     1      51.798  47.781  70.950  1.00  0.00     0.065 C 
HETATM   26  C15 UNL     1      53.112  47.778  71.715  1.00  0.00     0.240 C 
HETATM   27  C16 UNL     1      54.316  47.741  70.852  1.00  0.00     0.287 C 
HETATM   28  O2  UNL     1      54.246  47.179  69.627  1.00  0.00    -0.350 OA
HETATM   29  C17 UNL     1      53.021  47.056  69.031  1.00  0.00     0.170 C 
BRANCH  26  30
HETATM   30  N3  UNL     1      53.144  49.008  72.487  1.00  0.00    -0.070 N 
ATOM     31  H33 UNL     1      53.487  49.809  71.957  1.00  0.00     0.274 HD
ATOM     32  H32 UNL     1      52.216  49.379  72.693  1.00  0.00     0.274 HD
ATOM     33  H31 UNL     1      53.695  48.812  73.323  1.00  0.00     0.274 HD
ENDBRANCH  26  30
BRANCH  27  34
HETATM   34  O1  UNL     1      55.320  47.072  71.581  1.00  0.00    -0.369 OA
ATOM     35  H1  UNL     1      54.879  46.558  72.247  1.00  0.00     0.212 HD
ENDBRANCH  27  34
BRANCH  29  36
HETATM   36  C18 UNL     1      52.553  45.656  69.368  1.00  0.00     0.198 C 
BRANCH  36  37
HETATM   37  O3  UNL     1      53.656  44.823  69.048  1.00  0.00    -0.398 OA
ATOM     38  H3  UNL     1      54.272  44.959  69.758  1.00  0.00     0.209 HD
ENDBRANCH  36  37
ENDBRANCH  29  36
ENDBRANCH  22  24
ENDBRANCH  21  22
ENDBRANCH  20  21
ENDBRANCH   1  20
TORSDOF 15
ENDMDL
MODEL 4
REMARK VINA RESULT: -6.047679426      3.118      6.269
REMARK  15 active torsions:
REMARK  status: ('A' for Active; 'I' for Inactive)
REMARK    1  A    between atoms: C5_5  and  N1_6 
REMARK    2  A    between atoms: N1_6  and  C6_9 
REMARK    3  A    between atoms: C6_9  and  C7_10 
REMARK    4  A    between atoms: C7_10  and  C8_11 
REMARK    5  A    between atoms: C8_11  and  C9_12 
REMARK    6  A    between atoms: C9_12  and  C10_13 
REMARK    7  A    between atoms: C10_13  and  C11_14 
REMARK    8  A    between atoms: C11_14  and  C12_15 
REMARK    9  A    between atoms: C12_15  and  N2_16 
REMARK   10  A    between atoms: N2_16  and  C13_18 
REMARK   11  A    between atoms: C15_20  and  N3_21 
REMARK   12  A    between atoms: C16_25  and  O1_26 
REMARK   13  A    between atoms: C17_29  and  C18_30 
REMARK   14  A    between atoms: C18_30  and  O3_31 
REMARK   15  A    between atoms: C20_34  and  N4_35 
ROOT
HETATM    1  C10 UNL     1      46.557  45.419  68.725  1.00  0.00     0.005 C 
ENDROOT
BRANCH   1   2
HETATM    2  C9  UNL     1      47.496  46.153  67.869  1.00  0.00     0.000 C 
BRANCH   2   3
HETATM    3  C8  UNL     1      48.344  47.201  68.443  1.00  0.00     0.002 C 
BRANCH   3   4
HETATM    4  C7  UNL     1      48.286  47.551  69.868  1.00  0.00     0.027 C 
BRANCH   4   5
HETATM    5  C6  UNL     1      49.264  48.682  70.224  1.00  0.00     0.232 C 
BRANCH   5   6
HETATM    6  N1  UNL     1      50.223  48.894  69.191  1.00  0.00    -0.071 N 
ATOM      7  H12 UNL     1      50.138  49.818  68.768  1.00  0.00     0.277 HD
ATOM      8  H11 UNL     1      50.027  48.336  68.360  1.00  0.00     0.277 HD
BRANCH   6   9
HETATM    9  C5  UNL     1      51.578  48.645  69.725  1.00  0.00     0.188 C 
HETATM   10  C4  UNL     1      51.613  48.701  71.209  1.00  0.00     0.033 C 
HETATM   11  C3  UNL     1      53.068  48.709  71.626  1.00  0.00     0.008 C 
HETATM   12  C2  UNL     1      53.818  47.685  70.840  1.00  0.00     0.012 C 
HETATM   13  C1  UNL     1      54.850  46.944  71.688  1.00  0.00     0.012 C 
HETATM   14  C20 UNL     1      52.911  46.650  70.263  1.00  0.00     0.189 C 
HETATM   15  C19 UNL     1      51.986  47.288  69.239  1.00  0.00     0.066 C 
BRANCH  14  16
HETATM   16  N4  UNL     1      53.673  45.589  69.619  1.00  0.00    -0.075 N 
ATOM     17  H43 UNL     1      54.640  45.868  69.452  1.00  0.00     0.274 HD
ATOM     18  H42 UNL     1      53.843  44.809  70.254  1.00  0.00     0.274 HD
ATOM     19  H41 UNL     1      53.217  45.282  68.760  1.00  0.00     0.274 HD
ENDBRANCH  14  16
ENDBRANCH   6   9
ENDBRANCH   5   6
ENDBRANCH   4   5
ENDBRANCH   3   4
ENDBRANCH   2   3
ENDBRANCH   1   2
BRANCH   1  20
HETATM   20  C11 UNL     1      45.128  45.743  68.566  1.00  0.00     0.044 C 
BRANCH  20  21
HETATM   21  C12 UNL     1      44.790  46.987  69.368  1.00  0.00     0.056 C 
BRANCH  21  22
HETATM   22  N2  UNL     1      44.818  48.234  68.798  1.00  0.00    -0.395 N 
ATOM     23  H2  UNL     1      44.448  48.289  67.849  1.00  0.00     0.159 HD
BRANCH  22  24
HETATM   24  C13 UNL     1      45.274  49.419  69.322  1.00  0.00     0.114 C 
HETATM   25  C14 UNL     1      45.207  50.698  68.553  1.00  0.00     0.065 C 
HETATM   26  C15 UNL     1      46.206  51.642  69.202  1.00  0.00     0.240 C 
HETATM   27  C16 UNL     1      46.637  51.230  70.558  1.00  0.00     0.287 C 
HETATM   28  O2  UNL     1      45.815  50.485  71.326  1.00  0.00    -0.350 OA
HETATM   29  C17 UNL     1      44.824  49.765  70.719  1.00  0.00     0.170 C 
BRANCH  26  30
HETATM   30  N3  UNL     1      47.374  51.664  68.340  1.00  0.00    -0.070 N 
ATOM     31  H33 UNL     1      47.155  51.499  67.357  1.00  0.00     0.274 HD
ATOM     32  H32 UNL     1      47.774  52.596  68.226  1.00  0.00     0.274 HD
ATOM     33  H31 UNL     1      48.033  50.987  68.725  1.00  0.00     0.274 HD
ENDBRANCH  26  30
BRANCH  27  34
HETATM   34  O1  UNL     1      46.942  52.412  71.266  1.00  0.00    -0.369 OA
ATOM     35  H1  UNL     1      46.367  52.435  72.022  1.00  0.00     0.212 HD
ENDBRANCH  27  34
BRANCH  29  36
HETATM   36  C18 UNL     1      43.593  50.646  70.786  1.00  0.00     0.198 C 
BRANCH  36  37
HETATM   37  O3  UNL     1      42.511  49.769  70.514  1.00  0.00    -0.398 OA
ATOM     38  H3  UNL     1      42.322  49.901  69.592  1.00  0.00     0.209 HD
ENDBRANCH  36  37
ENDBRANCH  29  36
ENDBRANCH  22  24
ENDBRANCH  21  22
ENDBRANCH  20  21
ENDBRANCH   1  20
TORSDOF 15
ENDMDL
MODEL 5
REMARK VINA RESULT: -6.017637804      1.720      5.143
REMARK  15 active torsions:
REMARK  status: ('A' for Active; 'I' for Inactive)
REMARK    1  A    between atoms: C5_5  and  N1_6 
REMARK    2  A    between atoms: N1_6  and  C6_9 
REMARK    3  A    between atoms: C6_9  and  C7_10 
REMARK    4  A    between atoms: C7_10  and  C8_11 
REMARK    5  A    between atoms: C8_11  and  C9_12 
REMARK    6  A    between atoms: C9_12  and  C10_13 
REMARK    7  A    between atoms: C10_13  and  C11_14 
REMARK    8  A    between atoms: C11_14  and  C12_15 
REMARK    9  A    between atoms: C12_15  and  N2_16 
REMARK   10  A    between atoms: N2_16  and  C13_18 
REMARK   11  A    between atoms: C15_20  and  N3_21 
REMARK   12  A    between atoms: C16_25  and  O1_26 
REMARK   13  A    between atoms: C17_29  and  C18_30 
REMARK   14  A    between atoms: C18_30  and  O3_31 
REMARK   15  A    between atoms: C20_34  and  N4_35 
ROOT
HETATM    1  C10 UNL     1      45.580  48.736  69.460  1.00  0.00     0.005 C 
ENDROOT
BRANCH   1   2
HETATM    2  C9  UNL     1      45.441  47.366  68.951  1.00  0.00     0.000 C 
BRANCH   2   3
HETATM    3  C8  UNL     1      46.602  46.472  68.933  1.00  0.00     0.002 C 
BRANCH   3   4
HETATM    4  C7  UNL     1      47.728  46.681  68.014  1.00  0.00     0.027 C 
BRANCH   4   5
HETATM    5  C6  UNL     1      48.847  47.517  68.655  1.00  0.00     0.232 C 
BRANCH   5   6
HETATM    6  N1  UNL     1      50.043  47.477  67.881  1.00  0.00    -0.071 N 
ATOM      7  H12 UNL     1      50.180  48.329  67.336  1.00  0.00     0.277 HD
ATOM      8  H11 UNL     1      49.981  46.817  67.106  1.00  0.00     0.277 HD
BRANCH   6   9
HETATM    9  C5  UNL     1      51.190  47.192  68.768  1.00  0.00     0.188 C 
HETATM   10  C4  UNL     1      52.406  47.948  68.372  1.00  0.00     0.033 C 
HETATM   11  C3  UNL     1      53.567  47.380  69.159  1.00  0.00     0.008 C 
HETATM   12  C2  UNL     1      53.160  47.197  70.584  1.00  0.00     0.012 C 
HETATM   13  C1  UNL     1      54.275  47.571  71.559  1.00  0.00     0.012 C 
HETATM   14  C20 UNL     1      51.977  48.033  70.940  1.00  0.00     0.189 C 
HETATM   15  C19 UNL     1      50.762  47.570  70.153  1.00  0.00     0.066 C 
BRANCH  14  16
HETATM   16  N4  UNL     1      51.684  47.944  72.364  1.00  0.00    -0.075 N 
ATOM     17  H43 UNL     1      52.123  47.126  72.788  1.00  0.00     0.274 HD
ATOM     18  H42 UNL     1      52.165  48.671  72.894  1.00  0.00     0.274 HD
ATOM     19  H41 UNL     1      50.678  47.960  72.531  1.00  0.00     0.274 HD
ENDBRANCH  14  16
ENDBRANCH   6   9
ENDBRANCH   5   6
ENDBRANCH   4   5
ENDBRANCH   3   4
ENDBRANCH   2   3
ENDBRANCH   1   2
BRANCH   1  20
HETATM   20  C11 UNL     1      45.175  49.822  68.549  1.00  0.00     0.044 C 
BRANCH  20  21
HETATM   21  C12 UNL     1      46.202  50.939  68.591  1.00  0.00     0.056 C 
BRANCH  21  22
HETATM   22  N2  UNL     1      47.547  50.673  68.598  1.00  0.00    -0.395 N 
ATOM     23  H2  UNL     1      47.812  49.753  68.248  1.00  0.00     0.159 HD
BRANCH  22  24
HETATM   24  C13 UNL     1      48.588  51.470  69.008  1.00  0.00     0.114 C 
HETATM   25  C14 UNL     1      48.369  52.871  69.478  1.00  0.00     0.065 C 
HETATM   26  C15 UNL     1      49.712  53.575  69.371  1.00  0.00     0.240 C 
HETATM   27  C16 UNL     1      50.869  52.658  69.241  1.00  0.00     0.287 C 
HETATM   28  O2  UNL     1      50.798  51.412  69.755  1.00  0.00    -0.350 OA
HETATM   29  C17 UNL     1      49.566  50.867  69.985  1.00  0.00     0.170 C 
BRANCH  26  30
HETATM   30  N3  UNL     1      49.652  54.403  68.179  1.00  0.00    -0.070 N 
ATOM     31  H33 UNL     1      50.488  54.971  68.039  1.00  0.00     0.274 HD
ATOM     32  H32 UNL     1      49.715  53.867  67.313  1.00  0.00     0.274 HD
ATOM     33  H31 UNL     1      48.797  54.954  68.251  1.00  0.00     0.274 HD
ENDBRANCH  26  30
BRANCH  27  34
HETATM   34  O1  UNL     1      51.974  53.309  69.829  1.00  0.00    -0.369 OA
ATOM     35  H1  UNL     1      52.702  53.211  69.226  1.00  0.00     0.212 HD
ENDBRANCH  27  34
BRANCH  29  36
HETATM   36  C18 UNL     1      49.265  51.158  71.441  1.00  0.00     0.198 C 
BRANCH  36  37
HETATM   37  O3  UNL     1      50.468  50.842  72.124  1.00  0.00    -0.398 OA
ATOM     38  H3  UNL     1      50.413  51.324  72.941  1.00  0.00     0.209 HD
ENDBRANCH  36  37
ENDBRANCH  29  36
ENDBRANCH  22  24
ENDBRANCH  21  22
ENDBRANCH  20  21
ENDBRANCH   1  20
TORSDOF 15
ENDMDL
