MODEL 1
REMARK VINA RESULT: -6.135993498      0.000      0.000
REMARK  16 active torsions:
REMARK  status: ('A' for Active; 'I' for Inactive)
REMARK    1  A    between atoms: O1_1  and  C1_3 
REMARK    2  A    between atoms: C2_5  and  C3_6 
REMARK    3  A    between atoms: C3_6  and  C4_7 
REMARK    4  A    between atoms: C4_7  and  C5_8 
REMARK    5  A    between atoms: C5_8  and  C6_9 
REMARK    6  A    between atoms: C6_9  and  C7_10 
REMARK    7  A    between atoms: C7_10  and  C8_11 
REMARK    8  A    between atoms: C8_11  and  C9_12 
REMARK    9  A    between atoms: C9_12  and  C10_13 
REMARK   10  A    between atoms: C10_13  and  C11_14 
REMARK   11  A    between atoms: C11_14  and  C12_15 
REMARK   12  A    between atoms: C12_15  and  C13_16 
REMARK   13  A    between atoms: C16_22  and  O3_23 
REMARK   14  A    between atoms: C17_25  and  O4_26 
REMARK   15  A    between atoms: C18_28  and  O5_29 
REMARK   16  A    between atoms: C19_31  and  O6_32 
ROOT
HETATM    1  C1  UNL     1      47.531  45.711  68.472  1.00  0.00     0.288 C 
HETATM    2  O2  UNL     1      48.360  46.609  67.806  1.00  0.00    -0.351 OA
HETATM    3  C2  UNL     1      49.233  47.256  68.671  1.00  0.00     0.156 C 
HETATM    4  C16 UNL     1      48.452  48.250  69.465  1.00  0.00     0.178 C 
HETATM    5  C17 UNL     1      47.070  48.496  68.865  1.00  0.00     0.180 C 
HETATM    6  C18 UNL     1      46.069  47.472  69.302  1.00  0.00     0.183 C 
HETATM    7  C19 UNL     1      46.115  46.272  68.365  1.00  0.00     0.204 C 
ENDROOT
BRANCH   3   8
HETATM    8  C3  UNL     1      50.320  47.923  67.816  1.00  0.00     0.035 C 
BRANCH   8   9
HETATM    9  C4  UNL     1      51.618  47.721  68.559  1.00  0.00     0.002 C 
BRANCH   9  10
HETATM   10  C5  UNL     1      51.750  46.372  69.172  1.00  0.00     0.000 C 
BRANCH  10  11
HETATM   11  C6  UNL     1      52.943  46.215  70.062  1.00  0.00     0.000 C 
BRANCH  11  12
HETATM   12  C7  UNL     1      53.640  47.545  70.283  1.00  0.00     0.000 C 
BRANCH  12  13
HETATM   13  C8  UNL     1      53.680  47.944  71.714  1.00  0.00     0.000 C 
BRANCH  13  14
HETATM   14  C9  UNL     1      52.324  48.412  72.161  1.00  0.00     0.000 C 
BRANCH  14  15
HETATM   15  C10 UNL     1      52.141  49.923  72.033  1.00  0.00     0.000 C 
BRANCH  15  16
HETATM   16  C11 UNL     1      51.154  50.267  70.974  1.00  0.00     0.002 C 
BRANCH  16  17
HETATM   17  C12 UNL     1      51.543  51.476  70.206  1.00  0.00     0.033 C 
BRANCH  17  18
HETATM   18  C13 UNL     1      50.996  51.513  68.822  1.00  0.00     0.187 C 
HETATM   19  C14 UNL     1      49.483  51.783  68.814  1.00  0.00     0.060 C 
HETATM   20  C15 UNL     1      49.842  53.230  68.564  1.00  0.00     0.235 C 
HETATM   21  N1  UNL     1      51.169  52.818  68.189  1.00  0.00    -0.071 N 
ATOM     22  H12 UNL     1      51.963  53.399  68.456  1.00  0.00     0.277 HD
ATOM     23  H11 UNL     1      51.444  52.863  67.208  1.00  0.00     0.277 HD
ENDBRANCH  17  18
ENDBRANCH  16  17
ENDBRANCH  15  16
ENDBRANCH  14  15
ENDBRANCH  13  14
ENDBRANCH  12  13
ENDBRANCH  11  12
ENDBRANCH  10  11
ENDBRANCH   9  10
ENDBRANCH   8   9
ENDBRANCH   3   8
BRANCH   4  24
HETATM   24  O3  UNL     1      48.222  47.770  70.765  1.00  0.00    -0.390 OA
ATOM     25  H3  UNL     1      47.406  48.116  71.109  1.00  0.00     0.210 HD
ENDBRANCH   4  24
BRANCH   1  26
HETATM   26  O1  UNL     1      47.595  44.451  67.870  1.00  0.00    -0.369 OA
ATOM     27  H1  UNL     1      47.168  43.802  68.417  1.00  0.00     0.212 HD
ENDBRANCH   1  26
BRANCH   5  28
HETATM   28  O4  UNL     1      46.644  49.735  69.374  1.00  0.00    -0.390 OA
ATOM     29  H4  UNL     1      46.260  49.550  70.223  1.00  0.00     0.210 HD
ENDBRANCH   5  28
BRANCH   7  30
HETATM   30  O6  UNL     1      45.179  45.318  68.725  1.00  0.00    -0.388 OA
ATOM     31  H6  UNL     1      44.312  45.702  68.787  1.00  0.00     0.210 HD
ENDBRANCH   7  30
BRANCH   6  32
HETATM   32  O5  UNL     1      44.796  48.024  69.257  1.00  0.00    -0.390 OA
ATOM     33  H5  UNL     1      44.254  47.621  69.924  1.00  0.00     0.210 HD
ENDBRANCH   6  32
TORSDOF 16
ENDMDL
MODEL 2
REMARK VINA RESULT: -5.972669060      0.751      1.058
REMARK  16 active torsions:
REMARK  status: ('A' for Active; 'I' for Inactive)
REMARK    1  A    between atoms: O1_1  and  C1_3 
REMARK    2  A    between atoms: C2_5  and  C3_6 
REMARK    3  A    between atoms: C3_6  and  C4_7 
REMARK    4  A    between atoms: C4_7  and  C5_8 
REMARK    5  A    between atoms: C5_8  and  C6_9 
REMARK    6  A    between atoms: C6_9  and  C7_10 
REMARK    7  A    between atoms: C7_10  and  C8_11 
REMARK    8  A    between atoms: C8_11  and  C9_12 
REMARK    9  A    between atoms: C9_12  and  C10_13 
REMARK   10  A    between atoms: C10_13  and  C11_14 
REMARK   11  A    between atoms: C11_14  and  C12_15 
REMARK   12  A    between atoms: C12_15  and  C13_16 
REMARK   13  A    between atoms: C16_22  and  O3_23 
REMARK   14  A    between atoms: C17_25  and  O4_26 
REMARK   15  A    between atoms: C18_28  and  O5_29 
REMARK   16  A    between atoms: C19_31  and  O6_32 
ROOT
HETATM    1  C1  UNL     1      47.410  45.646  68.489  1.00  0.00     0.288 C 
HETATM    2  O2  UNL     1      48.276  46.492  67.801  1.00  0.00    -0.351 OA
HETATM    3  C2  UNL     1      49.179  47.120  68.651  1.00  0.00     0.156 C 
HETATM    4  C16 UNL     1      48.443  48.166  69.422  1.00  0.00     0.178 C 
HETATM    5  C17 UNL     1      47.071  48.457  68.817  1.00  0.00     0.180 C 
HETATM    6  C18 UNL     1      46.028  47.488  69.280  1.00  0.00     0.183 C 
HETATM    7  C19 UNL     1      46.021  46.266  68.371  1.00  0.00     0.204 C 
ENDROOT
BRANCH   3   8
HETATM    8  C3  UNL     1      50.291  47.720  67.779  1.00  0.00     0.035 C 
BRANCH   8   9
HETATM    9  C4  UNL     1      51.557  47.627  68.597  1.00  0.00     0.002 C 
BRANCH   9  10
HETATM   10  C5  UNL     1      51.751  46.304  69.247  1.00  0.00     0.000 C 
BRANCH  10  11
HETATM   11  C6  UNL     1      53.095  46.119  69.877  1.00  0.00     0.000 C 
BRANCH  11  12
HETATM   12  C7  UNL     1      53.725  47.455  70.226  1.00  0.00     0.000 C 
BRANCH  12  13
HETATM   13  C8  UNL     1      54.343  47.466  71.577  1.00  0.00     0.000 C 
BRANCH  13  14
HETATM   14  C9  UNL     1      53.824  48.628  72.377  1.00  0.00     0.000 C 
BRANCH  14  15
HETATM   15  C10 UNL     1      52.304  48.613  72.533  1.00  0.00     0.000 C 
BRANCH  15  16
HETATM   16  C11 UNL     1      51.719  49.966  72.328  1.00  0.00     0.002 C 
BRANCH  16  17
HETATM   17  C12 UNL     1      50.899  50.048  71.094  1.00  0.00     0.033 C 
BRANCH  17  18
HETATM   18  C13 UNL     1      50.643  51.440  70.632  1.00  0.00     0.187 C 
HETATM   19  C14 UNL     1      51.263  51.706  69.251  1.00  0.00     0.060 C 
HETATM   20  C15 UNL     1      49.891  51.413  68.688  1.00  0.00     0.235 C 
HETATM   21  N1  UNL     1      49.333  51.587  70.003  1.00  0.00    -0.071 N 
ATOM     22  H12 UNL     1      48.567  50.983  70.302  1.00  0.00     0.277 HD
ATOM     23  H11 UNL     1      48.777  52.419  70.201  1.00  0.00     0.277 HD
ENDBRANCH  17  18
ENDBRANCH  16  17
ENDBRANCH  15  16
ENDBRANCH  14  15
ENDBRANCH  13  14
ENDBRANCH  12  13
ENDBRANCH  11  12
ENDBRANCH  10  11
ENDBRANCH   9  10
ENDBRANCH   8   9
ENDBRANCH   3   8
BRANCH   4  24
HETATM   24  O3  UNL     1      48.195  47.726  70.733  1.00  0.00    -0.390 OA
ATOM     25  H3  UNL     1      47.288  47.461  70.830  1.00  0.00     0.210 HD
ENDBRANCH   4  24
BRANCH   1  26
HETATM   26  O1  UNL     1      47.419  44.371  67.917  1.00  0.00    -0.369 OA
ATOM     27  H1  UNL     1      47.194  43.716  68.567  1.00  0.00     0.212 HD
ENDBRANCH   1  26
BRANCH   5  28
HETATM   28  O4  UNL     1      46.701  49.725  69.298  1.00  0.00    -0.390 OA
ATOM     29  H4  UNL     1      45.947  49.581  69.858  1.00  0.00     0.210 HD
ENDBRANCH   5  28
BRANCH   7  30
HETATM   30  O6  UNL     1      45.044  45.362  68.754  1.00  0.00    -0.388 OA
ATOM     31  H6  UNL     1      44.315  45.374  68.146  1.00  0.00     0.210 HD
ENDBRANCH   7  30
BRANCH   6  32
HETATM   32  O5  UNL     1      44.780  48.093  69.223  1.00  0.00    -0.390 OA
ATOM     33  H5  UNL     1      44.782  48.870  69.769  1.00  0.00     0.210 HD
ENDBRANCH   6  32
TORSDOF 16
ENDMDL
MODEL 3
REMARK VINA RESULT: -5.938991680      2.251      3.193
REMARK  16 active torsions:
REMARK  status: ('A' for Active; 'I' for Inactive)
REMARK    1  A    between atoms: O1_1  and  C1_3 
REMARK    2  A    between atoms: C2_5  and  C3_6 
REMARK    3  A    between atoms: C3_6  and  C4_7 
REMARK    4  A    between atoms: C4_7  and  C5_8 
REMARK    5  A    between atoms: C5_8  and  C6_9 
REMARK    6  A    between atoms: C6_9  and  C7_10 
REMARK    7  A    between atoms: C7_10  and  C8_11 
REMARK    8  A    between atoms: C8_11  and  C9_12 
REMARK    9  A    between atoms: C9_12  and  C10_13 
REMARK   10  A    between atoms: C10_13  and  C11_14 
REMARK   11  A    between atoms: C11_14  and  C12_15 
REMARK   12  A    between atoms: C12_15  and  C13_16 
REMARK   13  A    between atoms: C16_22  and  O3_23 
REMARK   14  A    between atoms: C17_25  and  O4_26 
REMARK   15  A    between atoms: C18_28  and  O5_29 
REMARK   16  A    between atoms: C19_31  and  O6_32 
ROOT
HETATM    1  C1  UNL     1      47.427  45.617  68.475  1.00  0.00     0.288 C 
HETATM    2  O2  UNL     1      48.316  46.466  67.823  1.00  0.00    -0.351 OA
HETATM    3  C2  UNL     1      49.184  47.095  68.708  1.00  0.00     0.156 C 
HETATM    4  C16 UNL     1      48.416  48.136  69.454  1.00  0.00     0.178 C 
HETATM    5  C17 UNL     1      47.068  48.425  68.798  1.00  0.00     0.180 C 
HETATM    6  C18 UNL     1      46.010  47.452  69.218  1.00  0.00     0.183 C 
HETATM    7  C19 UNL     1      46.041  46.233  68.305  1.00  0.00     0.204 C 
ENDROOT
BRANCH   3   8
HETATM    8  C3  UNL     1      50.327  47.700  67.880  1.00  0.00     0.035 C 
BRANCH   8   9
HETATM    9  C4  UNL     1      51.560  47.615  68.748  1.00  0.00     0.002 C 
BRANCH   9  10
HETATM   10  C5  UNL     1      51.855  46.240  69.232  1.00  0.00     0.000 C 
BRANCH  10  11
HETATM   11  C6  UNL     1      53.099  46.131  70.055  1.00  0.00     0.000 C 
BRANCH  11  12
HETATM   12  C7  UNL     1      53.761  47.486  70.228  1.00  0.00     0.000 C 
BRANCH  12  13
HETATM   13  C8  UNL     1      54.374  47.662  71.570  1.00  0.00     0.000 C 
BRANCH  13  14
HETATM   14  C9  UNL     1      53.370  48.236  72.529  1.00  0.00     0.000 C 
BRANCH  14  15
HETATM   15  C10 UNL     1      52.546  49.371  71.922  1.00  0.00     0.000 C 
BRANCH  15  16
HETATM   16  C11 UNL     1      51.085  49.131  72.078  1.00  0.00     0.002 C 
BRANCH  16  17
HETATM   17  C12 UNL     1      50.793  47.894  72.846  1.00  0.00     0.033 C 
BRANCH  17  18
HETATM   18  C13 UNL     1      49.851  48.099  73.981  1.00  0.00     0.187 C 
HETATM   19  C14 UNL     1      50.098  47.092  75.115  1.00  0.00     0.060 C 
HETATM   20  C15 UNL     1      50.912  48.182  75.773  1.00  0.00     0.235 C 
HETATM   21  N1  UNL     1      50.300  49.145  74.896  1.00  0.00    -0.071 N 
ATOM     22  H12 UNL     1      50.862  49.915  74.534  1.00  0.00     0.277 HD
ATOM     23  H11 UNL     1      49.617  49.800  75.277  1.00  0.00     0.277 HD
ENDBRANCH  17  18
ENDBRANCH  16  17
ENDBRANCH  15  16
ENDBRANCH  14  15
ENDBRANCH  13  14
ENDBRANCH  12  13
ENDBRANCH  11  12
ENDBRANCH  10  11
ENDBRANCH   9  10
ENDBRANCH   8   9
ENDBRANCH   3   8
BRANCH   4  24
HETATM   24  O3  UNL     1      48.120  47.692  70.753  1.00  0.00    -0.390 OA
ATOM     25  H3  UNL     1      47.307  47.200  70.760  1.00  0.00     0.210 HD
ENDBRANCH   4  24
BRANCH   1  26
HETATM   26  O1  UNL     1      47.462  44.343  67.900  1.00  0.00    -0.369 OA
ATOM     27  H1  UNL     1      48.032  44.339  67.140  1.00  0.00     0.212 HD
ENDBRANCH   1  26
BRANCH   5  28
HETATM   28  O4  UNL     1      46.676  49.691  69.267  1.00  0.00    -0.390 OA
ATOM     29  H4  UNL     1      46.389  49.559  70.164  1.00  0.00     0.210 HD
ENDBRANCH   5  28
BRANCH   7  30
HETATM   30  O6  UNL     1      45.054  45.325  68.649  1.00  0.00    -0.388 OA
ATOM     31  H6  UNL     1      44.196  45.732  68.622  1.00  0.00     0.210 HD
ENDBRANCH   7  30
BRANCH   6  32
HETATM   32  O5  UNL     1      44.764  48.054  69.115  1.00  0.00    -0.390 OA
ATOM     33  H5  UNL     1      44.865  48.997  69.167  1.00  0.00     0.210 HD
ENDBRANCH   6  32
TORSDOF 16
ENDMDL
MODEL 4
REMARK VINA RESULT: -5.928134577      4.025      6.029
REMARK  16 active torsions:
REMARK  status: ('A' for Active; 'I' for Inactive)
REMARK    1  A    between atoms: O1_1  and  C1_3 
REMARK    2  A    between atoms: C2_5  and  C3_6 
REMARK    3  A    between atoms: C3_6  and  C4_7 
REMARK    4  A    between atoms: C4_7  and  C5_8 
REMARK    5  A    between atoms: C5_8  and  C6_9 
REMARK    6  A    between atoms: C6_9  and  C7_10 
REMARK    7  A    between atoms: C7_10  and  C8_11 
REMARK    8  A    between atoms: C8_11  and  C9_12 
REMARK    9  A    between atoms: C9_12  and  C10_13 
REMARK   10  A    between atoms: C10_13  and  C11_14 
REMARK   11  A    between atoms: C11_14  and  C12_15 
REMARK   12  A    between atoms: C12_15  and  C13_16 
REMARK   13  A    between atoms: C16_22  and  O3_23 
REMARK   14  A    between atoms: C17_25  and  O4_26 
REMARK   15  A    between atoms: C18_28  and  O5_29 
REMARK   16  A    between atoms: C19_31  and  O6_32 
ROOT
HETATM    1  C1  UNL     1      47.436  45.583  68.523  1.00  0.00     0.288 C 
HETATM    2  O2  UNL     1      48.336  46.418  67.869  1.00  0.00    -0.351 OA
HETATM    3  C2  UNL     1      49.211  47.039  68.752  1.00  0.00     0.156 C 
HETATM    4  C16 UNL     1      48.456  48.094  69.492  1.00  0.00     0.178 C 
HETATM    5  C17 UNL     1      47.113  48.398  68.833  1.00  0.00     0.180 C 
HETATM    6  C18 UNL     1      46.042  47.440  69.256  1.00  0.00     0.183 C 
HETATM    7  C19 UNL     1      46.058  46.216  68.349  1.00  0.00     0.204 C 
ENDROOT
BRANCH   3   8
HETATM    8  C3  UNL     1      50.363  47.625  67.924  1.00  0.00     0.035 C 
BRANCH   8   9
HETATM    9  C4  UNL     1      51.271  48.323  68.908  1.00  0.00     0.002 C 
BRANCH   9  10
HETATM   10  C5  UNL     1      52.529  47.582  69.188  1.00  0.00     0.000 C 
BRANCH  10  11
HETATM   11  C6  UNL     1      52.747  47.263  70.633  1.00  0.00     0.000 C 
BRANCH  11  12
HETATM   12  C7  UNL     1      54.195  47.479  71.030  1.00  0.00     0.000 C 
BRANCH  12  13
HETATM   13  C8  UNL     1      54.342  48.041  72.397  1.00  0.00     0.000 C 
BRANCH  13  14
HETATM   14  C9  UNL     1      55.587  47.506  73.048  1.00  0.00     0.000 C 
BRANCH  14  15
HETATM   15  C10 UNL     1      56.202  46.334  72.286  1.00  0.00     0.000 C 
BRANCH  15  16
HETATM   16  C11 UNL     1      57.471  45.877  72.915  1.00  0.00     0.002 C 
BRANCH  16  17
HETATM   17  C12 UNL     1      57.993  44.631  72.298  1.00  0.00     0.033 C 
BRANCH  17  18
HETATM   18  C13 UNL     1      59.140  44.030  73.034  1.00  0.00     0.187 C 
HETATM   19  C14 UNL     1      58.746  43.608  74.458  1.00  0.00     0.060 C 
HETATM   20  C15 UNL     1      58.560  42.220  73.890  1.00  0.00     0.235 C 
HETATM   21  N1  UNL     1      59.315  42.612  72.730  1.00  0.00    -0.071 N 
ATOM     22  H12 UNL     1      59.037  42.262  71.813  1.00  0.00     0.277 HD
ATOM     23  H11 UNL     1      60.258  42.244  72.603  1.00  0.00     0.277 HD
ENDBRANCH  17  18
ENDBRANCH  16  17
ENDBRANCH  15  16
ENDBRANCH  14  15
ENDBRANCH  13  14
ENDBRANCH  12  13
ENDBRANCH  11  12
ENDBRANCH  10  11
ENDBRANCH   9  10
ENDBRANCH   8   9
ENDBRANCH   3   8
BRANCH   4  24
HETATM   24  O3  UNL     1      48.152  47.660  70.793  1.00  0.00    -0.390 OA
ATOM     25  H3  UNL     1      48.520  48.254  71.437  1.00  0.00     0.210 HD
ENDBRANCH   4  24
BRANCH   1  26
HETATM   26  O1  UNL     1      47.454  44.306  67.955  1.00  0.00    -0.369 OA
ATOM     27  H1  UNL     1      46.651  43.842  68.161  1.00  0.00     0.212 HD
ENDBRANCH   1  26
BRANCH   5  28
HETATM   28  O4  UNL     1      46.737  49.670  69.296  1.00  0.00    -0.390 OA
ATOM     29  H4  UNL     1      45.787  49.688  69.265  1.00  0.00     0.210 HD
ENDBRANCH   5  28
BRANCH   7  30
HETATM   30  O6  UNL     1      45.058  45.323  68.696  1.00  0.00    -0.388 OA
ATOM     31  H6  UNL     1      45.351  44.738  69.384  1.00  0.00     0.210 HD
ENDBRANCH   7  30
BRANCH   6  32
HETATM   32  O5  UNL     1      44.804  48.058  69.149  1.00  0.00    -0.390 OA
ATOM     33  H5  UNL     1      44.290  47.870  69.925  1.00  0.00     0.210 HD
ENDBRANCH   6  32
TORSDOF 16
ENDMDL
MODEL 5
REMARK VINA RESULT: -5.881070128      3.056      5.007
REMARK  16 active torsions:
REMARK  status: ('A' for Active; 'I' for Inactive)
REMARK    1  A    between atoms: O1_1  and  C1_3 
REMARK    2  A    between atoms: C2_5  and  C3_6 
REMARK    3  A    between atoms: C3_6  and  C4_7 
REMARK    4  A    between atoms: C4_7  and  C5_8 
REMARK    5  A    between atoms: C5_8  and  C6_9 
REMARK    6  A    between atoms: C6_9  and  C7_10 
REMARK    7  A    between atoms: C7_10  and  C8_11 
REMARK    8  A    between atoms: C8_11  and  C9_12 
REMARK    9  A    between atoms: C9_12  and  C10_13 
REMARK   10  A    between atoms: C10_13  and  C11_14 
REMARK   11  A    between atoms: C11_14  and  C12_15 
REMARK   12  A    between atoms: C12_15  and  C13_16 
REMARK   13  A    between atoms: C16_22  and  O3_23 
REMARK   14  A    between atoms: C17_25  and  O4_26 
REMARK   15  A    between atoms: C18_28  and  O5_29 
REMARK   16  A    between atoms: C19_31  and  O6_32 
ROOT
HETATM    1  C1  UNL     1      47.117  45.505  68.633  1.00  0.00     0.288 C 
HETATM    2  O2  UNL     1      48.053  46.268  67.942  1.00  0.00    -0.351 OA
HETATM    3  C2  UNL     1      48.945  46.905  68.798  1.00  0.00     0.156 C 
HETATM    4  C16 UNL     1      48.225  48.026  69.471  1.00  0.00     0.178 C 
HETATM    5  C17 UNL     1      46.898  48.343  68.784  1.00  0.00     0.180 C 
HETATM    6  C18 UNL     1      45.789  47.451  69.248  1.00  0.00     0.183 C 
HETATM    7  C19 UNL     1      45.765  46.179  68.411  1.00  0.00     0.204 C 
ENDROOT
BRANCH   3   8
HETATM    8  C3  UNL     1      50.124  47.401  67.949  1.00  0.00     0.035 C 
BRANCH   8   9
HETATM    9  C4  UNL     1      50.512  48.744  68.520  1.00  0.00     0.002 C 
BRANCH   9  10
HETATM   10  C5  UNL     1      51.887  48.778  69.083  1.00  0.00     0.000 C 
BRANCH  10  11
HETATM   11  C6  UNL     1      52.658  47.508  68.904  1.00  0.00     0.000 C 
BRANCH  11  12
HETATM   12  C7  UNL     1      53.038  46.906  70.244  1.00  0.00     0.000 C 
BRANCH  12  13
HETATM   13  C8  UNL     1      52.518  47.687  71.397  1.00  0.00     0.000 C 
BRANCH  13  14
HETATM   14  C9  UNL     1      53.655  48.176  72.249  1.00  0.00     0.000 C 
BRANCH  14  15
HETATM   15  C10 UNL     1      54.977  47.475  71.938  1.00  0.00     0.000 C 
BRANCH  15  16
HETATM   16  C11 UNL     1      55.957  47.638  73.047  1.00  0.00     0.002 C 
BRANCH  16  17
HETATM   17  C12 UNL     1      56.717  46.392  73.319  1.00  0.00     0.033 C 
BRANCH  17  18
HETATM   18  C13 UNL     1      57.670  46.020  72.239  1.00  0.00     0.187 C 
HETATM   19  C14 UNL     1      58.998  45.494  72.805  1.00  0.00     0.060 C 
HETATM   20  C15 UNL     1      58.429  44.111  72.592  1.00  0.00     0.235 C 
HETATM   21  N1  UNL     1      57.431  44.675  71.722  1.00  0.00    -0.071 N 
ATOM     22  H12 UNL     1      56.483  44.296  71.741  1.00  0.00     0.277 HD
ATOM     23  H11 UNL     1      57.495  44.509  70.717  1.00  0.00     0.277 HD
ENDBRANCH  17  18
ENDBRANCH  16  17
ENDBRANCH  15  16
ENDBRANCH  14  15
ENDBRANCH  13  14
ENDBRANCH  12  13
ENDBRANCH  11  12
ENDBRANCH  10  11
ENDBRANCH   9  10
ENDBRANCH   8   9
ENDBRANCH   3   8
BRANCH   4  24
HETATM   24  O3  UNL     1      47.894  47.676  70.792  1.00  0.00    -0.390 OA
ATOM     25  H3  UNL     1      46.963  47.784  70.941  1.00  0.00     0.210 HD
ENDBRANCH   4  24
BRANCH   1  26
HETATM   26  O1  UNL     1      47.091  44.199  68.135  1.00  0.00    -0.369 OA
ATOM     27  H1  UNL     1      46.337  44.076  67.571  1.00  0.00     0.212 HD
ENDBRANCH   1  26
BRANCH   5  28
HETATM   28  O4  UNL     1      46.567  49.652  69.172  1.00  0.00    -0.390 OA
ATOM     29  H4  UNL     1      45.925  49.563  69.867  1.00  0.00     0.210 HD
ENDBRANCH   5  28
BRANCH   7  30
HETATM   30  O6  UNL     1      44.730  45.344  68.796  1.00  0.00    -0.388 OA
ATOM     31  H6  UNL     1      44.692  44.574  68.242  1.00  0.00     0.210 HD
ENDBRANCH   7  30
BRANCH   6  32
HETATM   32  O5  UNL     1      44.576  48.107  69.095  1.00  0.00    -0.390 OA
ATOM     33  H5  UNL     1      44.665  49.006  69.390  1.00  0.00     0.210 HD
ENDBRANCH   6  32
TORSDOF 16
ENDMDL
