MODEL 1
REMARK VINA RESULT: -6.353283106      0.000      0.000
REMARK  14 active torsions:
REMARK  status: ('A' for Active; 'I' for Inactive)
REMARK    1  A    between atoms: O1_2  and  C2_3 
REMARK    2  A    between atoms: C2_3  and  C3_4 
REMARK    3  A    between atoms: C3_4  and  C4_5 
REMARK    4  A    between atoms: C4_5  and  C5_6 
REMARK    5  A    between atoms: C5_6  and  C6_7 
REMARK    6  A    between atoms: C6_7  and  N1_8 
REMARK    7  A    between atoms: N1_8  and  C7_10 
REMARK    8  A    between atoms: C7_10  and  C8_11 
REMARK    9  A    between atoms: C10_16  and  C11_17 
REMARK   10  A    between atoms: C11_17  and  C12_18 
REMARK   11  A    between atoms: C13_19  and  C14_20 
REMARK   12  A    between atoms: C14_20  and  C15_21 
REMARK   13  A    between atoms: C18_26  and  O2_27 
REMARK   14  A    between atoms: C19_29  and  O3_30 
ROOT
HETATM    1  C8  UNL     1      51.586  47.777  68.968  1.00  0.00     0.188 C 
HETATM    2  C9  UNL     1      51.134  49.160  68.711  1.00  0.00     0.272 C 
HETATM    3  N2  UNL     1      49.765  48.970  68.199  1.00  0.00    -0.046 N 
ATOM      4  H21 UNL     1      49.502  49.628  67.464  1.00  0.00     0.280 HD
ATOM      5  H22 UNL     1      49.034  49.239  68.859  1.00  0.00     0.280 HD
HETATM    6  C10 UNL     1      49.712  47.613  67.803  1.00  0.00     0.325 C 
HETATM    7  O4  UNL     1      50.979  47.043  67.906  1.00  0.00    -0.346 OA
ENDROOT
BRANCH   6   8
HETATM    8  C11 UNL     1      48.720  46.849  68.684  1.00  0.00     0.088 C 
BRANCH   8   9
HETATM    9  C12 UNL     1      47.614  47.828  69.003  1.00  0.00    -0.026 C 
HETATM   10  C13 UNL     1      46.350  47.495  68.946  1.00  0.00    -0.029 C 
BRANCH  10  11
HETATM   11  C14 UNL     1      45.209  48.374  69.242  1.00  0.00     0.052 C 
BRANCH  11  12
HETATM   12  C15 UNL     1      44.758  48.278  70.641  1.00  0.00     0.130 C 
HETATM   13  N3  UNL     1      43.332  48.087  70.757  1.00  0.00    -0.140 NA
HETATM   14  N4  UNL     1      42.584  49.229  70.561  1.00  0.00    -0.141 NA
HETATM   15  C16 UNL     1      42.979  50.339  71.367  1.00  0.00     0.122 C 
HETATM   16  C17 UNL     1      42.220  51.562  70.871  1.00  0.00     0.032 C 
HETATM   17  C18 UNL     1      44.446  50.659  71.271  1.00  0.00     0.168 C 
HETATM   18  C19 UNL     1      45.242  49.410  71.519  1.00  0.00     0.169 C 
BRANCH  17  19
HETATM   19  O2  UNL     1      44.706  51.616  72.253  1.00  0.00    -0.391 OA
ATOM     20  H2  UNL     1      43.987  52.236  72.222  1.00  0.00     0.210 HD
ENDBRANCH  17  19
BRANCH  18  21
HETATM   21  O3  UNL     1      45.023  49.035  72.838  1.00  0.00    -0.391 OA
ATOM     22  H3  UNL     1      45.282  48.126  72.923  1.00  0.00     0.210 HD
ENDBRANCH  18  21
ENDBRANCH  11  12
ENDBRANCH  10  11
ENDBRANCH   8   9
ENDBRANCH   6   8
BRANCH   1  23
HETATM   23  C7  UNL     1      53.047  47.538  68.992  1.00  0.00     0.093 C 
BRANCH  23  24
HETATM   24  N1  UNL     1      53.657  47.278  70.200  1.00  0.00    -0.380 N 
ATOM     25  H1  UNL     1      54.411  46.592  70.206  1.00  0.00     0.164 HD
BRANCH  24  26
HETATM   26  C6  UNL     1      53.325  47.881  71.423  1.00  0.00     0.060 C 
BRANCH  26  27
HETATM   27  C5  UNL     1      54.554  47.863  72.324  1.00  0.00     0.044 C 
BRANCH  27  28
HETATM   28  C4  UNL     1      55.684  47.094  71.741  1.00  0.00     0.007 C 
BRANCH  28  29
HETATM   29  C3  UNL     1      56.581  46.407  72.711  1.00  0.00     0.027 C 
BRANCH  29  30
HETATM   30  C2  UNL     1      58.006  46.377  72.143  1.00  0.00     0.167 C 
BRANCH  30  31
HETATM   31  O1  UNL     1      58.255  45.134  71.554  1.00  0.00    -0.396 OA
HETATM   32  C1  UNL     1      58.310  44.135  72.510  1.00  0.00     0.201 C 
ENDBRANCH  30  31
ENDBRANCH  29  30
ENDBRANCH  28  29
ENDBRANCH  27  28
ENDBRANCH  26  27
ENDBRANCH  24  26
ENDBRANCH  23  24
ENDBRANCH   1  23
TORSDOF 14
ENDMDL
MODEL 2
REMARK VINA RESULT: -6.256229214      0.952      1.037
REMARK  14 active torsions:
REMARK  status: ('A' for Active; 'I' for Inactive)
REMARK    1  A    between atoms: O1_2  and  C2_3 
REMARK    2  A    between atoms: C2_3  and  C3_4 
REMARK    3  A    between atoms: C3_4  and  C4_5 
REMARK    4  A    between atoms: C4_5  and  C5_6 
REMARK    5  A    between atoms: C5_6  and  C6_7 
REMARK    6  A    between atoms: C6_7  and  N1_8 
REMARK    7  A    between atoms: N1_8  and  C7_10 
REMARK    8  A    between atoms: C7_10  and  C8_11 
REMARK    9  A    between atoms: C10_16  and  C11_17 
REMARK   10  A    between atoms: C11_17  and  C12_18 
REMARK   11  A    between atoms: C13_19  and  C14_20 
REMARK   12  A    between atoms: C14_20  and  C15_21 
REMARK   13  A    between atoms: C18_26  and  O2_27 
REMARK   14  A    between atoms: C19_29  and  O3_30 
ROOT
HETATM    1  C8  UNL     1      51.541  47.739  68.950  1.00  0.00     0.188 C 
HETATM    2  C9  UNL     1      51.139  48.614  67.831  1.00  0.00     0.272 C 
HETATM    3  N2  UNL     1      49.673  48.465  67.804  1.00  0.00    -0.046 N 
ATOM      4  H21 UNL     1      49.272  48.470  66.866  1.00  0.00     0.280 HD
ATOM      5  H22 UNL     1      49.166  49.281  68.149  1.00  0.00     0.280 HD
HETATM    6  C10 UNL     1      49.418  47.279  68.533  1.00  0.00     0.325 C 
HETATM    7  O4  UNL     1      50.621  46.653  68.849  1.00  0.00    -0.346 OA
ENDROOT
BRANCH   6   8
HETATM    8  C11 UNL     1      48.643  47.607  69.812  1.00  0.00     0.088 C 
BRANCH   8   9
HETATM    9  C12 UNL     1      47.209  47.814  69.385  1.00  0.00    -0.026 C 
HETATM   10  C13 UNL     1      46.286  48.223  70.215  1.00  0.00    -0.029 C 
BRANCH  10  11
HETATM   11  C14 UNL     1      44.871  48.456  69.892  1.00  0.00     0.052 C 
BRANCH  11  12
HETATM   12  C15 UNL     1      43.964  48.118  71.002  1.00  0.00     0.130 C 
HETATM   13  N3  UNL     1      42.573  48.296  70.662  1.00  0.00    -0.140 NA
HETATM   14  N4  UNL     1      42.144  49.606  70.670  1.00  0.00    -0.141 NA
HETATM   15  C16 UNL     1      42.430  50.313  71.878  1.00  0.00     0.122 C 
HETATM   16  C17 UNL     1      42.107  51.782  71.638  1.00  0.00     0.032 C 
HETATM   17  C18 UNL     1      43.875  50.239  72.290  1.00  0.00     0.168 C 
HETATM   18  C19 UNL     1      44.311  48.802  72.306  1.00  0.00     0.169 C 
BRANCH  17  19
HETATM   19  O2  UNL     1      43.949  50.794  73.567  1.00  0.00    -0.391 OA
ATOM     20  H2  UNL     1      44.544  51.532  73.506  1.00  0.00     0.210 HD
ENDBRANCH  17  19
BRANCH  18  21
HETATM   21  O3  UNL     1      43.598  48.165  73.312  1.00  0.00    -0.391 OA
ATOM     22  H3  UNL     1      43.932  47.279  73.380  1.00  0.00     0.210 HD
ENDBRANCH  18  21
ENDBRANCH  11  12
ENDBRANCH  10  11
ENDBRANCH   8   9
ENDBRANCH   6   8
BRANCH   1  23
HETATM   23  C7  UNL     1      52.934  47.237  68.948  1.00  0.00     0.093 C 
BRANCH  23  24
HETATM   24  N1  UNL     1      53.635  47.220  70.135  1.00  0.00    -0.380 N 
ATOM     25  H1  UNL     1      54.516  46.707  70.151  1.00  0.00     0.164 HD
BRANCH  24  26
HETATM   26  C6  UNL     1      53.236  47.852  71.322  1.00  0.00     0.060 C 
BRANCH  26  27
HETATM   27  C5  UNL     1      54.431  47.912  72.267  1.00  0.00     0.044 C 
BRANCH  27  28
HETATM   28  C4  UNL     1      55.580  47.100  71.793  1.00  0.00     0.007 C 
BRANCH  28  29
HETATM   29  C3  UNL     1      56.465  46.533  72.849  1.00  0.00     0.027 C 
BRANCH  29  30
HETATM   30  C2  UNL     1      57.242  45.345  72.269  1.00  0.00     0.167 C 
BRANCH  30  31
HETATM   31  O1  UNL     1      58.336  45.808  71.531  1.00  0.00    -0.396 OA
HETATM   32  C1  UNL     1      59.271  46.408  72.356  1.00  0.00     0.201 C 
ENDBRANCH  30  31
ENDBRANCH  29  30
ENDBRANCH  28  29
ENDBRANCH  27  28
ENDBRANCH  26  27
ENDBRANCH  24  26
ENDBRANCH  23  24
ENDBRANCH   1  23
TORSDOF 14
ENDMDL
MODEL 3
REMARK VINA RESULT: -6.177992117      3.002      4.097
REMARK  14 active torsions:
REMARK  status: ('A' for Active; 'I' for Inactive)
REMARK    1  A    between atoms: O1_2  and  C2_3 
REMARK    2  A    between atoms: C2_3  and  C3_4 
REMARK    3  A    between atoms: C3_4  and  C4_5 
REMARK    4  A    between atoms: C4_5  and  C5_6 
REMARK    5  A    between atoms: C5_6  and  C6_7 
REMARK    6  A    between atoms: C6_7  and  N1_8 
REMARK    7  A    between atoms: N1_8  and  C7_10 
REMARK    8  A    between atoms: C7_10  and  C8_11 
REMARK    9  A    between atoms: C10_16  and  C11_17 
REMARK   10  A    between atoms: C11_17  and  C12_18 
REMARK   11  A    between atoms: C13_19  and  C14_20 
REMARK   12  A    between atoms: C14_20  and  C15_21 
REMARK   13  A    between atoms: C18_26  and  O2_27 
REMARK   14  A    between atoms: C19_29  and  O3_30 
ROOT
HETATM    1  C8  UNL     1      48.024  47.363  68.207  1.00  0.00     0.188 C 
HETATM    2  C9  UNL     1      47.424  46.014  68.150  1.00  0.00     0.272 C 
HETATM    3  N2  UNL     1      46.106  46.212  68.780  1.00  0.00    -0.046 N 
ATOM      4  H21 UNL     1      45.796  45.425  69.349  1.00  0.00     0.280 HD
ATOM      5  H22 UNL     1      45.325  46.193  68.123  1.00  0.00     0.280 HD
HETATM    6  C10 UNL     1      46.227  47.427  69.495  1.00  0.00     0.325 C 
HETATM    7  O4  UNL     1      47.546  47.870  69.452  1.00  0.00    -0.346 OA
ENDROOT
BRANCH   6   8
HETATM    8  C11 UNL     1      45.298  48.484  68.891  1.00  0.00     0.088 C 
BRANCH   8   9
HETATM    9  C12 UNL     1      44.748  49.267  70.060  1.00  0.00    -0.026 C 
HETATM   10  C13 UNL     1      44.769  48.804  71.282  1.00  0.00    -0.029 C 
BRANCH  10  11
HETATM   11  C14 UNL     1      44.263  49.492  72.478  1.00  0.00     0.052 C 
BRANCH  11  12
HETATM   12  C15 UNL     1      43.107  48.812  73.087  1.00  0.00     0.130 C 
HETATM   13  N3  UNL     1      41.921  48.881  72.267  1.00  0.00    -0.140 NA
HETATM   14  N4  UNL     1      41.268  50.095  72.308  1.00  0.00    -0.141 NA
HETATM   15  C16 UNL     1      40.961  50.556  73.624  1.00  0.00     0.122 C 
HETATM   16  C17 UNL     1      40.460  51.989  73.505  1.00  0.00     0.032 C 
HETATM   17  C18 UNL     1      42.149  50.577  74.546  1.00  0.00     0.168 C 
HETATM   18  C19 UNL     1      42.826  49.237  74.511  1.00  0.00     0.169 C 
BRANCH  17  19
HETATM   19  O2  UNL     1      41.654  50.848  75.822  1.00  0.00    -0.391 OA
ATOM     20  H2  UNL     1      41.534  50.008  76.249  1.00  0.00     0.210 HD
ENDBRANCH  17  19
BRANCH  18  21
HETATM   21  O3  UNL     1      41.944  48.313  75.054  1.00  0.00    -0.391 OA
ATOM     22  H3  UNL     1      42.347  47.457  74.982  1.00  0.00     0.210 HD
ENDBRANCH  18  21
ENDBRANCH  11  12
ENDBRANCH  10  11
ENDBRANCH   8   9
ENDBRANCH   6   8
BRANCH   1  23
HETATM   23  C7  UNL     1      49.501  47.447  68.147  1.00  0.00     0.093 C 
BRANCH  23  24
HETATM   24  N1  UNL     1      50.085  48.662  67.856  1.00  0.00    -0.380 N 
ATOM     25  H1  UNL     1      49.605  49.264  67.189  1.00  0.00     0.164 HD
BRANCH  24  26
HETATM   26  C6  UNL     1      51.286  49.136  68.404  1.00  0.00     0.060 C 
BRANCH  26  27
HETATM   27  C5  UNL     1      52.285  47.986  68.455  1.00  0.00     0.044 C 
BRANCH  27  28
HETATM   28  C4  UNL     1      52.827  47.754  69.819  1.00  0.00     0.007 C 
BRANCH  28  29
HETATM   29  C3  UNL     1      52.840  46.341  70.290  1.00  0.00     0.027 C 
BRANCH  29  30
HETATM   30  C2  UNL     1      52.650  45.409  69.086  1.00  0.00     0.167 C 
BRANCH  30  31
HETATM   31  O1  UNL     1      53.772  44.587  68.942  1.00  0.00    -0.396 OA
HETATM   32  C1  UNL     1      53.467  43.461  68.196  1.00  0.00     0.201 C 
ENDBRANCH  30  31
ENDBRANCH  29  30
ENDBRANCH  28  29
ENDBRANCH  27  28
ENDBRANCH  26  27
ENDBRANCH  24  26
ENDBRANCH  23  24
ENDBRANCH   1  23
TORSDOF 14
ENDMDL
MODEL 4
REMARK VINA RESULT: -6.134655804      3.017      8.272
REMARK  14 active torsions:
REMARK  status: ('A' for Active; 'I' for Inactive)
REMARK    1  A    between atoms: O1_2  and  C2_3 
REMARK    2  A    between atoms: C2_3  and  C3_4 
REMARK    3  A    between atoms: C3_4  and  C4_5 
REMARK    4  A    between atoms: C4_5  and  C5_6 
REMARK    5  A    between atoms: C5_6  and  C6_7 
REMARK    6  A    between atoms: C6_7  and  N1_8 
REMARK    7  A    between atoms: N1_8  and  C7_10 
REMARK    8  A    between atoms: C7_10  and  C8_11 
REMARK    9  A    between atoms: C10_16  and  C11_17 
REMARK   10  A    between atoms: C11_17  and  C12_18 
REMARK   11  A    between atoms: C13_19  and  C14_20 
REMARK   12  A    between atoms: C14_20  and  C15_21 
REMARK   13  A    between atoms: C18_26  and  O2_27 
REMARK   14  A    between atoms: C19_29  and  O3_30 
ROOT
HETATM    1  C8  UNL     1      44.583  50.339  70.229  1.00  0.00     0.188 C 
HETATM    2  C9  UNL     1      45.456  50.033  71.380  1.00  0.00     0.272 C 
HETATM    3  N2  UNL     1      45.571  48.564  71.326  1.00  0.00    -0.046 N 
ATOM      4  H21 UNL     1      45.598  48.116  72.243  1.00  0.00     0.280 HD
ATOM      5  H22 UNL     1      46.481  48.231  71.009  1.00  0.00     0.280 HD
HETATM    6  C10 UNL     1      44.490  48.147  70.513  1.00  0.00     0.325 C 
HETATM    7  O4  UNL     1      43.677  49.238  70.217  1.00  0.00    -0.346 OA
ENDROOT
BRANCH   6   8
HETATM    8  C11 UNL     1      45.020  47.519  69.221  1.00  0.00     0.088 C 
BRANCH   8   9
HETATM    9  C12 UNL     1      46.475  47.207  69.480  1.00  0.00    -0.026 C 
HETATM   10  C13 UNL     1      47.350  47.104  68.513  1.00  0.00    -0.029 C 
BRANCH  10  11
HETATM   11  C14 UNL     1      48.781  46.808  68.668  1.00  0.00     0.052 C 
BRANCH  11  12
HETATM   12  C15 UNL     1      49.646  47.767  67.959  1.00  0.00     0.130 C 
HETATM   13  N3  UNL     1      50.818  47.148  67.389  1.00  0.00    -0.140 NA
HETATM   14  N4  UNL     1      51.818  46.870  68.297  1.00  0.00    -0.141 NA
HETATM   15  C16 UNL     1      52.214  47.985  69.097  1.00  0.00     0.122 C 
HETATM   16  C17 UNL     1      53.142  47.464  70.186  1.00  0.00     0.032 C 
HETATM   17  C18 UNL     1      51.064  48.669  69.786  1.00  0.00     0.168 C 
HETATM   18  C19 UNL     1      50.002  48.990  68.774  1.00  0.00     0.169 C 
BRANCH  17  19
HETATM   19  O2  UNL     1      51.580  49.836  70.351  1.00  0.00    -0.391 OA
ATOM     20  H2  UNL     1      51.069  50.554  69.998  1.00  0.00     0.210 HD
ENDBRANCH  17  19
BRANCH  18  21
HETATM   21  O3  UNL     1      50.533  49.931  67.902  1.00  0.00    -0.391 OA
ATOM     22  H3  UNL     1      51.459  49.744  67.812  1.00  0.00     0.210 HD
ENDBRANCH  18  21
ENDBRANCH  11  12
ENDBRANCH  10  11
ENDBRANCH   8   9
ENDBRANCH   6   8
BRANCH   1  23
HETATM   23  C7  UNL     1      43.840  51.619  70.267  1.00  0.00     0.093 C 
BRANCH  23  24
HETATM   24  N1  UNL     1      44.269  52.659  69.471  1.00  0.00    -0.380 N 
ATOM     25  H1  UNL     1      43.754  53.538  69.531  1.00  0.00     0.164 HD
BRANCH  24  26
HETATM   26  C6  UNL     1      45.355  52.608  68.586  1.00  0.00     0.060 C 
BRANCH  26  27
HETATM   27  C5  UNL     1      46.595  53.126  69.307  1.00  0.00     0.044 C 
BRANCH  27  28
HETATM   28  C4  UNL     1      47.733  52.172  69.250  1.00  0.00     0.007 C 
BRANCH  28  29
HETATM   29  C3  UNL     1      48.969  52.580  69.975  1.00  0.00     0.027 C 
BRANCH  29  30
HETATM   30  C2  UNL     1      49.970  53.166  68.971  1.00  0.00     0.167 C 
BRANCH  30  31
HETATM   31  O1  UNL     1      51.222  52.571  69.149  1.00  0.00    -0.396 OA
HETATM   32  C1  UNL     1      51.930  53.199  70.160  1.00  0.00     0.201 C 
ENDBRANCH  30  31
ENDBRANCH  29  30
ENDBRANCH  28  29
ENDBRANCH  27  28
ENDBRANCH  26  27
ENDBRANCH  24  26
ENDBRANCH  23  24
ENDBRANCH   1  23
TORSDOF 14
ENDMDL
MODEL 5
REMARK VINA RESULT: -6.077210465      3.080      6.086
REMARK  14 active torsions:
REMARK  status: ('A' for Active; 'I' for Inactive)
REMARK    1  A    between atoms: O1_2  and  C2_3 
REMARK    2  A    between atoms: C2_3  and  C3_4 
REMARK    3  A    between atoms: C3_4  and  C4_5 
REMARK    4  A    between atoms: C4_5  and  C5_6 
REMARK    5  A    between atoms: C5_6  and  C6_7 
REMARK    6  A    between atoms: C6_7  and  N1_8 
REMARK    7  A    between atoms: N1_8  and  C7_10 
REMARK    8  A    between atoms: C7_10  and  C8_11 
REMARK    9  A    between atoms: C10_16  and  C11_17 
REMARK   10  A    between atoms: C11_17  and  C12_18 
REMARK   11  A    between atoms: C13_19  and  C14_20 
REMARK   12  A    between atoms: C14_20  and  C15_21 
REMARK   13  A    between atoms: C18_26  and  O2_27 
REMARK   14  A    between atoms: C19_29  and  O3_30 
ROOT
HETATM    1  C8  UNL     1      46.581  47.832  68.927  1.00  0.00     0.188 C 
HETATM    2  C9  UNL     1      45.416  46.924  68.947  1.00  0.00     0.272 C 
HETATM    3  N2  UNL     1      44.440  47.657  69.774  1.00  0.00    -0.046 N 
ATOM      4  H21 UNL     1      43.874  47.059  70.376  1.00  0.00     0.280 HD
ATOM      5  H22 UNL     1      43.664  48.055  69.245  1.00  0.00     0.280 HD
HETATM    6  C10 UNL     1      45.210  48.615  70.476  1.00  0.00     0.325 C 
HETATM    7  O4  UNL     1      46.564  48.398  70.235  1.00  0.00    -0.346 OA
ENDROOT
BRANCH   6   8
HETATM    8  C11 UNL     1      44.817  50.027  70.033  1.00  0.00     0.088 C 
BRANCH   8   9
HETATM    9  C12 UNL     1      45.977  50.917  70.412  1.00  0.00    -0.026 C 
HETATM   10  C13 UNL     1      46.570  51.697  69.546  1.00  0.00    -0.029 C 
BRANCH  10  11
HETATM   11  C14 UNL     1      47.699  52.597  69.822  1.00  0.00     0.052 C 
BRANCH  11  12
HETATM   12  C15 UNL     1      48.838  52.387  68.912  1.00  0.00     0.130 C 
HETATM   13  N3  UNL     1      49.248  51.005  68.840  1.00  0.00    -0.140 NA
HETATM   14  N4  UNL     1      49.991  50.572  69.918  1.00  0.00    -0.141 NA
HETATM   15  C16 UNL     1      51.124  51.387  70.220  1.00  0.00     0.122 C 
HETATM   16  C17 UNL     1      51.690  50.913  71.552  1.00  0.00     0.032 C 
HETATM   17  C18 UNL     1      50.791  52.845  70.374  1.00  0.00     0.168 C 
HETATM   18  C19 UNL     1      50.010  53.304  69.175  1.00  0.00     0.169 C 
BRANCH  17  19
HETATM   19  O2  UNL     1      52.008  53.521  70.461  1.00  0.00    -0.391 OA
ATOM     20  H2  UNL     1      51.807  54.447  70.396  1.00  0.00     0.210 HD
ENDBRANCH  17  19
BRANCH  18  21
HETATM   21  O3  UNL     1      50.856  53.224  68.077  1.00  0.00    -0.391 OA
ATOM     22  H3  UNL     1      51.726  53.026  68.401  1.00  0.00     0.210 HD
ENDBRANCH  18  21
ENDBRANCH  11  12
ENDBRANCH  10  11
ENDBRANCH   8   9
ENDBRANCH   6   8
BRANCH   1  23
HETATM   23  C7  UNL     1      47.903  47.228  68.642  1.00  0.00     0.093 C 
BRANCH  23  24
HETATM   24  N1  UNL     1      48.903  48.029  68.133  1.00  0.00    -0.380 N 
ATOM     25  H1  UNL     1      48.655  48.986  67.884  1.00  0.00     0.164 HD
BRANCH  24  26
HETATM   26  C6  UNL     1      50.233  47.634  67.930  1.00  0.00     0.060 C 
BRANCH  26  27
HETATM   27  C5  UNL     1      50.806  47.151  69.258  1.00  0.00     0.044 C 
BRANCH  27  28
HETATM   28  C4  UNL     1      52.180  47.655  69.508  1.00  0.00     0.007 C 
BRANCH  28  29
HETATM   29  C3  UNL     1      53.199  46.631  69.876  1.00  0.00     0.027 C 
BRANCH  29  30
HETATM   30  C2  UNL     1      52.776  45.274  69.301  1.00  0.00     0.167 C 
BRANCH  30  31
HETATM   31  O1  UNL     1      53.907  44.550  68.911  1.00  0.00    -0.396 OA
HETATM   32  C1  UNL     1      53.554  43.457  68.139  1.00  0.00     0.201 C 
ENDBRANCH  30  31
ENDBRANCH  29  30
ENDBRANCH  28  29
ENDBRANCH  27  28
ENDBRANCH  26  27
ENDBRANCH  24  26
ENDBRANCH  23  24
ENDBRANCH   1  23
TORSDOF 14
ENDMDL
