MODEL 1
REMARK VINA RESULT: -6.645013408      0.000      0.000
REMARK  9 active torsions:
REMARK  status: ('A' for Active; 'I' for Inactive)
REMARK    1  A    between atoms: N1_1  and  C1_4 
REMARK    2  A    between atoms: N4_10  and  C3_11 
REMARK    3  A    between atoms: C3_11  and  C4_12 
REMARK    4  A    between atoms: C4_12  and  O1_13 
REMARK    5  A    between atoms: O1_13  and  C5_14 
REMARK    6  A    between atoms: C5_14  and  N5_15 
REMARK    7  A    between atoms: C6_22  and  C7_23 
REMARK    8  A    between atoms: C7_23  and  N9_24 
REMARK    9  A    between atoms: C8_28  and  N10_29 
ROOT
HETATM    1  C1  UNL     1     -35.353  59.447  78.436  1.00  0.00     0.679 A 
HETATM    2  N2  UNL     1     -34.166  59.604  77.834  1.00  0.00    -0.172 N 
ATOM      3  H2  UNL     1     -33.290  59.822  78.310  1.00  0.00     0.186 HD
HETATM    4  C2  UNL     1     -34.304  59.431  76.506  1.00  0.00     0.181 A 
HETATM    5  N3  UNL     1     -33.434  59.478  75.456  1.00  0.00    -0.265 N 
ATOM      6  H3  UNL     1     -32.449  59.682  75.625  1.00  0.00     0.189 HD
HETATM    7  N4  UNL     1     -33.857  59.261  74.222  1.00  0.00    -0.120 N 
HETATM    8  C8  UNL     1     -35.151  58.996  74.025  1.00  0.00     0.694 A 
HETATM    9  N11 UNL     1     -36.050  58.939  75.032  1.00  0.00    -0.171 N 
ATOM     10  H11 UNL     1     -37.030  58.733  74.838  1.00  0.00     0.186 HD
HETATM   11  C9  UNL     1     -35.639  59.156  76.291  1.00  0.00     0.182 A 
HETATM   12  N12 UNL     1     -36.270  59.170  77.492  1.00  0.00    -0.172 N 
ATOM     13  H12 UNL     1     -37.264  59.000  77.650  1.00  0.00     0.186 HD
ENDROOT
BRANCH   7  14
HETATM   14  C3  UNL     1     -32.957  59.305  73.087  1.00  0.00     0.195 C 
BRANCH  14  15
HETATM   15  C4  UNL     1     -31.578  59.059  73.630  1.00  0.00     0.198 C 
BRANCH  15  16
HETATM   16  O1  UNL     1     -31.241  57.911  74.133  1.00  0.00    -0.343 OA
BRANCH  16  17
HETATM   17  C5  UNL     1     -30.705  57.484  75.223  1.00  0.00     0.254 C 
BRANCH  17  18
HETATM   18  N5  UNL     1     -31.434  56.724  76.208  1.00  0.00    -0.215 N 
HETATM   19  N6  UNL     1     -31.683  57.072  77.449  1.00  0.00    -0.219 N 
HETATM   20  N7  UNL     1     -32.339  56.105  78.024  1.00  0.00    -0.226 N 
ATOM     21  H6  UNL     1     -31.408  57.951  77.889  1.00  0.00     0.210 HD
HETATM   22  N8  UNL     1     -32.523  55.125  77.172  1.00  0.00    -0.270 N 
ATOM     23  H7  UNL     1     -32.661  56.109  78.992  1.00  0.00     0.210 HD
HETATM   24  C6  UNL     1     -31.947  55.517  76.009  1.00  0.00     0.147 A 
ATOM     25  H8  UNL     1     -33.005  54.243  77.349  1.00  0.00     0.190 HD
BRANCH  24  26
HETATM   26  C7  UNL     1     -31.991  54.656  74.793  1.00  0.00     0.309 C 
BRANCH  26  27
HETATM   27  N9  UNL     1     -32.865  55.272  73.781  1.00  0.00    -0.073 N 
ATOM     28  H93 UNL     1     -33.158  56.212  74.048  1.00  0.00     0.274 HD
ATOM     29  H92 UNL     1     -32.357  55.513  72.930  1.00  0.00     0.274 HD
ATOM     30  H91 UNL     1     -33.659  54.659  73.594  1.00  0.00     0.274 HD
ENDBRANCH  26  27
ENDBRANCH  24  26
ENDBRANCH  17  18
ENDBRANCH  16  17
ENDBRANCH  15  16
ENDBRANCH  14  15
ENDBRANCH   7  14
BRANCH   8  31
HETATM   31  N10 UNL     1     -35.631  58.775  72.853  1.00  0.00    -0.233 N 
ATOM     32 2H10 UNL     1     -36.640  58.897  72.768  1.00  0.00     0.174 HD
ATOM     33 1H10 UNL     1     -35.040  58.499  72.069  1.00  0.00     0.174 HD
ENDBRANCH   8  31
BRANCH   1  34
HETATM   34  N1  UNL     1     -35.587  59.545  79.704  1.00  0.00    -0.234 N 
ATOM     35  H12 UNL     1     -34.884  59.497  80.441  1.00  0.00     0.174 HD
ATOM     36  H11 UNL     1     -36.499  59.681  80.141  1.00  0.00     0.174 HD
ENDBRANCH   1  34
TORSDOF 9
ENDMDL
MODEL 2
REMARK VINA RESULT: -6.399123981      0.797      1.722
REMARK  9 active torsions:
REMARK  status: ('A' for Active; 'I' for Inactive)
REMARK    1  A    between atoms: N1_1  and  C1_4 
REMARK    2  A    between atoms: N4_10  and  C3_11 
REMARK    3  A    between atoms: C3_11  and  C4_12 
REMARK    4  A    between atoms: C4_12  and  O1_13 
REMARK    5  A    between atoms: O1_13  and  C5_14 
REMARK    6  A    between atoms: C5_14  and  N5_15 
REMARK    7  A    between atoms: C6_22  and  C7_23 
REMARK    8  A    between atoms: C7_23  and  N9_24 
REMARK    9  A    between atoms: C8_28  and  N10_29 
ROOT
HETATM    1  C1  UNL     1     -35.338  59.304  78.370  1.00  0.00     0.679 A 
HETATM    2  N2  UNL     1     -34.145  59.388  77.764  1.00  0.00    -0.172 N 
ATOM      3  H2  UNL     1     -33.248  59.477  78.243  1.00  0.00     0.186 HD
HETATM    4  C2  UNL     1     -34.308  59.336  76.429  1.00  0.00     0.181 A 
HETATM    5  N3  UNL     1     -33.446  59.379  75.373  1.00  0.00    -0.265 N 
ATOM      6  H3  UNL     1     -32.444  59.469  75.543  1.00  0.00     0.189 HD
HETATM    7  N4  UNL     1     -33.897  59.306  74.132  1.00  0.00    -0.120 N 
HETATM    8  C8  UNL     1     -35.213  59.189  73.934  1.00  0.00     0.694 A 
HETATM    9  N11 UNL     1     -36.106  59.143  74.947  1.00  0.00    -0.171 N 
ATOM     10  H11 UNL     1     -37.104  59.054  74.752  1.00  0.00     0.186 HD
HETATM   11  C9  UNL     1     -35.666  59.216  76.213  1.00  0.00     0.182 A 
HETATM   12  N12 UNL     1     -36.284  59.198  77.420  1.00  0.00    -0.172 N 
ATOM     13  H12 UNL     1     -37.289  59.117  77.580  1.00  0.00     0.186 HD
ENDROOT
BRANCH   7  14
HETATM   14  C3  UNL     1     -33.006  59.349  72.991  1.00  0.00     0.195 C 
BRANCH  14  15
HETATM   15  C4  UNL     1     -31.622  59.549  73.541  1.00  0.00     0.198 C 
BRANCH  15  16
HETATM   16  O1  UNL     1     -30.870  58.542  73.869  1.00  0.00    -0.343 OA
BRANCH  16  17
HETATM   17  C5  UNL     1     -30.770  57.728  74.860  1.00  0.00     0.254 C 
BRANCH  17  18
HETATM   18  N5  UNL     1     -31.441  56.452  74.895  1.00  0.00    -0.215 N 
HETATM   19  N6  UNL     1     -31.692  55.663  73.876  1.00  0.00    -0.219 N 
HETATM   20  N7  UNL     1     -32.341  54.622  74.312  1.00  0.00    -0.226 N 
ATOM     21  H6  UNL     1     -31.425  55.836  72.907  1.00  0.00     0.210 HD
HETATM   22  N8  UNL     1     -32.519  54.719  75.608  1.00  0.00    -0.270 N 
ATOM     23  H7  UNL     1     -32.663  53.846  73.733  1.00  0.00     0.210 HD
HETATM   24  C6  UNL     1     -31.945  55.888  75.984  1.00  0.00     0.147 A 
ATOM     25  H8  UNL     1     -32.996  54.049  76.212  1.00  0.00     0.190 HD
BRANCH  24  26
HETATM   26  C7  UNL     1     -31.926  56.318  77.412  1.00  0.00     0.309 C 
BRANCH  26  27
HETATM   27  N9  UNL     1     -33.205  55.967  78.052  1.00  0.00    -0.073 N 
ATOM     28  H93 UNL     1     -33.828  56.770  78.131  1.00  0.00     0.274 HD
ATOM     29  H92 UNL     1     -33.789  55.387  77.451  1.00  0.00     0.274 HD
ATOM     30  H91 UNL     1     -33.027  55.527  78.955  1.00  0.00     0.274 HD
ENDBRANCH  26  27
ENDBRANCH  24  26
ENDBRANCH  17  18
ENDBRANCH  16  17
ENDBRANCH  15  16
ENDBRANCH  14  15
ENDBRANCH   7  14
BRANCH   8  31
HETATM   31  N10 UNL     1     -35.721  59.113  72.755  1.00  0.00    -0.233 N 
ATOM     32 2H10 UNL     1     -36.362  59.867  72.510  1.00  0.00     0.174 HD
ATOM     33 1H10 UNL     1     -35.494  58.351  72.117  1.00  0.00     0.174 HD
ENDBRANCH   8  31
BRANCH   1  34
HETATM   34  N1  UNL     1     -35.552  59.323  79.644  1.00  0.00    -0.234 N 
ATOM     35  H12 UNL     1     -36.333  58.873  80.120  1.00  0.00     0.174 HD
ATOM     36  H11 UNL     1     -34.975  59.785  80.347  1.00  0.00     0.174 HD
ENDBRANCH   1  34
TORSDOF 9
ENDMDL
MODEL 3
REMARK VINA RESULT: -6.307554047      1.488      2.177
REMARK  9 active torsions:
REMARK  status: ('A' for Active; 'I' for Inactive)
REMARK    1  A    between atoms: N1_1  and  C1_4 
REMARK    2  A    between atoms: N4_10  and  C3_11 
REMARK    3  A    between atoms: C3_11  and  C4_12 
REMARK    4  A    between atoms: C4_12  and  O1_13 
REMARK    5  A    between atoms: O1_13  and  C5_14 
REMARK    6  A    between atoms: C5_14  and  N5_15 
REMARK    7  A    between atoms: C6_22  and  C7_23 
REMARK    8  A    between atoms: C7_23  and  N9_24 
REMARK    9  A    between atoms: C8_28  and  N10_29 
ROOT
HETATM    1  C1  UNL     1     -34.990  60.024  78.123  1.00  0.00     0.679 A 
HETATM    2  N2  UNL     1     -34.174  59.932  77.064  1.00  0.00    -0.172 N 
ATOM      3  H2  UNL     1     -33.176  60.145  77.072  1.00  0.00     0.186 HD
HETATM    4  C2  UNL     1     -34.870  59.517  75.988  1.00  0.00     0.181 A 
HETATM    5  N3  UNL     1     -34.533  59.265  74.691  1.00  0.00    -0.265 N 
ATOM      6  H3  UNL     1     -33.569  59.392  74.385  1.00  0.00     0.189 HD
HETATM    7  N4  UNL     1     -35.448  58.857  73.826  1.00  0.00    -0.120 N 
HETATM    8  C8  UNL     1     -36.704  58.698  74.249  1.00  0.00     0.694 A 
HETATM    9  N11 UNL     1     -37.085  58.936  75.523  1.00  0.00    -0.171 N 
ATOM     10  H11 UNL     1     -38.057  58.802  75.805  1.00  0.00     0.186 HD
HETATM   11  C9  UNL     1     -36.171  59.350  76.415  1.00  0.00     0.182 A 
HETATM   12  N12 UNL     1     -36.227  59.667  77.733  1.00  0.00    -0.172 N 
ATOM     13  H12 UNL     1     -37.058  59.638  78.323  1.00  0.00     0.186 HD
ENDROOT
BRANCH   7  14
HETATM   14  C3  UNL     1     -35.121  58.581  72.442  1.00  0.00     0.195 C 
BRANCH  14  15
HETATM   15  C4  UNL     1     -34.368  57.280  72.436  1.00  0.00     0.198 C 
BRANCH  15  16
HETATM   16  O1  UNL     1     -33.186  57.178  72.962  1.00  0.00    -0.343 OA
BRANCH  16  17
HETATM   17  C5  UNL     1     -32.592  56.395  73.794  1.00  0.00     0.254 C 
BRANCH  17  18
HETATM   18  N5  UNL     1     -32.329  56.765  75.162  1.00  0.00    -0.215 N 
HETATM   19  N6  UNL     1     -32.960  56.338  76.232  1.00  0.00    -0.219 N 
HETATM   20  N7  UNL     1     -32.448  56.928  77.274  1.00  0.00    -0.226 N 
ATOM     21  H6  UNL     1     -33.722  55.661  76.245  1.00  0.00     0.210 HD
HETATM   22  N8  UNL     1     -31.487  57.738  76.899  1.00  0.00    -0.270 N 
ATOM     23  H7  UNL     1     -32.749  56.783  78.238  1.00  0.00     0.210 HD
HETATM   24  C6  UNL     1     -31.407  57.636  75.550  1.00  0.00     0.147 A 
ATOM     25  H8  UNL     1     -30.913  58.328  77.503  1.00  0.00     0.190 HD
BRANCH  24  26
HETATM   26  C7  UNL     1     -30.389  58.400  74.774  1.00  0.00     0.309 C 
BRANCH  26  27
HETATM   27  N9  UNL     1     -31.063  59.366  73.890  1.00  0.00    -0.073 N 
ATOM     28  H93 UNL     1     -32.076  59.354  74.008  1.00  0.00     0.274 HD
ATOM     29  H92 UNL     1     -30.894  60.331  74.174  1.00  0.00     0.274 HD
ATOM     30  H91 UNL     1     -30.787  59.197  72.922  1.00  0.00     0.274 HD
ENDBRANCH  26  27
ENDBRANCH  24  26
ENDBRANCH  17  18
ENDBRANCH  16  17
ENDBRANCH  15  16
ENDBRANCH  14  15
ENDBRANCH   7  14
BRANCH   8  31
HETATM   31  N10 UNL     1     -37.643  58.304  73.464  1.00  0.00    -0.233 N 
ATOM     32 2H10 UNL     1     -38.423  57.834  73.923  1.00  0.00     0.174 HD
ATOM     33 1H10 UNL     1     -37.605  58.455  72.456  1.00  0.00     0.174 HD
ENDBRANCH   8  31
BRANCH   1  34
HETATM   34  N1  UNL     1     -34.657  60.392  79.316  1.00  0.00    -0.234 N 
ATOM     35  H12 UNL     1     -33.761  60.204  79.766  1.00  0.00     0.174 HD
ATOM     36  H11 UNL     1     -35.237  60.917  79.971  1.00  0.00     0.174 HD
ENDBRANCH   1  34
TORSDOF 9
ENDMDL
MODEL 4
REMARK VINA RESULT: -6.289715930      1.291      1.455
REMARK  9 active torsions:
REMARK  status: ('A' for Active; 'I' for Inactive)
REMARK    1  A    between atoms: N1_1  and  C1_4 
REMARK    2  A    between atoms: N4_10  and  C3_11 
REMARK    3  A    between atoms: C3_11  and  C4_12 
REMARK    4  A    between atoms: C4_12  and  O1_13 
REMARK    5  A    between atoms: O1_13  and  C5_14 
REMARK    6  A    between atoms: C5_14  and  N5_15 
REMARK    7  A    between atoms: C6_22  and  C7_23 
REMARK    8  A    between atoms: C7_23  and  N9_24 
REMARK    9  A    between atoms: C8_28  and  N10_29 
ROOT
HETATM    1  C1  UNL     1     -35.034  60.018  78.432  1.00  0.00     0.679 A 
HETATM    2  N2  UNL     1     -34.151  59.650  77.493  1.00  0.00    -0.172 N 
ATOM      3  H2  UNL     1     -33.138  59.635  77.612  1.00  0.00     0.186 HD
HETATM    4  C2  UNL     1     -34.803  59.302  76.367  1.00  0.00     0.181 A 
HETATM    5  N3  UNL     1     -34.396  58.862  75.142  1.00  0.00    -0.265 N 
ATOM      6  H3  UNL     1     -33.401  58.743  74.953  1.00  0.00     0.189 HD
HETATM    7  N4  UNL     1     -35.281  58.589  74.197  1.00  0.00    -0.120 N 
HETATM    8  C8  UNL     1     -36.579  58.752  74.467  1.00  0.00     0.694 A 
HETATM    9  N11 UNL     1     -37.030  59.186  75.665  1.00  0.00    -0.171 N 
ATOM     10  H11 UNL     1     -38.031  59.298  75.829  1.00  0.00     0.186 HD
HETATM   11  C9  UNL     1     -36.147  59.467  76.635  1.00  0.00     0.182 A 
HETATM   12  N12 UNL     1     -36.270  59.909  77.912  1.00  0.00    -0.172 N 
ATOM     13  H12 UNL     1     -37.144  60.121  78.393  1.00  0.00     0.186 HD
ENDROOT
BRANCH   7  14
HETATM   14  C3  UNL     1     -34.879  58.120  72.887  1.00  0.00     0.195 C 
BRANCH  14  15
HETATM   15  C4  UNL     1     -33.725  57.184  73.107  1.00  0.00     0.198 C 
BRANCH  15  16
HETATM   16  O1  UNL     1     -32.528  57.626  73.347  1.00  0.00    -0.343 OA
BRANCH  16  17
HETATM   17  C5  UNL     1     -31.506  57.246  74.031  1.00  0.00     0.254 C 
BRANCH  17  18
HETATM   18  N5  UNL     1     -31.578  56.936  75.438  1.00  0.00    -0.215 N 
HETATM   19  N6  UNL     1     -31.413  57.768  76.440  1.00  0.00    -0.219 N 
HETATM   20  N7  UNL     1     -31.525  57.098  77.552  1.00  0.00    -0.226 N 
ATOM     21  H6  UNL     1     -31.230  58.768  76.362  1.00  0.00     0.210 HD
HETATM   22  N8  UNL     1     -31.760  55.835  77.289  1.00  0.00    -0.270 N 
ATOM     23  H7  UNL     1     -31.441  57.497  78.488  1.00  0.00     0.210 HD
HETATM   24  C6  UNL     1     -31.796  55.727  75.939  1.00  0.00     0.147 A 
ATOM     25  H8  UNL     1     -31.891  55.084  77.967  1.00  0.00     0.190 HD
BRANCH  24  26
HETATM   26  C7  UNL     1     -32.078  54.423  75.273  1.00  0.00     0.309 C 
BRANCH  26  27
HETATM   27  N9  UNL     1     -30.810  53.760  74.926  1.00  0.00    -0.073 N 
ATOM     28  H93 UNL     1     -30.357  54.193  74.121  1.00  0.00     0.274 HD
ATOM     29  H92 UNL     1     -30.081  53.938  75.617  1.00  0.00     0.274 HD
ATOM     30  H91 UNL     1     -30.972  52.763  74.785  1.00  0.00     0.274 HD
ENDBRANCH  26  27
ENDBRANCH  24  26
ENDBRANCH  17  18
ENDBRANCH  16  17
ENDBRANCH  15  16
ENDBRANCH  14  15
ENDBRANCH   7  14
BRANCH   8  31
HETATM   31  N10 UNL     1     -37.492  58.506  73.597  1.00  0.00    -0.233 N 
ATOM     32 2H10 UNL     1     -38.375  58.168  73.979  1.00  0.00     0.174 HD
ATOM     33 1H10 UNL     1     -37.339  58.642  72.598  1.00  0.00     0.174 HD
ENDBRANCH   8  31
BRANCH   1  34
HETATM   34  N1  UNL     1     -34.755  60.412  79.631  1.00  0.00    -0.234 N 
ATOM     35  H12 UNL     1     -33.823  60.627  79.982  1.00  0.00     0.174 HD
ATOM     36  H11 UNL     1     -35.423  60.561  80.388  1.00  0.00     0.174 HD
ENDBRANCH   1  34
TORSDOF 9
ENDMDL
MODEL 5
REMARK VINA RESULT: -6.188016903      1.857      2.709
REMARK  9 active torsions:
REMARK  status: ('A' for Active; 'I' for Inactive)
REMARK    1  A    between atoms: N1_1  and  C1_4 
REMARK    2  A    between atoms: N4_10  and  C3_11 
REMARK    3  A    between atoms: C3_11  and  C4_12 
REMARK    4  A    between atoms: C4_12  and  O1_13 
REMARK    5  A    between atoms: O1_13  and  C5_14 
REMARK    6  A    between atoms: C5_14  and  N5_15 
REMARK    7  A    between atoms: C6_22  and  C7_23 
REMARK    8  A    between atoms: C7_23  and  N9_24 
REMARK    9  A    between atoms: C8_28  and  N10_29 
ROOT
HETATM    1  C1  UNL     1     -34.980  59.712  77.746  1.00  0.00     0.679 A 
HETATM    2  N2  UNL     1     -34.289  58.998  76.846  1.00  0.00    -0.172 N 
ATOM      3  H2  UNL     1     -33.320  58.698  76.953  1.00  0.00     0.186 HD
HETATM    4  C2  UNL     1     -35.068  58.736  75.779  1.00  0.00     0.181 A 
HETATM    5  N3  UNL     1     -34.866  58.063  74.610  1.00  0.00    -0.265 N 
ATOM      6  H3  UNL     1     -33.959  57.636  74.424  1.00  0.00     0.189 HD
HETATM    7  N4  UNL     1     -35.836  57.961  73.717  1.00  0.00    -0.120 N 
HETATM    8  C8  UNL     1     -37.015  58.529  73.982  1.00  0.00     0.694 A 
HETATM    9  N11 UNL     1     -37.262  59.205  75.125  1.00  0.00    -0.171 N 
ATOM     10  H11 UNL     1     -38.178  59.626  75.289  1.00  0.00     0.186 HD
HETATM   11  C9  UNL     1     -36.290  59.319  76.044  1.00  0.00     0.182 A 
HETATM   12  N12 UNL     1     -36.217  59.916  77.260  1.00  0.00    -0.172 N 
ATOM     13  H12 UNL     1     -36.968  60.428  77.724  1.00  0.00     0.186 HD
ENDROOT
BRANCH   7  14
HETATM   14  C3  UNL     1     -35.651  57.252  72.466  1.00  0.00     0.195 C 
BRANCH  14  15
HETATM   15  C4  UNL     1     -34.170  57.199  72.224  1.00  0.00     0.198 C 
BRANCH  15  16
HETATM   16  O1  UNL     1     -33.443  56.223  72.676  1.00  0.00    -0.343 OA
BRANCH  16  17
HETATM   17  C5  UNL     1     -32.247  56.073  73.128  1.00  0.00     0.254 C 
BRANCH  17  18
HETATM   18  N5  UNL     1     -31.553  57.103  73.860  1.00  0.00    -0.215 N 
HETATM   19  N6  UNL     1     -31.010  58.193  73.369  1.00  0.00    -0.219 N 
HETATM   20  N7  UNL     1     -30.453  58.851  74.346  1.00  0.00    -0.226 N 
ATOM     21  H6  UNL     1     -31.022  58.477  72.390  1.00  0.00     0.210 HD
HETATM   22  N8  UNL     1     -30.625  58.203  75.473  1.00  0.00    -0.270 N 
ATOM     23  H7  UNL     1     -29.958  59.738  74.249  1.00  0.00     0.210 HD
HETATM   24  C6  UNL     1     -31.329  57.086  75.167  1.00  0.00     0.147 A 
ATOM     25  H8  UNL     1     -30.295  58.485  76.397  1.00  0.00     0.190 HD
BRANCH  24  26
HETATM   26  C7  UNL     1     -31.739  56.115  76.222  1.00  0.00     0.309 C 
BRANCH  26  27
HETATM   27  N9  UNL     1     -31.607  56.740  77.549  1.00  0.00    -0.073 N 
ATOM     28  H93 UNL     1     -31.197  57.672  77.495  1.00  0.00     0.274 HD
ATOM     29  H92 UNL     1     -32.511  57.000  77.943  1.00  0.00     0.274 HD
ATOM     30  H91 UNL     1     -31.081  56.123  78.168  1.00  0.00     0.274 HD
ENDBRANCH  26  27
ENDBRANCH  24  26
ENDBRANCH  17  18
ENDBRANCH  16  17
ENDBRANCH  15  16
ENDBRANCH  14  15
ENDBRANCH   7  14
BRANCH   8  31
HETATM   31  N10 UNL     1     -38.001  58.469  73.160  1.00  0.00    -0.233 N 
ATOM     32 2H10 UNL     1     -37.877  57.822  72.381  1.00  0.00     0.174 HD
ATOM     33 1H10 UNL     1     -38.844  59.030  73.284  1.00  0.00     0.174 HD
ENDBRANCH   8  31
BRANCH   1  34
HETATM   34  N1  UNL     1     -34.542  60.135  78.886  1.00  0.00    -0.234 N 
ATOM     35  H12 UNL     1     -33.757  59.740  79.403  1.00  0.00     0.174 HD
ATOM     36  H11 UNL     1     -34.915  60.918  79.424  1.00  0.00     0.174 HD
ENDBRANCH   1  34
TORSDOF 9
ENDMDL
