MODEL 1
REMARK VINA RESULT: -4.338805796      0.000      0.000
REMARK  2 active torsions:
REMARK  status: ('A' for Active; 'I' for Inactive)
REMARK    1  A    between atoms: O1_1  and  C1_3 
REMARK    2  A    between atoms: C6_9  and  O3_10 
ROOT
HETATM    1  C1  UNL     1      10.490   0.746  15.266  1.00  0.00     0.173 C 
HETATM    2  C2  UNL     1      10.422   1.540  13.985  1.00  0.00     0.036 C 
HETATM    3  C3  UNL     1       9.789   2.878  14.148  1.00  0.00     0.005 C 
HETATM    4  C4  UNL     1       9.895   3.447  15.531  1.00  0.00     0.026 C 
HETATM    5  C5  UNL     1      11.285   3.541  16.055  1.00  0.00     0.171 C 
HETATM    6  O2  UNL     1      12.093   2.471  15.751  1.00  0.00    -0.359 OA
HETATM    7  C6  UNL     1      11.603   1.250  16.137  1.00  0.00     0.285 C 
ENDROOT
BRANCH   1   8
HETATM    8  O1  UNL     1      10.678  -0.595  14.896  1.00  0.00    -0.391 OA
ATOM      9  H1  UNL     1       9.900  -1.064  15.173  1.00  0.00     0.210 HD
ENDBRANCH   1   8
BRANCH   7  10
HETATM   10  O3  UNL     1      11.202   1.194  17.465  1.00  0.00    -0.369 OA
ATOM     11  H3  UNL     1      11.030   2.076  17.776  1.00  0.00     0.212 HD
ENDBRANCH   7  10
TORSDOF 2
ENDMDL
MODEL 2
REMARK VINA RESULT: -4.236307230      6.787      7.591
REMARK  2 active torsions:
REMARK  status: ('A' for Active; 'I' for Inactive)
REMARK    1  A    between atoms: O1_1  and  C1_3 
REMARK    2  A    between atoms: C6_9  and  O3_10 
ROOT
HETATM    1  C1  UNL     1      17.380   1.060  19.304  1.00  0.00     0.173 C 
HETATM    2  C2  UNL     1      15.965   1.332  18.859  1.00  0.00     0.036 C 
HETATM    3  C3  UNL     1      15.228   2.265  19.756  1.00  0.00     0.005 C 
HETATM    4  C4  UNL     1      16.107   3.209  20.520  1.00  0.00     0.026 C 
HETATM    5  C5  UNL     1      17.020   4.026  19.674  1.00  0.00     0.171 C 
HETATM    6  O2  UNL     1      17.587   3.354  18.617  1.00  0.00    -0.359 OA
HETATM    7  C6  UNL     1      18.271   2.216  18.957  1.00  0.00     0.285 C 
ENDROOT
BRANCH   1   8
HETATM    8  O1  UNL     1      17.780  -0.123  18.663  1.00  0.00    -0.391 OA
ATOM      9  H1  UNL     1      18.555   0.093  18.156  1.00  0.00     0.210 HD
ENDBRANCH   1   8
BRANCH   7  10
HETATM   10  O3  UNL     1      19.200   2.395  19.973  1.00  0.00    -0.369 OA
ATOM     11  H3  UNL     1      18.747   2.425  20.808  1.00  0.00     0.212 HD
ENDBRANCH   7  10
TORSDOF 2
ENDMDL
MODEL 3
REMARK VINA RESULT: -4.201438982      1.569      2.753
REMARK  2 active torsions:
REMARK  status: ('A' for Active; 'I' for Inactive)
REMARK    1  A    between atoms: O1_1  and  C1_3 
REMARK    2  A    between atoms: C6_9  and  O3_10 
ROOT
HETATM    1  C1  UNL     1      11.815   1.438  14.668  1.00  0.00     0.173 C 
HETATM    2  C2  UNL     1      11.372   2.249  15.862  1.00  0.00     0.036 C 
HETATM    3  C3  UNL     1      10.578   3.455  15.499  1.00  0.00     0.005 C 
HETATM    4  C4  UNL     1       9.854   3.347  14.191  1.00  0.00     0.026 C 
HETATM    5  C5  UNL     1       8.954   2.166  14.078  1.00  0.00     0.171 C 
HETATM    6  O2  UNL     1       9.451   1.005  14.620  1.00  0.00    -0.359 OA
HETATM    7  C6  UNL     1      10.675   0.621  14.137  1.00  0.00     0.285 C 
ENDROOT
BRANCH   1   8
HETATM    8  O1  UNL     1      12.880   0.635  15.104  1.00  0.00    -0.391 OA
ATOM      9  H1  UNL     1      12.774  -0.209  14.681  1.00  0.00     0.210 HD
ENDBRANCH   1   8
BRANCH   7  10
HETATM   10  O3  UNL     1      10.751   0.582  12.751  1.00  0.00    -0.369 OA
ATOM     11  H3  UNL     1       9.912   0.840  12.386  1.00  0.00     0.212 HD
ENDBRANCH   7  10
TORSDOF 2
ENDMDL
MODEL 4
REMARK VINA RESULT: -4.198473948      1.441      2.260
REMARK  2 active torsions:
REMARK  status: ('A' for Active; 'I' for Inactive)
REMARK    1  A    between atoms: O1_1  and  C1_3 
REMARK    2  A    between atoms: C6_9  and  O3_10 
ROOT
HETATM    1  C1  UNL     1       9.657   1.730  14.776  1.00  0.00     0.173 C 
HETATM    2  C2  UNL     1      10.169   3.149  14.748  1.00  0.00     0.036 C 
HETATM    3  C3  UNL     1      10.951   3.523  15.959  1.00  0.00     0.005 C 
HETATM    4  C4  UNL     1      11.602   2.367  16.654  1.00  0.00     0.026 C 
HETATM    5  C5  UNL     1      12.487   1.543  15.786  1.00  0.00     0.171 C 
HETATM    6  O2  UNL     1      12.012   1.325  14.514  1.00  0.00    -0.359 OA
HETATM    7  C6  UNL     1      10.761   0.767  14.453  1.00  0.00     0.285 C 
ENDROOT
BRANCH   1   8
HETATM    8  O1  UNL     1       8.612   1.663  13.842  1.00  0.00    -0.391 OA
ATOM      9  H1  UNL     1       7.858   2.073  14.249  1.00  0.00     0.210 HD
ENDBRANCH   1   8
BRANCH   7  10
HETATM   10  O3  UNL     1      10.611  -0.374  15.229  1.00  0.00    -0.369 OA
ATOM     11  H3  UNL     1       9.757  -0.755  15.061  1.00  0.00     0.212 HD
ENDBRANCH   7  10
TORSDOF 2
ENDMDL
MODEL 5
REMARK VINA RESULT: -4.167614990      2.172      3.038
REMARK  2 active torsions:
REMARK  status: ('A' for Active; 'I' for Inactive)
REMARK    1  A    between atoms: O1_1  and  C1_3 
REMARK    2  A    between atoms: C6_9  and  O3_10 
ROOT
HETATM    1  C1  UNL     1      10.612   1.488  13.526  1.00  0.00     0.173 C 
HETATM    2  C2  UNL     1      10.603   0.953  14.937  1.00  0.00     0.036 C 
HETATM    3  C3  UNL     1      10.875   1.992  15.968  1.00  0.00     0.005 C 
HETATM    4  C4  UNL     1      10.509   3.384  15.553  1.00  0.00     0.026 C 
HETATM    5  C5  UNL     1       9.095   3.547  15.115  1.00  0.00     0.171 C 
HETATM    6  O2  UNL     1       8.602   2.514  14.355  1.00  0.00    -0.359 OA
HETATM    7  C6  UNL     1       9.336   2.220  13.234  1.00  0.00     0.285 C 
ENDROOT
BRANCH   1   8
HETATM    8  O1  UNL     1      10.788   0.382  12.680  1.00  0.00    -0.391 OA
ATOM      9  H1  UNL     1      10.046   0.373  12.087  1.00  0.00     0.210 HD
ENDBRANCH   1   8
BRANCH   7  10
HETATM   10  O3  UNL     1       9.615   3.321  12.435  1.00  0.00    -0.369 OA
ATOM     11  H3  UNL     1      10.267   3.861  12.867  1.00  0.00     0.212 HD
ENDBRANCH   7  10
TORSDOF 2
ENDMDL
