MODEL 1
REMARK VINA RESULT: -3.890382601      0.000      0.000
REMARK  2 active torsions:
REMARK  status: ('A' for Active; 'I' for Inactive)
REMARK    1  A    between atoms: O1_1  and  C1_3 
REMARK    2  A    between atoms: C3_6  and  O2_7 
ROOT
HETATM    1  C1  UNL     1      17.647  -1.007  20.539  1.00  0.00     0.266 C 
HETATM    2  C2  UNL     1      18.004   0.226  21.360  1.00  0.00     0.137 C 
HETATM    3  S1  UNL     1      18.505   1.577  20.220  1.00  0.00    -0.131 SA
HETATM    4  C3  UNL     1      17.114   1.681  19.029  1.00  0.00     0.203 C 
HETATM    5  C4  UNL     1      16.593   0.248  18.907  1.00  0.00     0.213 C 
HETATM    6  O3  UNL     1      17.587  -0.682  19.193  1.00  0.00    -0.357 OA
ENDROOT
BRANCH   1   7
HETATM    7  O1  UNL     1      18.626  -1.990  20.685  1.00  0.00    -0.370 OA
ATOM      8  H1  UNL     1      18.231  -2.854  20.687  1.00  0.00     0.212 HD
ENDBRANCH   1   7
BRANCH   4   9
HETATM    9  O2  UNL     1      16.093   2.484  19.529  1.00  0.00    -0.383 OA
ATOM     10  H2  UNL     1      15.374   2.539  18.912  1.00  0.00     0.211 HD
ENDBRANCH   4   9
TORSDOF 2
ENDMDL
MODEL 2
REMARK VINA RESULT: -3.874171980      7.335      8.251
REMARK  2 active torsions:
REMARK  status: ('A' for Active; 'I' for Inactive)
REMARK    1  A    between atoms: O1_1  and  C1_3 
REMARK    2  A    between atoms: C3_6  and  O2_7 
ROOT
HETATM    1  C1  UNL     1      11.832  -0.308  13.818  1.00  0.00     0.266 C 
HETATM    2  C2  UNL     1      12.837   0.644  14.455  1.00  0.00     0.137 C 
HETATM    3  S1  UNL     1      11.931   2.056  15.201  1.00  0.00    -0.131 SA
HETATM    4  C3  UNL     1      10.674   1.254  16.269  1.00  0.00     0.203 C 
HETATM    5  C4  UNL     1      10.321  -0.049  15.550  1.00  0.00     0.213 C 
HETATM    6  O3  UNL     1      10.542   0.050  14.180  1.00  0.00    -0.357 OA
ENDROOT
BRANCH   1   7
HETATM    7  O1  UNL     1      11.907  -0.236  12.427  1.00  0.00    -0.370 OA
ATOM      8  H1  UNL     1      12.787  -0.439  12.131  1.00  0.00     0.212 HD
ENDBRANCH   1   7
BRANCH   4   9
HETATM    9  O2  UNL     1      11.211   0.942  17.515  1.00  0.00    -0.383 OA
ATOM     10  H2  UNL     1      11.953   1.502  17.712  1.00  0.00     0.211 HD
ENDBRANCH   4   9
TORSDOF 2
ENDMDL
MODEL 3
REMARK VINA RESULT: -3.832771622      8.384      9.678
REMARK  2 active torsions:
REMARK  status: ('A' for Active; 'I' for Inactive)
REMARK    1  A    between atoms: O1_1  and  C1_3 
REMARK    2  A    between atoms: C3_6  and  O2_7 
ROOT
HETATM    1  C1  UNL     1      10.073   1.721  12.595  1.00  0.00     0.266 C 
HETATM    2  C2  UNL     1       9.997   2.329  13.990  1.00  0.00     0.137 C 
HETATM    3  S1  UNL     1      10.428   1.040  15.226  1.00  0.00    -0.131 SA
HETATM    4  C3  UNL     1      12.035   0.386  14.634  1.00  0.00     0.203 C 
HETATM    5  C4  UNL     1      11.967   0.498  13.110  1.00  0.00     0.213 C 
HETATM    6  O3  UNL     1      10.653   0.463  12.655  1.00  0.00    -0.357 OA
ENDROOT
BRANCH   1   7
HETATM    7  O1  UNL     1       8.793   1.562  12.062  1.00  0.00    -0.370 OA
ATOM      8  H1  UNL     1       8.793   1.765  11.134  1.00  0.00     0.212 HD
ENDBRANCH   1   7
BRANCH   4   9
HETATM    9  O2  UNL     1      13.088   1.174  15.091  1.00  0.00    -0.383 OA
ATOM     10  H2  UNL     1      13.764   1.250  14.427  1.00  0.00     0.211 HD
ENDBRANCH   4   9
TORSDOF 2
ENDMDL
MODEL 4
REMARK VINA RESULT: -3.743828890      1.001      1.088
REMARK  2 active torsions:
REMARK  status: ('A' for Active; 'I' for Inactive)
REMARK    1  A    between atoms: O1_1  and  C1_3 
REMARK    2  A    between atoms: C3_6  and  O2_7 
ROOT
HETATM    1  C1  UNL     1      17.405  -0.708  20.193  1.00  0.00     0.266 C 
HETATM    2  C2  UNL     1      17.774  -0.008  21.495  1.00  0.00     0.137 C 
HETATM    3  S1  UNL     1      18.999   1.313  21.136  1.00  0.00    -0.131 SA
HETATM    4  C3  UNL     1      18.208   2.290  19.800  1.00  0.00     0.203 C 
HETATM    5  C4  UNL     1      17.390   1.274  19.002  1.00  0.00     0.213 C 
HETATM    6  O3  UNL     1      17.920  -0.007  19.113  1.00  0.00    -0.357 OA
ENDROOT
BRANCH   1   7
HETATM    7  O1  UNL     1      17.956  -1.990  20.156  1.00  0.00    -0.370 OA
ATOM      8  H1  UNL     1      17.631  -2.512  20.880  1.00  0.00     0.212 HD
ENDBRANCH   1   7
BRANCH   4   9
HETATM    9  O2  UNL     1      17.340   3.241  20.330  1.00  0.00    -0.383 OA
ATOM     10  H2  UNL     1      16.440   2.945  20.273  1.00  0.00     0.211 HD
ENDBRANCH   4   9
TORSDOF 2
ENDMDL
MODEL 5
REMARK VINA RESULT: -3.608568638      3.955      4.562
REMARK  2 active torsions:
REMARK  status: ('A' for Active; 'I' for Inactive)
REMARK    1  A    between atoms: O1_1  and  C1_3 
REMARK    2  A    between atoms: C3_6  and  O2_7 
ROOT
HETATM    1  C1  UNL     1      16.757   3.269  19.284  1.00  0.00     0.266 C 
HETATM    2  C2  UNL     1      17.076   3.919  20.625  1.00  0.00     0.137 C 
HETATM    3  S1  UNL     1      16.023   5.410  20.831  1.00  0.00    -0.131 SA
HETATM    4  C3  UNL     1      14.324   4.789  20.533  1.00  0.00     0.203 C 
HETATM    5  C4  UNL     1      14.489   3.668  19.505  1.00  0.00     0.213 C 
HETATM    6  O3  UNL     1      15.629   3.853  18.729  1.00  0.00    -0.357 OA
ENDROOT
BRANCH   1   7
HETATM    7  O1  UNL     1      17.808   3.461  18.387  1.00  0.00    -0.370 OA
ATOM      8  H1  UNL     1      18.602   3.695  18.852  1.00  0.00     0.212 HD
ENDBRANCH   1   7
BRANCH   4   9
HETATM    9  O2  UNL     1      13.783   4.248  21.696  1.00  0.00    -0.383 OA
ATOM     10  H2  UNL     1      13.356   3.420  21.516  1.00  0.00     0.211 HD
ENDBRANCH   4   9
TORSDOF 2
ENDMDL
