MODEL 1
REMARK VINA RESULT: -4.453908303      0.000      0.000
REMARK  4 active torsions:
REMARK  status: ('A' for Active; 'I' for Inactive)
REMARK    1  A    between atoms: O1_2  and  C2_3 
REMARK    2  A    between atoms: C2_3  and  N2_8 
REMARK    3  A    between atoms: N1_4  and  O2_6 
REMARK    4  A    between atoms: N2_8  and  N3_10 
ROOT
HETATM    1  C2  UNL     1      11.470   0.105  13.583  1.00  0.00     0.254 C 
HETATM    2  N1  UNL     1      11.178  -0.838  14.432  1.00  0.00    -0.232 N 
ATOM      3  H1  UNL     1      11.624  -1.755  14.384  1.00  0.00     0.198 HD
ENDROOT
BRANCH   1   4
HETATM    4  O1  UNL     1      12.415  -0.218  12.624  1.00  0.00    -0.325 OA
HETATM    5  C1  UNL     1      13.796   0.031  12.782  1.00  0.00     0.213 C 
ENDBRANCH   1   4
BRANCH   1   6
HETATM    6  N2  UNL     1      10.857   1.392  13.634  1.00  0.00    -0.284 N 
ATOM      7  H2  UNL     1      11.453   2.199  13.816  1.00  0.00     0.184 HD
BRANCH   6   8
HETATM    8  N3  UNL     1       9.502   1.614  13.452  1.00  0.00    -0.237 NA
HETATM    9  C3  UNL     1       9.170   2.107  12.142  1.00  0.00     0.135 C 
HETATM   10  C4  UNL     1       9.103   2.646  14.412  1.00  0.00     0.135 C 
ENDBRANCH   6   8
ENDBRANCH   1   6
BRANCH   2  11
HETATM   11  O2  UNL     1      10.247  -0.549  15.392  1.00  0.00    -0.287 OA
ATOM     12  H2  UNL     1      10.553  -0.100  16.172  1.00  0.00     0.244 HD
ENDBRANCH   2  11
TORSDOF 4
ENDMDL
MODEL 2
REMARK VINA RESULT: -4.299013239      0.626      1.203
REMARK  4 active torsions:
REMARK  status: ('A' for Active; 'I' for Inactive)
REMARK    1  A    between atoms: O1_2  and  C2_3 
REMARK    2  A    between atoms: C2_3  and  N2_8 
REMARK    3  A    between atoms: N1_4  and  O2_6 
REMARK    4  A    between atoms: N2_8  and  N3_10 
ROOT
HETATM    1  C2  UNL     1      11.387   0.080  13.248  1.00  0.00     0.254 C 
HETATM    2  N1  UNL     1      11.447  -0.623  14.343  1.00  0.00    -0.232 N 
ATOM      3  H1  UNL     1      12.274  -1.173  14.576  1.00  0.00     0.198 HD
ENDROOT
BRANCH   1   4
HETATM    4  O1  UNL     1      12.507   0.030  12.436  1.00  0.00    -0.325 OA
HETATM    5  C1  UNL     1      13.825  -0.047  12.938  1.00  0.00     0.213 C 
ENDBRANCH   1   4
BRANCH   1   6
HETATM    6  N2  UNL     1      10.240   0.855  12.904  1.00  0.00    -0.284 N 
ATOM      7  H2  UNL     1       9.481   0.390  12.406  1.00  0.00     0.184 HD
BRANCH   6   8
HETATM    8  N3  UNL     1      10.093   2.199  13.204  1.00  0.00    -0.237 NA
HETATM    9  C3  UNL     1       9.018   2.470  14.120  1.00  0.00     0.135 C 
HETATM   10  C4  UNL     1       9.770   2.885  11.950  1.00  0.00     0.135 C 
ENDBRANCH   6   8
ENDBRANCH   1   6
BRANCH   2  11
HETATM   11  O2  UNL     1      10.355  -0.594  15.166  1.00  0.00    -0.287 OA
ATOM     12  H2  UNL     1      10.320   0.098  15.816  1.00  0.00     0.244 HD
ENDBRANCH   2  11
TORSDOF 4
ENDMDL
MODEL 3
REMARK VINA RESULT: -4.189010681      2.038      2.416
REMARK  4 active torsions:
REMARK  status: ('A' for Active; 'I' for Inactive)
REMARK    1  A    between atoms: O1_2  and  C2_3 
REMARK    2  A    between atoms: C2_3  and  N2_8 
REMARK    3  A    between atoms: N1_4  and  O2_6 
REMARK    4  A    between atoms: N2_8  and  N3_10 
ROOT
HETATM    1  C2  UNL     1      11.760   0.398  14.306  1.00  0.00     0.254 C 
HETATM    2  N1  UNL     1      10.770  -0.432  14.478  1.00  0.00    -0.232 N 
ATOM      3  H1  UNL     1      10.430  -1.019  13.716  1.00  0.00     0.198 HD
ENDROOT
BRANCH   1   4
HETATM    4  O1  UNL     1      12.310   0.426  13.036  1.00  0.00    -0.325 OA
HETATM    5  C1  UNL     1      13.680   0.203  12.779  1.00  0.00     0.213 C 
ENDBRANCH   1   4
BRANCH   1   6
HETATM    6  N2  UNL     1      12.250   1.226  15.358  1.00  0.00    -0.284 N 
ATOM      7  H2  UNL     1      13.257   1.260  15.511  1.00  0.00     0.184 HD
BRANCH   6   8
HETATM    8  N3  UNL     1      11.441   1.987  16.187  1.00  0.00    -0.237 NA
HETATM    9  C3  UNL     1      10.933   3.177  15.559  1.00  0.00     0.135 C 
HETATM   10  C4  UNL     1      12.269   2.419  17.316  1.00  0.00     0.135 C 
ENDBRANCH   6   8
ENDBRANCH   1   6
BRANCH   2  11
HETATM   11  O2  UNL     1      10.206  -0.482  15.723  1.00  0.00    -0.287 OA
ATOM     12  H2  UNL     1      10.459   0.192  16.342  1.00  0.00     0.244 HD
ENDBRANCH   2  11
TORSDOF 4
ENDMDL
MODEL 4
REMARK VINA RESULT: -4.139880699      2.008      2.157
REMARK  4 active torsions:
REMARK  status: ('A' for Active; 'I' for Inactive)
REMARK    1  A    between atoms: O1_2  and  C2_3 
REMARK    2  A    between atoms: C2_3  and  N2_8 
REMARK    3  A    between atoms: N1_4  and  O2_6 
REMARK    4  A    between atoms: N2_8  and  N3_10 
ROOT
HETATM    1  C2  UNL     1      10.802   0.888  15.067  1.00  0.00     0.254 C 
HETATM    2  N1  UNL     1      10.429   0.015  15.959  1.00  0.00    -0.232 N 
ATOM      3  H1  UNL     1      11.023  -0.219  16.756  1.00  0.00     0.198 HD
ENDROOT
BRANCH   1   4
HETATM    4  O1  UNL     1      12.042   1.468  15.273  1.00  0.00    -0.325 OA
HETATM    5  C1  UNL     1      12.338   2.294  16.380  1.00  0.00     0.213 C 
ENDBRANCH   1   4
BRANCH   1   6
HETATM    6  N2  UNL     1       9.986   1.228  13.948  1.00  0.00    -0.284 N 
ATOM      7  H2  UNL     1      10.320   0.973  13.018  1.00  0.00     0.184 HD
BRANCH   6   8
HETATM    8  N3  UNL     1       8.769   1.882  14.044  1.00  0.00    -0.237 NA
HETATM    9  C3  UNL     1       8.205   2.238  12.770  1.00  0.00     0.135 C 
HETATM   10  C4  UNL     1       9.010   3.132  14.770  1.00  0.00     0.135 C 
ENDBRANCH   6   8
ENDBRANCH   1   6
BRANCH   2  11
HETATM   11  O2  UNL     1       9.208  -0.576  15.783  1.00  0.00    -0.287 OA
ATOM     12  H2  UNL     1       8.681  -0.725  16.560  1.00  0.00     0.244 HD
ENDBRANCH   2  11
TORSDOF 4
ENDMDL
MODEL 5
REMARK VINA RESULT: -4.062984544      8.357      9.575
REMARK  4 active torsions:
REMARK  status: ('A' for Active; 'I' for Inactive)
REMARK    1  A    between atoms: O1_2  and  C2_3 
REMARK    2  A    between atoms: C2_3  and  N2_8 
REMARK    3  A    between atoms: N1_4  and  O2_6 
REMARK    4  A    between atoms: N2_8  and  N3_10 
ROOT
HETATM    1  C2  UNL     1      16.863  -0.812  19.431  1.00  0.00     0.254 C 
HETATM    2  N1  UNL     1      17.308  -2.035  19.488  1.00  0.00    -0.232 N 
ATOM      3  H1  UNL     1      16.928  -2.768  18.889  1.00  0.00     0.198 HD
ENDROOT
BRANCH   1   4
HETATM    4  O1  UNL     1      15.853  -0.581  18.513  1.00  0.00    -0.325 OA
HETATM    5  C1  UNL     1      15.107   0.617  18.467  1.00  0.00     0.213 C 
ENDBRANCH   1   4
BRANCH   1   6
HETATM    6  N2  UNL     1      17.380   0.226  20.261  1.00  0.00    -0.284 N 
ATOM      7  H2  UNL     1      16.760   0.634  20.960  1.00  0.00     0.184 HD
BRANCH   6   8
HETATM    8  N3  UNL     1      18.673   0.715  20.177  1.00  0.00    -0.237 NA
HETATM    9  C3  UNL     1      19.233   1.085  21.448  1.00  0.00     0.135 C 
HETATM   10  C4  UNL     1      18.620   1.931  19.362  1.00  0.00     0.135 C 
ENDBRANCH   6   8
ENDBRANCH   1   6
BRANCH   2  11
HETATM   11  O2  UNL     1      18.307  -2.295  20.387  1.00  0.00    -0.287 OA
ATOM     12  H2  UNL     1      18.169  -2.014  21.284  1.00  0.00     0.244 HD
ENDBRANCH   2  11
TORSDOF 4
ENDMDL
