MODEL 1
REMARK VINA RESULT: -4.320331174      0.000      0.000
REMARK  1 active torsions:
REMARK  status: ('A' for Active; 'I' for Inactive)
REMARK    1  A    between atoms: N3_9  and  O1_10 
ROOT
HETATM    1  C1  UNL     1      12.217   3.637  16.544  1.00  0.00     0.180 C 
HETATM    2  N1  UNL     1      11.100   2.895  16.213  1.00  0.00    -0.273 N 
HETATM    3  C2  UNL     1      10.044   3.462  15.486  1.00  0.00     0.165 C 
HETATM    4  S1  UNL     1       9.639   2.056  14.357  1.00  0.00    -0.043 SA
HETATM    5  C3  UNL     1      10.547   0.821  15.334  1.00  0.00     0.189 C 
HETATM    6  N2  UNL     1      10.688  -0.402  15.033  1.00  0.00    -0.377 N 
ATOM      7  H21 UNL     1      11.197  -1.094  15.581  1.00  0.00     0.158 HD
ATOM      8  H22 UNL     1      10.356  -0.945  14.236  1.00  0.00     0.158 HD
HETATM    9  N3  UNL     1      11.014   1.586  16.454  1.00  0.00    -0.138 N 
ENDROOT
BRANCH   9  10
HETATM   10  O1  UNL     1      11.336   0.991  17.655  1.00  0.00    -0.266 OA
ATOM     11  H1  UNL     1      10.913   0.214  18.000  1.00  0.00     0.247 HD
ENDBRANCH   9  10
TORSDOF 1
ENDMDL
MODEL 2
REMARK VINA RESULT: -3.751617087      2.352      2.689
REMARK  1 active torsions:
REMARK  status: ('A' for Active; 'I' for Inactive)
REMARK    1  A    between atoms: N3_9  and  O1_10 
ROOT
HETATM    1  C1  UNL     1       8.514   3.699  14.929  1.00  0.00     0.180 C 
HETATM    2  N1  UNL     1       9.690   2.978  14.992  1.00  0.00    -0.273 N 
HETATM    3  C2  UNL     1      10.770   3.421  15.768  1.00  0.00     0.165 C 
HETATM    4  S1  UNL     1      11.334   1.813  16.483  1.00  0.00    -0.043 SA
HETATM    5  C3  UNL     1      10.415   0.795  15.291  1.00  0.00     0.189 C 
HETATM    6  N2  UNL     1      10.360  -0.471  15.287  1.00  0.00    -0.377 N 
ATOM      7  H21 UNL     1       9.844  -1.042  14.618  1.00  0.00     0.158 HD
ATOM      8  H22 UNL     1      10.781  -1.169  15.901  1.00  0.00     0.158 HD
HETATM    9  N3  UNL     1       9.822   1.776  14.428  1.00  0.00    -0.138 N 
ENDROOT
BRANCH   9  10
HETATM   10  O1  UNL     1       9.436   1.471  13.141  1.00  0.00    -0.266 OA
ATOM     11  H1  UNL     1       9.045   2.091  12.536  1.00  0.00     0.247 HD
ENDBRANCH   9  10
TORSDOF 1
ENDMDL
MODEL 3
REMARK VINA RESULT: -3.728880397      7.306      7.613
REMARK  1 active torsions:
REMARK  status: ('A' for Active; 'I' for Inactive)
REMARK    1  A    between atoms: N3_9  and  O1_10 
ROOT
HETATM    1  C1  UNL     1      18.647   1.557  19.860  1.00  0.00     0.180 C 
HETATM    2  N1  UNL     1      17.499   0.789  19.865  1.00  0.00    -0.273 N 
HETATM    3  C2  UNL     1      16.244   1.360  19.612  1.00  0.00     0.165 C 
HETATM    4  S1  UNL     1      15.495   0.040  18.559  1.00  0.00    -0.043 SA
HETATM    5  C3  UNL     1      16.711  -1.226  19.027  1.00  0.00     0.189 C 
HETATM    6  N2  UNL     1      16.761  -2.408  18.573  1.00  0.00    -0.377 N 
ATOM      7  H21 UNL     1      17.444  -3.118  18.836  1.00  0.00     0.158 HD
ATOM      8  H22 UNL     1      16.181  -2.896  17.891  1.00  0.00     0.158 HD
HETATM    9  N3  UNL     1      17.528  -0.539  19.986  1.00  0.00    -0.138 N 
ENDROOT
BRANCH   9  10
HETATM   10  O1  UNL     1      18.264  -1.221  20.932  1.00  0.00    -0.266 OA
ATOM     11  H1  UNL     1      18.543  -2.124  20.847  1.00  0.00     0.247 HD
ENDBRANCH   9  10
TORSDOF 1
ENDMDL
MODEL 4
REMARK VINA RESULT: -3.723465474      2.094      3.014
REMARK  1 active torsions:
REMARK  status: ('A' for Active; 'I' for Inactive)
REMARK    1  A    between atoms: N3_9  and  O1_10 
ROOT
HETATM    1  C1  UNL     1      12.232  -0.372  12.982  1.00  0.00     0.180 C 
HETATM    2  N1  UNL     1      11.744   0.715  13.681  1.00  0.00    -0.273 N 
HETATM    3  C2  UNL     1      10.672   1.470  13.189  1.00  0.00     0.165 C 
HETATM    4  S1  UNL     1       9.737   1.763  14.755  1.00  0.00    -0.043 SA
HETATM    5  C3  UNL     1      11.121   1.300  15.838  1.00  0.00     0.189 C 
HETATM    6  N2  UNL     1      11.087   1.252  17.103  1.00  0.00    -0.377 N 
ATOM      7  H21 UNL     1      11.863   0.992  17.711  1.00  0.00     0.158 HD
ATOM      8  H22 UNL     1      10.336   1.443  17.768  1.00  0.00     0.158 HD
HETATM    9  N3  UNL     1      12.176   1.031  14.903  1.00  0.00    -0.138 N 
ENDROOT
BRANCH   9  10
HETATM   10  O1  UNL     1      13.503   1.101  15.268  1.00  0.00    -0.266 OA
ATOM     11  H1  UNL     1      13.859   0.742  16.073  1.00  0.00     0.247 HD
ENDBRANCH   9  10
TORSDOF 1
ENDMDL
MODEL 5
REMARK VINA RESULT: -3.671368594      2.299      2.717
REMARK  1 active torsions:
REMARK  status: ('A' for Active; 'I' for Inactive)
REMARK    1  A    between atoms: N3_9  and  O1_10 
ROOT
HETATM    1  C1  UNL     1       8.284   4.178  15.242  1.00  0.00     0.180 C 
HETATM    2  N1  UNL     1       9.561   3.654  15.204  1.00  0.00    -0.273 N 
HETATM    3  C2  UNL     1      10.686   4.482  15.312  1.00  0.00     0.165 C 
HETATM    4  S1  UNL     1      11.753   3.436  16.399  1.00  0.00    -0.043 SA
HETATM    5  C3  UNL     1      10.792   1.918  16.127  1.00  0.00     0.189 C 
HETATM    6  N2  UNL     1      11.012   0.795  16.671  1.00  0.00    -0.377 N 
ATOM      7  H21 UNL     1      10.473  -0.056  16.518  1.00  0.00     0.158 HD
ATOM      8  H22 UNL     1      11.721   0.495  17.340  1.00  0.00     0.158 HD
HETATM    9  N3  UNL     1       9.795   2.341  15.186  1.00  0.00    -0.138 N 
ENDROOT
BRANCH   9  10
HETATM   10  O1  UNL     1       9.155   1.445  14.357  1.00  0.00    -0.266 OA
ATOM     11  H1  UNL     1       8.861   1.644  13.475  1.00  0.00     0.247 HD
ENDBRANCH   9  10
TORSDOF 1
ENDMDL
