MODEL 1
REMARK VINA RESULT: -3.970197162      0.000      0.000
REMARK  2 active torsions:
REMARK  status: ('A' for Active; 'I' for Inactive)
REMARK    1  A    between atoms: C3_4  and  O2_5 
REMARK    2  A    between atoms: C4_7  and  O3_8 
ROOT
HETATM    1  C1  UNL     1      11.372   3.519  15.962  1.00  0.00     0.051 C 
HETATM    2  C2  UNL     1      10.803   2.093  15.877  1.00  0.00     0.184 C 
HETATM    3  O1  UNL     1      11.787   1.278  15.475  1.00  0.00    -0.343 OA
HETATM    4  C3  UNL     1      11.607   0.636  14.333  1.00  0.00     0.297 C 
HETATM    5  C4  UNL     1      10.830   1.416  13.330  1.00  0.00     0.236 C 
HETATM    6  S1  UNL     1       9.617   2.186  14.476  1.00  0.00    -0.101 SA
ENDROOT
BRANCH   4   7
HETATM    7  O2  UNL     1      11.021  -0.644  14.474  1.00  0.00    -0.368 OA
ATOM      8  H2  UNL     1      10.519  -0.927  13.719  1.00  0.00     0.212 HD
ENDBRANCH   4   7
BRANCH   5   9
HETATM    9  O3  UNL     1      10.181   0.650  12.398  1.00  0.00    -0.380 OA
ATOM     10  H3  UNL     1       9.623   1.140  11.807  1.00  0.00     0.211 HD
ENDBRANCH   5   9
TORSDOF 2
ENDMDL
MODEL 2
REMARK VINA RESULT: -3.816503941      1.646      2.831
REMARK  2 active torsions:
REMARK  status: ('A' for Active; 'I' for Inactive)
REMARK    1  A    between atoms: C3_4  and  O2_5 
REMARK    2  A    between atoms: C4_7  and  O3_8 
ROOT
HETATM    1  C1  UNL     1       9.168   1.815  12.230  1.00  0.00     0.051 C 
HETATM    2  C2  UNL     1      10.576   1.783  12.847  1.00  0.00     0.184 C 
HETATM    3  O1  UNL     1      10.985   0.508  12.880  1.00  0.00    -0.343 OA
HETATM    4  C3  UNL     1      11.244  -0.010  14.069  1.00  0.00     0.297 C 
HETATM    5  C4  UNL     1      10.368   0.519  15.150  1.00  0.00     0.236 C 
HETATM    6  S1  UNL     1      10.291   2.269  14.596  1.00  0.00    -0.101 SA
ENDROOT
BRANCH   4   7
HETATM    7  O2  UNL     1      12.595   0.111  14.471  1.00  0.00    -0.368 OA
ATOM      8  H2  UNL     1      12.901  -0.597  15.026  1.00  0.00     0.212 HD
ENDBRANCH   4   7
BRANCH   5   9
HETATM    9  O3  UNL     1      10.911   0.443  16.405  1.00  0.00    -0.380 OA
ATOM     10  H3  UNL     1      10.435   0.928  17.069  1.00  0.00     0.211 HD
ENDBRANCH   5   9
TORSDOF 2
ENDMDL
MODEL 3
REMARK VINA RESULT: -3.765910609      8.396      9.462
REMARK  2 active torsions:
REMARK  status: ('A' for Active; 'I' for Inactive)
REMARK    1  A    between atoms: C3_4  and  O2_5 
REMARK    2  A    between atoms: C4_7  and  O3_8 
ROOT
HETATM    1  C1  UNL     1      15.439   2.551  20.260  1.00  0.00     0.051 C 
HETATM    2  C2  UNL     1      16.606   1.694  19.740  1.00  0.00     0.184 C 
HETATM    3  O1  UNL     1      17.203   1.124  20.795  1.00  0.00    -0.343 OA
HETATM    4  C3  UNL     1      18.473   1.427  21.003  1.00  0.00     0.297 C 
HETATM    5  C4  UNL     1      18.823   2.820  20.614  1.00  0.00     0.236 C 
HETATM    6  S1  UNL     1      17.797   2.935  19.094  1.00  0.00    -0.101 SA
ENDROOT
BRANCH   4   7
HETATM    7  O2  UNL     1      19.388   0.536  20.394  1.00  0.00    -0.368 OA
ATOM      8  H2  UNL     1      20.271   0.589  20.740  1.00  0.00     0.212 HD
ENDBRANCH   4   7
BRANCH   5   9
HETATM    9  O3  UNL     1      20.145   3.007  20.308  1.00  0.00    -0.380 OA
ATOM     10  H3  UNL     1      20.578   3.674  20.828  1.00  0.00     0.211 HD
ENDBRANCH   5   9
TORSDOF 2
ENDMDL
MODEL 4
REMARK VINA RESULT: -3.708905871      2.009      2.973
REMARK  2 active torsions:
REMARK  status: ('A' for Active; 'I' for Inactive)
REMARK    1  A    between atoms: C3_4  and  O2_5 
REMARK    2  A    between atoms: C4_7  and  O3_8 
ROOT
HETATM    1  C1  UNL     1      13.030   0.360  13.885  1.00  0.00     0.051 C 
HETATM    2  C2  UNL     1      11.581   0.076  13.456  1.00  0.00     0.184 C 
HETATM    3  O1  UNL     1      11.245   0.969  12.516  1.00  0.00    -0.343 OA
HETATM    4  C3  UNL     1      10.236   1.779  12.789  1.00  0.00     0.297 C 
HETATM    5  C4  UNL     1      10.141   2.144  14.229  1.00  0.00     0.236 C 
HETATM    6  S1  UNL     1      10.597   0.514  14.945  1.00  0.00    -0.101 SA
ENDROOT
BRANCH   4   7
HETATM    7  O2  UNL     1       8.977   1.304  12.351  1.00  0.00    -0.368 OA
ATOM      8  H2  UNL     1       8.616   1.784  11.615  1.00  0.00     0.212 HD
ENDBRANCH   4   7
BRANCH   5   9
HETATM    9  O3  UNL     1       8.885   2.506  14.639  1.00  0.00    -0.380 OA
ATOM     10  H3  UNL     1       8.850   3.324  15.120  1.00  0.00     0.211 HD
ENDBRANCH   5   9
TORSDOF 2
ENDMDL
MODEL 5
REMARK VINA RESULT: -3.707589187      1.943      2.802
REMARK  2 active torsions:
REMARK  status: ('A' for Active; 'I' for Inactive)
REMARK    1  A    between atoms: C3_4  and  O2_5 
REMARK    2  A    between atoms: C4_7  and  O3_8 
ROOT
HETATM    1  C1  UNL     1      12.637   5.093  16.353  1.00  0.00     0.051 C 
HETATM    2  C2  UNL     1      11.755   4.023  17.018  1.00  0.00     0.184 C 
HETATM    3  O1  UNL     1      12.560   3.088  17.539  1.00  0.00    -0.343 OA
HETATM    4  C3  UNL     1      12.435   1.858  17.070  1.00  0.00     0.297 C 
HETATM    5  C4  UNL     1      12.072   1.807  15.627  1.00  0.00     0.236 C 
HETATM    6  S1  UNL     1      10.904   3.225  15.598  1.00  0.00    -0.101 SA
ENDROOT
BRANCH   4   7
HETATM    7  O2  UNL     1      11.533   1.049  17.800  1.00  0.00    -0.368 OA
ATOM      8  H2  UNL     1      11.097   0.385  17.278  1.00  0.00     0.212 HD
ENDBRANCH   4   7
BRANCH   5   9
HETATM    9  O3  UNL     1      11.432   0.657  15.246  1.00  0.00    -0.380 OA
ATOM     10  H3  UNL     1      11.708   0.315  14.404  1.00  0.00     0.211 HD
ENDBRANCH   5   9
TORSDOF 2
ENDMDL
