MODEL 1
REMARK VINA RESULT: -6.558360258      0.000      0.000
REMARK  5 active torsions:
REMARK  status: ('A' for Active; 'I' for Inactive)
REMARK    1  A    between atoms: C2_2  and  C3_3 
REMARK    2  A    between atoms: C3_3  and  N1_4 
REMARK    3  A    between atoms: N1_4  and  C4_7 
REMARK    4  A    between atoms: C4_7  and  N2_8 
REMARK    5  A    between atoms: N2_8  and  C5_11 
ROOT
HETATM    1  C5  UNL     1      65.961  33.941  71.980  1.00  0.00     0.196 C 
HETATM    2  C6  UNL     1      64.593  33.411  72.399  1.00  0.00     0.065 C 
HETATM    3  C7  UNL     1      63.740  34.636  72.537  1.00  0.00     0.046 C 
HETATM    4  C8  UNL     1      62.714  34.590  73.585  1.00  0.00     0.040 C 
HETATM    5  C9  UNL     1      64.783  35.763  72.715  1.00  0.00     0.040 C 
HETATM    6  C10 UNL     1      65.614  35.316  71.502  1.00  0.00     0.038 C 
HETATM    7  C11 UNL     1      64.500  35.182  70.469  1.00  0.00     0.149 C 
HETATM    8  N3  UNL     1      63.283  35.013  71.224  1.00  0.00    -0.324 N 
HETATM    9  N4  UNL     1      62.117  35.194  70.915  1.00  0.00    -0.346 N 
ATOM     10  H41 UNL     1      61.794  35.460  69.986  1.00  0.00     0.176 HD
ATOM     11  H42 UNL     1      61.256  35.075  71.449  1.00  0.00     0.176 HD
ENDROOT
BRANCH   1  12
HETATM   12  N2  UNL     1      66.620  33.129  71.035  1.00  0.00    -0.047 N 
ATOM     13  H22 UNL     1      66.602  33.508  70.088  1.00  0.00     0.279 HD
ATOM     14  H21 UNL     1      66.128  32.261  70.829  1.00  0.00     0.279 HD
BRANCH  12  15
HETATM   15  C4  UNL     1      67.981  32.925  71.563  1.00  0.00     0.463 C 
BRANCH  15  16
HETATM   16  N1  UNL     1      68.122  31.626  72.115  1.00  0.00    -0.051 N 
ATOM     17  H12 UNL     1      67.254  31.091  72.076  1.00  0.00     0.279 HD
ATOM     18  H11 UNL     1      68.232  31.646  73.129  1.00  0.00     0.279 HD
BRANCH  16  19
HETATM   19  C3  UNL     1      69.210  30.953  71.460  1.00  0.00     0.234 C 
BRANCH  19  20
HETATM   20  C2  UNL     1      69.510  29.552  71.852  1.00  0.00     0.023 C 
HETATM   21  C1  UNL     1      71.016  29.471  72.156  1.00  0.00     0.007 C 
ENDBRANCH  19  20
ENDBRANCH  16  19
ENDBRANCH  15  16
ENDBRANCH  12  15
ENDBRANCH   1  12
TORSDOF 5
ENDMDL
MODEL 2
REMARK VINA RESULT: -6.169503494      5.831      8.422
REMARK  5 active torsions:
REMARK  status: ('A' for Active; 'I' for Inactive)
REMARK    1  A    between atoms: C2_2  and  C3_3 
REMARK    2  A    between atoms: C3_3  and  N1_4 
REMARK    3  A    between atoms: N1_4  and  C4_7 
REMARK    4  A    between atoms: C4_7  and  N2_8 
REMARK    5  A    between atoms: N2_8  and  C5_11 
ROOT
HETATM    1  C5  UNL     1      62.890  40.065  67.906  1.00  0.00     0.196 C 
HETATM    2  C6  UNL     1      61.898  40.895  67.096  1.00  0.00     0.065 C 
HETATM    3  C7  UNL     1      62.438  40.869  65.698  1.00  0.00     0.046 C 
HETATM    4  C8  UNL     1      62.220  42.083  64.903  1.00  0.00     0.040 C 
HETATM    5  C9  UNL     1      63.924  40.504  65.909  1.00  0.00     0.040 C 
HETATM    6  C10 UNL     1      63.601  39.313  66.826  1.00  0.00     0.038 C 
HETATM    7  C11 UNL     1      62.545  38.618  65.971  1.00  0.00     0.149 C 
HETATM    8  N3  UNL     1      62.029  39.631  65.084  1.00  0.00    -0.324 N 
HETATM    9  N4  UNL     1      61.441  39.540  64.020  1.00  0.00    -0.346 N 
ATOM     10  H41 UNL     1      61.151  38.664  63.586  1.00  0.00     0.176 HD
ATOM     11  H42 UNL     1      61.076  40.256  63.392  1.00  0.00     0.176 HD
ENDROOT
BRANCH   1  12
HETATM   12  N2  UNL     1      62.286  39.262  68.895  1.00  0.00    -0.047 N 
ATOM     13  H22 UNL     1      61.479  38.738  68.557  1.00  0.00     0.279 HD
ATOM     14  H21 UNL     1      61.794  39.797  69.610  1.00  0.00     0.279 HD
BRANCH  12  15
HETATM   15  C4  UNL     1      63.363  38.411  69.431  1.00  0.00     0.463 C 
BRANCH  15  16
HETATM   16  N1  UNL     1      63.003  37.040  69.374  1.00  0.00    -0.051 N 
ATOM     17  H12 UNL     1      63.223  36.619  68.471  1.00  0.00     0.279 HD
ATOM     18  H11 UNL     1      61.992  36.905  69.352  1.00  0.00     0.279 HD
BRANCH  16  19
HETATM   19  C3  UNL     1      63.624  36.345  70.468  1.00  0.00     0.234 C 
BRANCH  19  20
HETATM   20  C2  UNL     1      62.757  35.588  71.406  1.00  0.00     0.023 C 
HETATM   21  C1  UNL     1      63.536  35.421  72.722  1.00  0.00     0.007 C 
ENDBRANCH  19  20
ENDBRANCH  16  19
ENDBRANCH  15  16
ENDBRANCH  12  15
ENDBRANCH   1  12
TORSDOF 5
ENDMDL
MODEL 3
REMARK VINA RESULT: -6.132349749      1.562      2.574
REMARK  5 active torsions:
REMARK  status: ('A' for Active; 'I' for Inactive)
REMARK    1  A    between atoms: C2_2  and  C3_3 
REMARK    2  A    between atoms: C3_3  and  N1_4 
REMARK    3  A    between atoms: N1_4  and  C4_7 
REMARK    4  A    between atoms: C4_7  and  N2_8 
REMARK    5  A    between atoms: N2_8  and  C5_11 
ROOT
HETATM    1  C5  UNL     1      64.091  34.001  71.715  1.00  0.00     0.196 C 
HETATM    2  C6  UNL     1      64.657  34.795  70.541  1.00  0.00     0.065 C 
HETATM    3  C7  UNL     1      63.869  36.070  70.532  1.00  0.00     0.046 C 
HETATM    4  C8  UNL     1      63.609  36.656  69.212  1.00  0.00     0.040 C 
HETATM    5  C9  UNL     1      62.596  35.693  71.324  1.00  0.00     0.040 C 
HETATM    6  C10 UNL     1      63.387  35.072  72.486  1.00  0.00     0.038 C 
HETATM    7  C11 UNL     1      64.387  36.197  72.738  1.00  0.00     0.149 C 
HETATM    8  N3  UNL     1      64.441  36.956  71.514  1.00  0.00    -0.324 N 
HETATM    9  N4  UNL     1      64.804  38.099  71.295  1.00  0.00    -0.346 N 
ATOM     10  H41 UNL     1      65.210  38.726  71.990  1.00  0.00     0.176 HD
ATOM     11  H42 UNL     1      64.843  38.637  70.429  1.00  0.00     0.176 HD
ENDROOT
BRANCH   1  12
HETATM   12  N2  UNL     1      65.064  33.285  72.439  1.00  0.00    -0.047 N 
ATOM     13  H22 UNL     1      64.748  32.366  72.749  1.00  0.00     0.279 HD
ATOM     14  H21 UNL     1      65.248  33.669  73.365  1.00  0.00     0.279 HD
BRANCH  12  15
HETATM   15  C4  UNL     1      66.255  33.239  71.572  1.00  0.00     0.463 C 
BRANCH  15  16
HETATM   16  N1  UNL     1      67.170  32.249  72.017  1.00  0.00    -0.051 N 
ATOM     17  H12 UNL     1      66.833  31.303  71.841  1.00  0.00     0.279 HD
ATOM     18  H11 UNL     1      67.220  32.197  73.035  1.00  0.00     0.279 HD
BRANCH  16  19
HETATM   19  C3  UNL     1      68.453  32.494  71.418  1.00  0.00     0.234 C 
BRANCH  19  20
HETATM   20  C2  UNL     1      69.181  31.347  70.818  1.00  0.00     0.023 C 
HETATM   21  C1  UNL     1      69.161  30.200  71.845  1.00  0.00     0.007 C 
ENDBRANCH  19  20
ENDBRANCH  16  19
ENDBRANCH  15  16
ENDBRANCH  12  15
ENDBRANCH   1  12
TORSDOF 5
ENDMDL
MODEL 4
REMARK VINA RESULT: -6.033879042      1.564      2.013
REMARK  5 active torsions:
REMARK  status: ('A' for Active; 'I' for Inactive)
REMARK    1  A    between atoms: C2_2  and  C3_3 
REMARK    2  A    between atoms: C3_3  and  N1_4 
REMARK    3  A    between atoms: N1_4  and  C4_7 
REMARK    4  A    between atoms: C4_7  and  N2_8 
REMARK    5  A    between atoms: N2_8  and  C5_11 
ROOT
HETATM    1  C5  UNL     1      67.128  34.028  71.673  1.00  0.00     0.196 C 
HETATM    2  C6  UNL     1      66.625  35.111  72.624  1.00  0.00     0.065 C 
HETATM    3  C7  UNL     1      65.192  35.319  72.234  1.00  0.00     0.046 C 
HETATM    4  C8  UNL     1      64.682  36.688  72.369  1.00  0.00     0.040 C 
HETATM    5  C9  UNL     1      65.142  34.760  70.794  1.00  0.00     0.040 C 
HETATM    6  C10 UNL     1      65.842  33.446  71.178  1.00  0.00     0.038 C 
HETATM    7  C11 UNL     1      65.006  33.063  72.395  1.00  0.00     0.149 C 
HETATM    8  N3  UNL     1      64.405  34.288  72.860  1.00  0.00    -0.324 N 
HETATM    9  N4  UNL     1      63.425  34.485  73.558  1.00  0.00    -0.346 N 
ATOM     10  H41 UNL     1      62.867  33.755  74.002  1.00  0.00     0.176 HD
ATOM     11  H42 UNL     1      62.999  35.352  73.887  1.00  0.00     0.176 HD
ENDROOT
BRANCH   1  12
HETATM   12  N2  UNL     1      68.008  33.107  72.275  1.00  0.00    -0.047 N 
ATOM     13  H22 UNL     1      67.586  32.580  73.039  1.00  0.00     0.279 HD
ATOM     14  H21 UNL     1      68.747  33.547  72.823  1.00  0.00     0.279 HD
BRANCH  12  15
HETATM   15  C4  UNL     1      68.511  32.260  71.180  1.00  0.00     0.463 C 
BRANCH  15  16
HETATM   16  N1  UNL     1      68.717  30.927  71.621  1.00  0.00    -0.051 N 
ATOM     17  H12 UNL     1      68.351  30.240  70.963  1.00  0.00     0.279 HD
ATOM     18  H11 UNL     1      68.129  30.688  72.420  1.00  0.00     0.279 HD
BRANCH  16  19
HETATM   19  C3  UNL     1      70.115  30.734  71.893  1.00  0.00     0.234 C 
BRANCH  19  20
HETATM   20  C2  UNL     1      70.744  29.455  71.476  1.00  0.00     0.023 C 
HETATM   21  C1  UNL     1      72.038  29.289  72.293  1.00  0.00     0.007 C 
ENDBRANCH  19  20
ENDBRANCH  16  19
ENDBRANCH  15  16
ENDBRANCH  12  15
ENDBRANCH   1  12
TORSDOF 5
ENDMDL
MODEL 5
REMARK VINA RESULT: -6.019538674      6.249      8.763
REMARK  5 active torsions:
REMARK  status: ('A' for Active; 'I' for Inactive)
REMARK    1  A    between atoms: C2_2  and  C3_3 
REMARK    2  A    between atoms: C3_3  and  N1_4 
REMARK    3  A    between atoms: N1_4  and  C4_7 
REMARK    4  A    between atoms: C4_7  and  N2_8 
REMARK    5  A    between atoms: N2_8  and  C5_11 
ROOT
HETATM    1  C5  UNL     1      64.391  40.459  67.321  1.00  0.00     0.196 C 
HETATM    2  C6  UNL     1      63.984  41.785  66.684  1.00  0.00     0.065 C 
HETATM    3  C7  UNL     1      62.830  41.436  65.792  1.00  0.00     0.046 C 
HETATM    4  C8  UNL     1      62.716  42.214  64.554  1.00  0.00     0.040 C 
HETATM    5  C9  UNL     1      63.008  39.916  65.576  1.00  0.00     0.040 C 
HETATM    6  C10 UNL     1      63.173  39.625  67.076  1.00  0.00     0.038 C 
HETATM    7  C11 UNL     1      61.969  40.391  67.614  1.00  0.00     0.149 C 
HETATM    8  N3  UNL     1      61.642  41.368  66.605  1.00  0.00    -0.324 N 
HETATM    9  N4  UNL     1      60.610  41.979  66.387  1.00  0.00    -0.346 N 
ATOM     10  H41 UNL     1      59.770  41.931  66.963  1.00  0.00     0.176 HD
ATOM     11  H42 UNL     1      60.378  42.670  65.674  1.00  0.00     0.176 HD
ENDROOT
BRANCH   1  12
HETATM   12  N2  UNL     1      64.776  40.572  68.671  1.00  0.00    -0.047 N 
ATOM     13  H22 UNL     1      64.082  41.038  69.256  1.00  0.00     0.279 HD
ATOM     14  H21 UNL     1      65.533  41.237  68.826  1.00  0.00     0.279 HD
BRANCH  12  15
HETATM   15  C4  UNL     1      65.095  39.203  69.112  1.00  0.00     0.463 C 
BRANCH  15  16
HETATM   16  N1  UNL     1      64.586  38.956  70.414  1.00  0.00    -0.051 N 
ATOM     17  H12 UNL     1      63.716  39.458  70.592  1.00  0.00     0.279 HD
ATOM     18  H11 UNL     1      65.154  39.392  71.141  1.00  0.00     0.279 HD
BRANCH  16  19
HETATM   19  C3  UNL     1      64.449  37.538  70.603  1.00  0.00     0.234 C 
BRANCH  19  20
HETATM   20  C2  UNL     1      63.544  36.790  69.694  1.00  0.00     0.023 C 
HETATM   21  C1  UNL     1      62.680  35.860  70.564  1.00  0.00     0.007 C 
ENDBRANCH  19  20
ENDBRANCH  16  19
ENDBRANCH  15  16
ENDBRANCH  12  15
ENDBRANCH   1  12
TORSDOF 5
ENDMDL
