MODEL 1
REMARK VINA RESULT: -5.828588110      0.000      0.000
REMARK  6 active torsions:
REMARK  status: ('A' for Active; 'I' for Inactive)
REMARK    1  A    between atoms: S1_2  and  C2_4 
REMARK    2  A    between atoms: C2_4  and  C3_5 
REMARK    3  A    between atoms: C3_5  and  C4_6 
REMARK    4  A    between atoms: C4_6  and  C5_7 
REMARK    5  A    between atoms: C8_10  and  C9_11 
REMARK    6  A    between atoms: C9_11  and  N1_12 
ROOT
HETATM    1  C5  UNL     1      63.798  36.356  70.261  1.00  0.00     0.186 C 
HETATM    2  C6  UNL     1      64.974  37.187  70.704  1.00  0.00     0.035 C 
HETATM    3  C7  UNL     1      64.711  38.530  70.051  1.00  0.00     0.037 C 
HETATM    4  C8  UNL     1      63.971  38.085  68.815  1.00  0.00     0.211 C 
HETATM    5  N2  UNL     1      62.982  37.202  69.414  1.00  0.00    -0.065 N 
ATOM      6  H21 UNL     1      62.215  37.675  69.891  1.00  0.00     0.278 HD
ATOM      7  H22 UNL     1      62.391  36.703  68.750  1.00  0.00     0.278 HD
ENDROOT
BRANCH   1   8
HETATM    8  C4  UNL     1      63.085  35.825  71.458  1.00  0.00     0.034 C 
BRANCH   8   9
HETATM    9  C3  UNL     1      64.058  35.597  72.585  1.00  0.00     0.014 C 
BRANCH   9  10
HETATM   10  C2  UNL     1      64.386  34.151  72.829  1.00  0.00     0.108 C 
BRANCH  10  11
HETATM   11  S1  UNL     1      65.921  33.664  72.130  1.00  0.00     0.010 S 
HETATM   12  C1  UNL     1      67.222  34.814  72.369  1.00  0.00     0.127 C 
HETATM   13  O1  UNL     1      66.414  32.134  72.533  1.00  0.00    -0.258 OA
ENDBRANCH  10  11
ENDBRANCH   9  10
ENDBRANCH   8   9
ENDBRANCH   1   8
BRANCH   4  14
HETATM   14  C9  UNL     1      63.332  39.218  68.060  1.00  0.00     0.262 C 
BRANCH  14  15
HETATM   15  N1  UNL     1      62.188  39.651  68.870  1.00  0.00    -0.077 N 
ATOM     16  H13 UNL     1      62.450  39.985  69.798  1.00  0.00     0.274 HD
ATOM     17  H12 UNL     1      61.763  40.518  68.542  1.00  0.00     0.274 HD
ATOM     18  H11 UNL     1      61.541  38.863  68.888  1.00  0.00     0.274 HD
ENDBRANCH  14  15
ENDBRANCH   4  14
TORSDOF 6
ENDMDL
MODEL 2
REMARK VINA RESULT: -5.782547806      1.574      1.580
REMARK  6 active torsions:
REMARK  status: ('A' for Active; 'I' for Inactive)
REMARK    1  A    between atoms: S1_2  and  C2_4 
REMARK    2  A    between atoms: C2_4  and  C3_5 
REMARK    3  A    between atoms: C3_5  and  C4_6 
REMARK    4  A    between atoms: C4_6  and  C5_7 
REMARK    5  A    between atoms: C8_10  and  C9_11 
REMARK    6  A    between atoms: C9_11  and  N1_12 
ROOT
HETATM    1  C5  UNL     1      63.772  36.743  69.594  1.00  0.00     0.186 C 
HETATM    2  C6  UNL     1      64.894  37.570  70.166  1.00  0.00     0.035 C 
HETATM    3  C7  UNL     1      64.582  38.966  69.664  1.00  0.00     0.037 C 
HETATM    4  C8  UNL     1      63.896  38.634  68.363  1.00  0.00     0.211 C 
HETATM    5  N2  UNL     1      62.937  37.642  68.826  1.00  0.00    -0.065 N 
ATOM      6  H21 UNL     1      62.135  38.021  69.330  1.00  0.00     0.278 HD
ATOM      7  H22 UNL     1      62.389  37.197  68.091  1.00  0.00     0.278 HD
ENDROOT
BRANCH   1   8
HETATM    8  C4  UNL     1      63.056  36.044  70.700  1.00  0.00     0.034 C 
BRANCH   8   9
HETATM    9  C3  UNL     1      63.780  36.254  72.004  1.00  0.00     0.014 C 
BRANCH   9  10
HETATM   10  C2  UNL     1      63.587  35.144  72.998  1.00  0.00     0.108 C 
BRANCH  10  11
HETATM   11  S1  UNL     1      63.727  33.545  72.284  1.00  0.00     0.010 S 
HETATM   12  C1  UNL     1      65.362  32.914  72.240  1.00  0.00     0.127 C 
HETATM   13  O1  UNL     1      62.682  32.416  72.899  1.00  0.00    -0.258 OA
ENDBRANCH  10  11
ENDBRANCH   9  10
ENDBRANCH   8   9
ENDBRANCH   1   8
BRANCH   4  14
HETATM   14  C9  UNL     1      63.221  39.816  67.724  1.00  0.00     0.262 C 
BRANCH  14  15
HETATM   15  N1  UNL     1      61.981  40.032  68.477  1.00  0.00    -0.077 N 
ATOM     16  H13 UNL     1      61.279  39.309  68.319  1.00  0.00     0.274 HD
ATOM     17  H12 UNL     1      62.085  39.885  69.481  1.00  0.00     0.274 HD
ATOM     18  H11 UNL     1      61.663  40.970  68.234  1.00  0.00     0.274 HD
ENDBRANCH  14  15
ENDBRANCH   4  14
TORSDOF 6
ENDMDL
MODEL 3
REMARK VINA RESULT: -5.662242939      2.073      2.462
REMARK  6 active torsions:
REMARK  status: ('A' for Active; 'I' for Inactive)
REMARK    1  A    between atoms: S1_2  and  C2_4 
REMARK    2  A    between atoms: C2_4  and  C3_5 
REMARK    3  A    between atoms: C3_5  and  C4_6 
REMARK    4  A    between atoms: C4_6  and  C5_7 
REMARK    5  A    between atoms: C8_10  and  C9_11 
REMARK    6  A    between atoms: C9_11  and  N1_12 
ROOT
HETATM    1  C5  UNL     1      63.063  35.759  72.020  1.00  0.00     0.186 C 
HETATM    2  C6  UNL     1      62.776  35.552  70.557  1.00  0.00     0.035 C 
HETATM    3  C7  UNL     1      63.948  36.231  69.876  1.00  0.00     0.037 C 
HETATM    4  C8  UNL     1      64.252  37.310  70.885  1.00  0.00     0.211 C 
HETATM    5  N2  UNL     1      64.295  36.516  72.103  1.00  0.00    -0.065 N 
ATOM      6  H21 UNL     1      65.138  35.954  72.221  1.00  0.00     0.278 HD
ATOM      7  H22 UNL     1      64.414  37.051  72.963  1.00  0.00     0.278 HD
ENDROOT
BRANCH   1   8
HETATM    8  C4  UNL     1      63.113  34.438  72.709  1.00  0.00     0.034 C 
BRANCH   8   9
HETATM    9  C3  UNL     1      64.535  34.090  73.066  1.00  0.00     0.014 C 
BRANCH   9  10
HETATM   10  C2  UNL     1      65.167  33.079  72.152  1.00  0.00     0.108 C 
BRANCH  10  11
HETATM   11  S1  UNL     1      66.519  33.725  71.237  1.00  0.00     0.010 S 
HETATM   12  C1  UNL     1      67.787  34.431  72.221  1.00  0.00     0.127 C 
HETATM   13  O1  UNL     1      67.161  32.686  70.118  1.00  0.00    -0.258 OA
ENDBRANCH  10  11
ENDBRANCH   9  10
ENDBRANCH   8   9
ENDBRANCH   1   8
BRANCH   4  14
HETATM   14  C9  UNL     1      65.553  38.020  70.628  1.00  0.00     0.262 C 
BRANCH  14  15
HETATM   15  N1  UNL     1      65.483  39.279  71.378  1.00  0.00    -0.077 N 
ATOM     16  H13 UNL     1      64.569  39.452  71.798  1.00  0.00     0.274 HD
ATOM     17  H12 UNL     1      66.017  39.265  72.246  1.00  0.00     0.274 HD
ATOM     18  H11 UNL     1      65.778  40.010  70.730  1.00  0.00     0.274 HD
ENDBRANCH  14  15
ENDBRANCH   4  14
TORSDOF 6
ENDMDL
MODEL 4
REMARK VINA RESULT: -5.579844728      2.819      4.485
REMARK  6 active torsions:
REMARK  status: ('A' for Active; 'I' for Inactive)
REMARK    1  A    between atoms: S1_2  and  C2_4 
REMARK    2  A    between atoms: C2_4  and  C3_5 
REMARK    3  A    between atoms: C3_5  and  C4_6 
REMARK    4  A    between atoms: C4_6  and  C5_7 
REMARK    5  A    between atoms: C8_10  and  C9_11 
REMARK    6  A    between atoms: C9_11  and  N1_12 
ROOT
HETATM    1  C5  UNL     1      63.211  39.412  67.129  1.00  0.00     0.186 C 
HETATM    2  C6  UNL     1      63.809  40.243  66.025  1.00  0.00     0.035 C 
HETATM    3  C7  UNL     1      62.769  41.323  65.805  1.00  0.00     0.037 C 
HETATM    4  C8  UNL     1      61.518  40.568  66.177  1.00  0.00     0.211 C 
HETATM    5  N2  UNL     1      61.931  40.005  67.454  1.00  0.00    -0.065 N 
ATOM      6  H21 UNL     1      61.947  40.666  68.231  1.00  0.00     0.278 HD
ATOM      7  H22 UNL     1      61.258  39.369  67.882  1.00  0.00     0.278 HD
ENDROOT
BRANCH   1   8
HETATM    8  C4  UNL     1      64.162  39.350  68.276  1.00  0.00     0.034 C 
BRANCH   8   9
HETATM    9  C3  UNL     1      63.581  38.520  69.390  1.00  0.00     0.014 C 
BRANCH   9  10
HETATM   10  C2  UNL     1      63.593  37.041  69.124  1.00  0.00     0.108 C 
BRANCH  10  11
HETATM   11  S1  UNL     1      63.762  36.078  70.583  1.00  0.00     0.010 S 
HETATM   12  C1  UNL     1      64.758  36.814  71.823  1.00  0.00     0.127 C 
HETATM   13  O1  UNL     1      62.335  35.536  71.227  1.00  0.00    -0.258 OA
ENDBRANCH  10  11
ENDBRANCH   9  10
ENDBRANCH   8   9
ENDBRANCH   1   8
BRANCH   4  14
HETATM   14  C9  UNL     1      60.306  41.448  66.314  1.00  0.00     0.262 C 
BRANCH  14  15
HETATM   15  N1  UNL     1      60.600  42.375  67.412  1.00  0.00    -0.077 N 
ATOM     16  H13 UNL     1      61.595  42.454  67.622  1.00  0.00     0.274 HD
ATOM     17  H12 UNL     1      60.447  43.354  67.169  1.00  0.00     0.274 HD
ATOM     18  H11 UNL     1      60.039  42.061  68.204  1.00  0.00     0.274 HD
ENDBRANCH  14  15
ENDBRANCH   4  14
TORSDOF 6
ENDMDL
MODEL 5
REMARK VINA RESULT: -5.545298950      2.646      4.409
REMARK  6 active torsions:
REMARK  status: ('A' for Active; 'I' for Inactive)
REMARK    1  A    between atoms: S1_2  and  C2_4 
REMARK    2  A    between atoms: C2_4  and  C3_5 
REMARK    3  A    between atoms: C3_5  and  C4_6 
REMARK    4  A    between atoms: C4_6  and  C5_7 
REMARK    5  A    between atoms: C8_10  and  C9_11 
REMARK    6  A    between atoms: C9_11  and  N1_12 
ROOT
HETATM    1  C5  UNL     1      63.242  39.413  67.045  1.00  0.00     0.186 C 
HETATM    2  C6  UNL     1      63.866  40.329  66.025  1.00  0.00     0.035 C 
HETATM    3  C7  UNL     1      62.818  41.410  65.848  1.00  0.00     0.037 C 
HETATM    4  C8  UNL     1      61.566  40.615  66.121  1.00  0.00     0.211 C 
HETATM    5  N2  UNL     1      61.943  39.966  67.368  1.00  0.00    -0.065 N 
ATOM      6  H21 UNL     1      61.924  40.569  68.190  1.00  0.00     0.278 HD
ATOM      7  H22 UNL     1      61.266  39.293  67.725  1.00  0.00     0.278 HD
ENDROOT
BRANCH   1   8
HETATM    8  C4  UNL     1      64.154  39.279  68.217  1.00  0.00     0.034 C 
BRANCH   8   9
HETATM    9  C3  UNL     1      63.468  38.528  69.328  1.00  0.00     0.014 C 
BRANCH   9  10
HETATM   10  C2  UNL     1      63.981  37.131  69.531  1.00  0.00     0.108 C 
BRANCH  10  11
HETATM   11  S1  UNL     1      64.569  36.841  71.160  1.00  0.00     0.010 S 
HETATM   12  C1  UNL     1      63.516  35.840  72.142  1.00  0.00     0.127 C 
HETATM   13  O1  UNL     1      66.133  36.302  71.250  1.00  0.00    -0.258 OA
ENDBRANCH  10  11
ENDBRANCH   9  10
ENDBRANCH   8   9
ENDBRANCH   1   8
BRANCH   4  14
HETATM   14  C9  UNL     1      60.338  41.468  66.278  1.00  0.00     0.262 C 
BRANCH  14  15
HETATM   15  N1  UNL     1      60.472  42.137  67.577  1.00  0.00    -0.077 N 
ATOM     16  H13 UNL     1      61.425  42.436  67.784  1.00  0.00     0.274 HD
ATOM     17  H12 UNL     1      60.044  43.062  67.604  1.00  0.00     0.274 HD
ATOM     18  H11 UNL     1      60.088  41.491  68.268  1.00  0.00     0.274 HD
ENDBRANCH  14  15
ENDBRANCH   4  14
TORSDOF 6
ENDMDL
