MODEL 1
REMARK VINA RESULT: -5.890164383      0.000      0.000
REMARK  4 active torsions:
REMARK  status: ('A' for Active; 'I' for Inactive)
REMARK    1  A    between atoms: C3_3  and  C5_5 
REMARK    2  A    between atoms: C5_5  and  C6_6 
REMARK    3  A    between atoms: C5_5  and  N1_10 
REMARK    4  A    between atoms: C6_6  and  C7_7 
ROOT
HETATM    1  C1  UNL     1      67.864  39.601  70.515  1.00  0.00     0.097 C 
HETATM    2  C2  UNL     1      67.248  38.811  71.215  1.00  0.00    -0.181 C 
HETATM    3  C3  UNL     1      66.572  37.834  72.037  1.00  0.00     0.070 C 
HETATM    4  C4  UNL     1      67.647  36.770  72.364  1.00  0.00     0.024 C 
ENDROOT
BRANCH   3   5
HETATM    5  C5  UNL     1      65.356  37.190  71.489  1.00  0.00     0.096 C 
BRANCH   5   6
HETATM    6  C6  UNL     1      64.440  37.902  70.636  1.00  0.00     0.030 C 
BRANCH   6   7
HETATM    7  C7  UNL     1      64.283  37.795  69.179  1.00  0.00    -0.021 C 
HETATM    8  C8  UNL     1      63.325  36.552  68.944  1.00  0.00     0.009 C 
HETATM    9  C9  UNL     1      63.326  38.913  68.689  1.00  0.00     0.009 C 
ENDBRANCH   6   7
ENDBRANCH   5   6
BRANCH   5  10
HETATM   10  N1  UNL     1      64.659  36.681  72.642  1.00  0.00    -0.389 N 
HETATM   11  C10 UNL     1      64.130  35.444  72.781  1.00  0.00     0.010 C 
HETATM   12  C11 UNL     1      65.012  34.234  72.643  1.00  0.00     0.081 C 
HETATM   13  C13 UNL     1      62.833  35.032  72.183  1.00  0.00     0.284 C 
HETATM   14  C12 UNL     1      63.992  33.141  72.409  1.00  0.00     0.238 C 
HETATM   15  N2  UNL     1      63.127  33.802  71.418  1.00  0.00    -0.070 N 
ATOM     16  H22 UNL     1      63.516  33.927  70.484  1.00  0.00     0.277 HD
ATOM     17  H21 UNL     1      62.324  33.268  71.086  1.00  0.00     0.277 HD
ATOM     18  H1  UNL     1      64.553  37.317  73.433  1.00  0.00     0.159 HD
ENDBRANCH   5  10
ENDBRANCH   3   5
TORSDOF 4
ENDMDL
MODEL 2
REMARK VINA RESULT: -5.797246503      1.988      5.516
REMARK  4 active torsions:
REMARK  status: ('A' for Active; 'I' for Inactive)
REMARK    1  A    between atoms: C3_3  and  C5_5 
REMARK    2  A    between atoms: C5_5  and  C6_6 
REMARK    3  A    between atoms: C5_5  and  N1_10 
REMARK    4  A    between atoms: C6_6  and  C7_7 
ROOT
HETATM    1  C1  UNL     1      62.713  34.427  73.157  1.00  0.00     0.097 C 
HETATM    2  C2  UNL     1      63.168  35.305  72.439  1.00  0.00    -0.181 C 
HETATM    3  C3  UNL     1      63.686  36.306  71.536  1.00  0.00     0.070 C 
HETATM    4  C4  UNL     1      63.138  35.915  70.143  1.00  0.00     0.024 C 
ENDROOT
BRANCH   3   5
HETATM    5  C5  UNL     1      65.153  36.496  71.480  1.00  0.00     0.096 C 
BRANCH   5   6
HETATM    6  C6  UNL     1      66.064  35.537  72.050  1.00  0.00     0.030 C 
BRANCH   6   7
HETATM    7  C7  UNL     1      66.661  34.357  71.411  1.00  0.00    -0.021 C 
HETATM    8  C8  UNL     1      68.115  34.223  72.033  1.00  0.00     0.009 C 
HETATM    9  C9  UNL     1      66.035  33.078  72.025  1.00  0.00     0.009 C 
ENDBRANCH   6   7
ENDBRANCH   5   6
BRANCH   5  10
HETATM   10  N1  UNL     1      65.378  37.794  72.062  1.00  0.00    -0.389 N 
HETATM   11  C10 UNL     1      66.240  38.737  71.618  1.00  0.00     0.010 C 
HETATM   12  C11 UNL     1      66.113  39.266  70.217  1.00  0.00     0.081 C 
HETATM   13  C13 UNL     1      67.705  38.696  71.871  1.00  0.00     0.284 C 
HETATM   14  C12 UNL     1      67.474  39.894  70.005  1.00  0.00     0.238 C 
HETATM   15  N2  UNL     1      68.337  38.829  70.542  1.00  0.00    -0.070 N 
ATOM     16  H22 UNL     1      68.411  37.978  69.985  1.00  0.00     0.277 HD
ATOM     17  H21 UNL     1      69.341  39.006  70.529  1.00  0.00     0.277 HD
ATOM     18  H1  UNL     1      64.833  38.026  72.893  1.00  0.00     0.159 HD
ENDBRANCH   5  10
ENDBRANCH   3   5
TORSDOF 4
ENDMDL
MODEL 3
REMARK VINA RESULT: -5.756169203      0.740      1.455
REMARK  4 active torsions:
REMARK  status: ('A' for Active; 'I' for Inactive)
REMARK    1  A    between atoms: C3_3  and  C5_5 
REMARK    2  A    between atoms: C5_5  and  C6_6 
REMARK    3  A    between atoms: C5_5  and  N1_10 
REMARK    4  A    between atoms: C6_6  and  C7_7 
ROOT
HETATM    1  C1  UNL     1      68.457  36.049  73.093  1.00  0.00     0.097 C 
HETATM    2  C2  UNL     1      67.735  36.761  72.412  1.00  0.00    -0.181 C 
HETATM    3  C3  UNL     1      66.876  37.646  71.659  1.00  0.00     0.070 C 
HETATM    4  C4  UNL     1      66.767  38.928  72.519  1.00  0.00     0.024 C 
ENDROOT
BRANCH   3   5
HETATM    5  C5  UNL     1      65.530  37.155  71.289  1.00  0.00     0.096 C 
BRANCH   5   6
HETATM    6  C6  UNL     1      64.587  37.985  70.584  1.00  0.00     0.030 C 
BRANCH   6   7
HETATM    7  C7  UNL     1      64.221  37.939  69.161  1.00  0.00    -0.021 C 
HETATM    8  C8  UNL     1      63.430  36.577  68.967  1.00  0.00     0.009 C 
HETATM    9  C9  UNL     1      63.046  38.919  68.909  1.00  0.00     0.009 C 
ENDBRANCH   6   7
ENDBRANCH   5   6
BRANCH   5  10
HETATM   10  N1  UNL     1      64.952  36.698  72.527  1.00  0.00    -0.389 N 
HETATM   11  C10 UNL     1      64.352  35.505  72.743  1.00  0.00     0.010 C 
HETATM   12  C11 UNL     1      65.113  34.231  72.500  1.00  0.00     0.081 C 
HETATM   13  C13 UNL     1      62.960  35.196  72.321  1.00  0.00     0.284 C 
HETATM   14  C12 UNL     1      63.990  33.220  72.409  1.00  0.00     0.238 C 
HETATM   15  N2  UNL     1      63.056  33.949  71.534  1.00  0.00    -0.070 N 
ATOM     16  H22 UNL     1      63.328  34.047  70.557  1.00  0.00     0.277 HD
ATOM     17  H21 UNL     1      62.178  33.480  71.313  1.00  0.00     0.277 HD
ATOM     18  H1  UNL     1      64.999  37.338  73.320  1.00  0.00     0.159 HD
ENDBRANCH   5  10
ENDBRANCH   3   5
TORSDOF 4
ENDMDL
MODEL 4
REMARK VINA RESULT: -5.714368559      5.034      8.563
REMARK  4 active torsions:
REMARK  status: ('A' for Active; 'I' for Inactive)
REMARK    1  A    between atoms: C3_3  and  C5_5 
REMARK    2  A    between atoms: C5_5  and  C6_6 
REMARK    3  A    between atoms: C5_5  and  N1_10 
REMARK    4  A    between atoms: C6_6  and  C7_7 
ROOT
HETATM    1  C1  UNL     1      60.047  41.474  66.582  1.00  0.00     0.097 C 
HETATM    2  C2  UNL     1      60.965  40.955  65.964  1.00  0.00    -0.181 C 
HETATM    3  C3  UNL     1      62.016  40.284  65.235  1.00  0.00     0.070 C 
HETATM    4  C4  UNL     1      61.410  38.922  64.818  1.00  0.00     0.024 C 
ENDROOT
BRANCH   3   5
HETATM    5  C5  UNL     1      63.315  40.086  65.917  1.00  0.00     0.096 C 
BRANCH   5   6
HETATM    6  C6  UNL     1      63.478  39.118  66.972  1.00  0.00     0.030 C 
BRANCH   6   7
HETATM    7  C7  UNL     1      63.593  39.359  68.417  1.00  0.00    -0.021 C 
HETATM    8  C8  UNL     1      63.488  37.929  69.097  1.00  0.00     0.009 C 
HETATM    9  C9  UNL     1      65.073  39.664  68.763  1.00  0.00     0.009 C 
ENDBRANCH   6   7
ENDBRANCH   5   6
BRANCH   5  10
HETATM   10  N1  UNL     1      63.685  41.395  66.389  1.00  0.00    -0.389 N 
HETATM   11  C10 UNL     1      64.528  42.261  65.781  1.00  0.00     0.010 C 
HETATM   12  C11 UNL     1      64.240  42.727  64.382  1.00  0.00     0.081 C 
HETATM   13  C13 UNL     1      66.010  42.144  65.840  1.00  0.00     0.284 C 
HETATM   14  C12 UNL     1      65.590  43.261  63.956  1.00  0.00     0.238 C 
HETATM   15  N2  UNL     1      66.460  42.174  64.433  1.00  0.00    -0.070 N 
ATOM     16  H22 UNL     1      66.413  41.293  63.921  1.00  0.00     0.277 HD
ATOM     17  H21 UNL     1      67.461  42.289  64.277  1.00  0.00     0.277 HD
ATOM     18  H1  UNL     1      63.271  41.699  67.271  1.00  0.00     0.159 HD
ENDBRANCH   5  10
ENDBRANCH   3   5
TORSDOF 4
ENDMDL
MODEL 5
REMARK VINA RESULT: -5.591281827      5.058      7.326
REMARK  4 active torsions:
REMARK  status: ('A' for Active; 'I' for Inactive)
REMARK    1  A    between atoms: C3_3  and  C5_5 
REMARK    2  A    between atoms: C5_5  and  C6_6 
REMARK    3  A    between atoms: C5_5  and  N1_10 
REMARK    4  A    between atoms: C6_6  and  C7_7 
ROOT
HETATM    1  C1  UNL     1      65.274  39.244  69.437  1.00  0.00     0.097 C 
HETATM    2  C2  UNL     1      65.568  40.149  68.670  1.00  0.00    -0.181 C 
HETATM    3  C3  UNL     1      65.914  41.261  67.816  1.00  0.00     0.070 C 
HETATM    4  C4  UNL     1      66.236  42.426  68.782  1.00  0.00     0.024 C 
ENDROOT
BRANCH   3   5
HETATM    5  C5  UNL     1      64.925  41.689  66.801  1.00  0.00     0.096 C 
BRANCH   5   6
HETATM    6  C6  UNL     1      64.865  43.047  66.325  1.00  0.00     0.030 C 
BRANCH   6   7
HETATM    7  C7  UNL     1      65.301  43.576  65.025  1.00  0.00    -0.021 C 
HETATM    8  C8  UNL     1      66.361  42.532  64.474  1.00  0.00     0.009 C 
HETATM    9  C9  UNL     1      64.182  43.334  63.979  1.00  0.00     0.009 C 
ENDBRANCH   6   7
ENDBRANCH   5   6
BRANCH   5  10
HETATM   10  N1  UNL     1      63.649  41.302  67.346  1.00  0.00    -0.389 N 
HETATM   11  C10 UNL     1      62.657  40.656  66.692  1.00  0.00     0.010 C 
HETATM   12  C11 UNL     1      62.921  39.313  66.071  1.00  0.00     0.081 C 
HETATM   13  C13 UNL     1      61.719  41.326  65.751  1.00  0.00     0.284 C 
HETATM   14  C12 UNL     1      61.763  39.192  65.104  1.00  0.00     0.238 C 
HETATM   15  N2  UNL     1      61.786  40.536  64.504  1.00  0.00    -0.070 N 
ATOM     16  H22 UNL     1      62.561  40.742  63.874  1.00  0.00     0.277 HD
ATOM     17  H21 UNL     1      61.075  40.733  63.800  1.00  0.00     0.277 HD
ATOM     18  H1  UNL     1      63.476  41.540  68.323  1.00  0.00     0.159 HD
ENDBRANCH   5  10
ENDBRANCH   3   5
TORSDOF 4
ENDMDL
