MODEL 1
REMARK VINA RESULT: -6.379856284      0.000      0.000
REMARK  3 active torsions:
REMARK  status: ('A' for Active; 'I' for Inactive)
REMARK    1  A    between atoms: C5_5  and  S1_6 
REMARK    2  A    between atoms: S1_6  and  N1_7 
REMARK    3  A    between atoms: C8_14  and  N2_15 
ROOT
HETATM    1  C1  UNL     1      26.354   5.713 -13.080  1.00  0.00     0.103 C 
HETATM    2  C2  UNL     1      25.648   5.561 -12.091  1.00  0.00    -0.146 C 
HETATM    3  C3  UNL     1      24.819   5.353 -10.924  1.00  0.00     0.039 A 
HETATM    4  C4  UNL     1      24.386   4.065 -10.602  1.00  0.00     0.047 A 
HETATM    5  C5  UNL     1      23.600   3.842  -9.500  1.00  0.00     0.080 A 
HETATM    6  C6  UNL     1      23.263   4.933  -8.737  1.00  0.00     0.028 A 
HETATM    7  C7  UNL     1      23.684   6.196  -9.048  1.00  0.00     0.039 A 
HETATM    8  C8  UNL     1      24.488   6.453 -10.169  1.00  0.00     0.120 A 
ENDROOT
BRANCH   8   9
HETATM    9  N2  UNL     1      24.893   7.781 -10.439  1.00  0.00    -0.114 N 
HETATM   10  O3  UNL     1      24.145   8.484 -11.132  1.00  0.00    -0.532 OA
HETATM   11  O4  UNL     1      26.063   8.273  -9.955  1.00  0.00    -0.532 OA
ENDBRANCH   8   9
BRANCH   5  12
HETATM   12  S1  UNL     1      23.058   2.224  -9.096  1.00  0.00     0.256 S 
HETATM   13  O1  UNL     1      21.888   2.341  -8.135  1.00  0.00    -0.201 OA
HETATM   14  O2  UNL     1      24.122   1.423  -8.414  1.00  0.00    -0.201 OA
BRANCH  12  15
HETATM   15  N1  UNL     1      22.494   1.405 -10.532  1.00  0.00    -0.324 N 
ATOM     16  H12 UNL     1      22.974   1.432 -11.432  1.00  0.00     0.169 HD
ATOM     17  H11 UNL     1      21.628   0.907 -10.333  1.00  0.00     0.169 HD
ENDBRANCH  12  15
ENDBRANCH   5  12
TORSDOF 3
ENDMDL
MODEL 2
REMARK VINA RESULT: -6.368488236      2.761      5.490
REMARK  3 active torsions:
REMARK  status: ('A' for Active; 'I' for Inactive)
REMARK    1  A    between atoms: C5_5  and  S1_6 
REMARK    2  A    between atoms: S1_6  and  N1_7 
REMARK    3  A    between atoms: C8_14  and  N2_15 
ROOT
HETATM    1  C1  UNL     1      27.890   3.129  -7.952  1.00  0.00     0.103 C 
HETATM    2  C2  UNL     1      26.952   3.808  -8.348  1.00  0.00    -0.146 C 
HETATM    3  C3  UNL     1      25.861   4.626  -8.831  1.00  0.00     0.039 A 
HETATM    4  C4  UNL     1      26.134   5.849  -9.450  1.00  0.00     0.047 A 
HETATM    5  C5  UNL     1      25.117   6.642  -9.918  1.00  0.00     0.080 A 
HETATM    6  C6  UNL     1      23.833   6.182  -9.751  1.00  0.00     0.028 A 
HETATM    7  C7  UNL     1      23.562   4.986  -9.147  1.00  0.00     0.039 A 
HETATM    8  C8  UNL     1      24.581   4.156  -8.658  1.00  0.00     0.120 A 
ENDROOT
BRANCH   8   9
HETATM    9  N2  UNL     1      24.238   2.930  -8.043  1.00  0.00    -0.114 N 
HETATM   10  O3  UNL     1      23.867   2.960  -6.862  1.00  0.00    -0.532 OA
HETATM   11  O4  UNL     1      24.312   1.755  -8.722  1.00  0.00    -0.532 OA
ENDBRANCH   8   9
BRANCH   5  12
HETATM   12  S1  UNL     1      25.459   8.176 -10.695  1.00  0.00     0.256 S 
HETATM   13  O1  UNL     1      24.216   9.043 -10.604  1.00  0.00    -0.201 OA
HETATM   14  O2  UNL     1      25.790   8.015 -12.146  1.00  0.00    -0.201 OA
BRANCH  12  15
HETATM   15  N1  UNL     1      26.752   8.997  -9.855  1.00  0.00    -0.324 N 
ATOM     16  H12 UNL     1      26.607   9.692  -9.123  1.00  0.00     0.169 HD
ATOM     17  H11 UNL     1      27.654   8.679 -10.206  1.00  0.00     0.169 HD
ENDBRANCH  12  15
ENDBRANCH   5  12
TORSDOF 3
ENDMDL
MODEL 3
REMARK VINA RESULT: -6.289677857      2.260      5.243
REMARK  3 active torsions:
REMARK  status: ('A' for Active; 'I' for Inactive)
REMARK    1  A    between atoms: C5_5  and  S1_6 
REMARK    2  A    between atoms: S1_6  and  N1_7 
REMARK    3  A    between atoms: C8_14  and  N2_15 
ROOT
HETATM    1  C1  UNL     1      25.103   1.481 -10.640  1.00  0.00     0.103 C 
HETATM    2  C2  UNL     1      24.810   2.607 -10.259  1.00  0.00    -0.146 C 
HETATM    3  C3  UNL     1      24.472   3.948  -9.834  1.00  0.00     0.039 A 
HETATM    4  C4  UNL     1      24.902   5.043 -10.587  1.00  0.00     0.047 A 
HETATM    5  C5  UNL     1      24.593   6.323 -10.205  1.00  0.00     0.080 A 
HETATM    6  C6  UNL     1      23.848   6.476  -9.061  1.00  0.00     0.028 A 
HETATM    7  C7  UNL     1      23.424   5.408  -8.321  1.00  0.00     0.039 A 
HETATM    8  C8  UNL     1      23.726   4.088  -8.687  1.00  0.00     0.120 A 
ENDROOT
BRANCH   8   9
HETATM    9  N2  UNL     1      23.259   3.023  -7.882  1.00  0.00    -0.114 N 
HETATM   10  O3  UNL     1      23.921   2.724  -6.878  1.00  0.00    -0.532 OA
HETATM   11  O4  UNL     1      22.122   2.349  -8.194  1.00  0.00    -0.532 OA
ENDBRANCH   8   9
BRANCH   5  12
HETATM   12  S1  UNL     1      25.133   7.697 -11.151  1.00  0.00     0.256 S 
HETATM   13  O1  UNL     1      23.925   8.561 -11.468  1.00  0.00    -0.201 OA
HETATM   14  O2  UNL     1      25.744   7.284 -12.453  1.00  0.00    -0.201 OA
BRANCH  12  15
HETATM   15  N1  UNL     1      26.254   8.661 -10.221  1.00  0.00    -0.324 N 
ATOM     16  H12 UNL     1      26.399   9.661 -10.358  1.00  0.00     0.169 HD
ATOM     17  H11 UNL     1      26.730   8.078  -9.533  1.00  0.00     0.169 HD
ENDBRANCH  12  15
ENDBRANCH   5  12
TORSDOF 3
ENDMDL
MODEL 4
REMARK VINA RESULT: -6.273570532      3.795      5.152
REMARK  3 active torsions:
REMARK  status: ('A' for Active; 'I' for Inactive)
REMARK    1  A    between atoms: C5_5  and  S1_6 
REMARK    2  A    between atoms: S1_6  and  N1_7 
REMARK    3  A    between atoms: C8_14  and  N2_15 
ROOT
HETATM    1  C1  UNL     1      22.291   4.605 -10.086  1.00  0.00     0.103 C 
HETATM    2  C2  UNL     1      23.501   4.435 -10.019  1.00  0.00    -0.146 C 
HETATM    3  C3  UNL     1      24.935   4.243  -9.968  1.00  0.00     0.039 A 
HETATM    4  C4  UNL     1      25.670   4.200 -11.155  1.00  0.00     0.047 A 
HETATM    5  C5  UNL     1      27.030   4.020 -11.132  1.00  0.00     0.080 A 
HETATM    6  C6  UNL     1      27.627   3.887  -9.903  1.00  0.00     0.028 A 
HETATM    7  C7  UNL     1      26.911   3.930  -8.738  1.00  0.00     0.039 A 
HETATM    8  C8  UNL     1      25.520   4.111  -8.731  1.00  0.00     0.120 A 
ENDROOT
BRANCH   8   9
HETATM    9  N2  UNL     1      24.834   4.147  -7.495  1.00  0.00    -0.114 N 
HETATM   10  O3  UNL     1      24.981   5.149  -6.782  1.00  0.00    -0.532 OA
HETATM   11  O4  UNL     1      24.039   3.119  -7.100  1.00  0.00    -0.532 OA
ENDBRANCH   8   9
BRANCH   5  12
HETATM   12  S1  UNL     1      27.953   3.966 -12.622  1.00  0.00     0.256 S 
HETATM   13  O1  UNL     1      29.414   4.209 -12.286  1.00  0.00    -0.201 OA
HETATM   14  O2  UNL     1      27.533   5.029 -13.589  1.00  0.00    -0.201 OA
BRANCH  12  15
HETATM   15  N1  UNL     1      27.824   2.384 -13.350  1.00  0.00    -0.324 N 
ATOM     16  H12 UNL     1      28.617   1.766 -13.520  1.00  0.00     0.169 HD
ATOM     17  H11 UNL     1      26.850   2.180 -13.573  1.00  0.00     0.169 HD
ENDBRANCH  12  15
ENDBRANCH   5  12
TORSDOF 3
ENDMDL
MODEL 5
REMARK VINA RESULT: -6.260679552      2.964      3.348
REMARK  3 active torsions:
REMARK  status: ('A' for Active; 'I' for Inactive)
REMARK    1  A    between atoms: C5_5  and  S1_6 
REMARK    2  A    between atoms: S1_6  and  N1_7 
REMARK    3  A    between atoms: C8_14  and  N2_15 
ROOT
HETATM    1  C1  UNL     1      25.607   4.204 -14.091  1.00  0.00     0.103 C 
HETATM    2  C2  UNL     1      25.722   3.958 -12.898  1.00  0.00    -0.146 C 
HETATM    3  C3  UNL     1      25.831   3.656 -11.487  1.00  0.00     0.039 A 
HETATM    4  C4  UNL     1      24.691   3.294 -10.765  1.00  0.00     0.047 A 
HETATM    5  C5  UNL     1      24.769   3.001  -9.428  1.00  0.00     0.080 A 
HETATM    6  C6  UNL     1      26.007   3.079  -8.838  1.00  0.00     0.028 A 
HETATM    7  C7  UNL     1      27.126   3.432  -9.540  1.00  0.00     0.039 A 
HETATM    8  C8  UNL     1      27.075   3.738 -10.908  1.00  0.00     0.120 A 
ENDROOT
BRANCH   8   9
HETATM    9  N2  UNL     1      28.267   4.096 -11.581  1.00  0.00    -0.114 N 
HETATM   10  O3  UNL     1      28.616   5.284 -11.545  1.00  0.00    -0.532 OA
HETATM   11  O4  UNL     1      29.007   3.170 -12.245  1.00  0.00    -0.532 OA
ENDBRANCH   8   9
BRANCH   5  12
HETATM   12  S1  UNL     1      23.338   2.547  -8.523  1.00  0.00     0.256 S 
HETATM   13  O1  UNL     1      23.537   2.963  -7.076  1.00  0.00    -0.201 OA
HETATM   14  O2  UNL     1      23.104   1.068  -8.536  1.00  0.00    -0.201 OA
BRANCH  12  15
HETATM   15  N1  UNL     1      21.943   3.398  -9.140  1.00  0.00    -0.324 N 
ATOM     16  H12 UNL     1      21.252   2.986  -9.766  1.00  0.00     0.169 HD
ATOM     17  H11 UNL     1      21.931   4.353  -8.783  1.00  0.00     0.169 HD
ENDBRANCH  12  15
ENDBRANCH   5  12
TORSDOF 3
ENDMDL
