MODEL 1
REMARK VINA RESULT: -6.946242071      0.000      0.000
REMARK  2 active torsions:
REMARK  status: ('A' for Active; 'I' for Inactive)
REMARK    1  A    between atoms: C1_2  and  C2_3 
REMARK    2  A    between atoms: C2_3  and  N1_4 
ROOT
HETATM    1  N1  UNL     1      25.291   6.160 -11.371  1.00  0.00    -0.369 N 
ATOM      2  H1  UNL     1      25.029   5.748 -12.266  1.00  0.00     0.161 HD
HETATM    3  C3  UNL     1      25.178   5.407 -10.356  1.00  0.00     0.115 A 
HETATM    4  N2  UNL     1      25.495   5.806  -9.027  1.00  0.00    -0.306 N 
ATOM      5  H2  UNL     1      25.835   6.754  -8.870  1.00  0.00     0.170 HD
HETATM    6  C4  UNL     1      25.358   4.943  -7.918  1.00  0.00     0.298 A 
HETATM    7  O2  UNL     1      25.645   5.324  -6.758  1.00  0.00    -0.264 OA
HETATM    8  C5  UNL     1      24.866   3.579  -8.153  1.00  0.00     0.250 A 
HETATM    9  O3  UNL     1      24.733   2.785  -7.173  1.00  0.00    -0.281 OA
HETATM   10  C6  UNL     1      24.536   3.150  -9.499  1.00  0.00     0.034 A 
HETATM   11  C7  UNL     1      24.079   1.865  -9.682  1.00  0.00     0.017 A 
HETATM   12  C8  UNL     1      23.766   1.455 -10.958  1.00  0.00     0.001 A 
HETATM   13  C9  UNL     1      23.902   2.309 -12.055  1.00  0.00     0.001 A 
HETATM   14  C10 UNL     1      24.365   3.583 -11.804  1.00  0.00     0.016 A 
HETATM   15  C11 UNL     1      24.692   4.040 -10.545  1.00  0.00     0.022 A 
ENDROOT
BRANCH   1  16
HETATM   16  C2  UNL     1      25.737   7.504 -11.414  1.00  0.00     0.190 C 
BRANCH  16  17
HETATM   17  C1  UNL     1      24.622   8.426 -11.110  1.00  0.00     0.250 C 
HETATM   18  O1  UNL     1      24.446   8.773  -9.958  1.00  0.00    -0.305 OA
ENDBRANCH  16  17
ENDBRANCH   1  16
TORSDOF 2
ENDMDL
MODEL 2
REMARK VINA RESULT: -6.929720803      2.962      4.905
REMARK  2 active torsions:
REMARK  status: ('A' for Active; 'I' for Inactive)
REMARK    1  A    between atoms: C1_2  and  C2_3 
REMARK    2  A    between atoms: C2_3  and  N1_4 
ROOT
HETATM    1  N1  UNL     1      27.208   2.708  -9.365  1.00  0.00    -0.369 N 
ATOM      2  H1  UNL     1      27.718   3.559  -9.604  1.00  0.00     0.161 HD
HETATM    3  C3  UNL     1      25.950   2.827  -9.253  1.00  0.00     0.115 A 
HETATM    4  N2  UNL     1      25.073   1.754  -8.926  1.00  0.00    -0.306 N 
ATOM      5  H2  UNL     1      25.472   0.828  -8.770  1.00  0.00     0.170 HD
HETATM    6  C4  UNL     1      23.676   1.918  -8.807  1.00  0.00     0.298 A 
HETATM    7  O2  UNL     1      22.930   0.953  -8.518  1.00  0.00    -0.264 OA
HETATM    8  C5  UNL     1      23.111   3.255  -9.032  1.00  0.00     0.250 A 
HETATM    9  O3  UNL     1      21.858   3.428  -8.931  1.00  0.00    -0.281 OA
HETATM   10  C6  UNL     1      23.984   4.364  -9.366  1.00  0.00     0.034 A 
HETATM   11  C7  UNL     1      23.419   5.602  -9.569  1.00  0.00     0.017 A 
HETATM   12  C8  UNL     1      24.245   6.656  -9.887  1.00  0.00     0.001 A 
HETATM   13  C9  UNL     1      25.627   6.493 -10.004  1.00  0.00     0.001 A 
HETATM   14  C10 UNL     1      26.130   5.227  -9.788  1.00  0.00     0.016 A 
HETATM   15  C11 UNL     1      25.345   4.141  -9.468  1.00  0.00     0.022 A 
ENDROOT
BRANCH   1  16
HETATM   16  C2  UNL     1      27.992   1.540  -9.201  1.00  0.00     0.190 C 
BRANCH  16  17
HETATM   17  C1  UNL     1      28.322   1.339  -7.773  1.00  0.00     0.250 C 
HETATM   18  O1  UNL     1      27.491   0.830  -7.046  1.00  0.00    -0.305 OA
ENDBRANCH  16  17
ENDBRANCH   1  16
TORSDOF 2
ENDMDL
MODEL 3
REMARK VINA RESULT: -6.878567299      2.595      4.475
REMARK  2 active torsions:
REMARK  status: ('A' for Active; 'I' for Inactive)
REMARK    1  A    between atoms: C1_2  and  C2_3 
REMARK    2  A    between atoms: C2_3  and  N1_4 
ROOT
HETATM    1  N1  UNL     1      27.282   1.601  -8.862  1.00  0.00    -0.369 N 
ATOM      2  H1  UNL     1      27.078   0.839  -9.509  1.00  0.00     0.161 HD
HETATM    3  C3  UNL     1      26.455   2.563  -8.859  1.00  0.00     0.115 A 
HETATM    4  N2  UNL     1      26.572   3.713  -8.027  1.00  0.00    -0.306 N 
ATOM      5  H2  UNL     1      27.367   3.777  -7.391  1.00  0.00     0.170 HD
HETATM    6  C4  UNL     1      25.634   4.768  -8.046  1.00  0.00     0.298 A 
HETATM    7  O2  UNL     1      25.764   5.768  -7.301  1.00  0.00    -0.264 OA
HETATM    8  C5  UNL     1      24.493   4.668  -8.966  1.00  0.00     0.250 A 
HETATM    9  O3  UNL     1      23.637   5.603  -9.002  1.00  0.00    -0.281 OA
HETATM   10  C6  UNL     1      24.353   3.506  -9.823  1.00  0.00     0.034 A 
HETATM   11  C7  UNL     1      23.271   3.447 -10.671  1.00  0.00     0.017 A 
HETATM   12  C8  UNL     1      23.135   2.346 -11.485  1.00  0.00     0.001 A 
HETATM   13  C9  UNL     1      24.062   1.302 -11.466  1.00  0.00     0.001 A 
HETATM   14  C10 UNL     1      25.124   1.423 -10.593  1.00  0.00     0.016 A 
HETATM   15  C11 UNL     1      25.304   2.505  -9.759  1.00  0.00     0.022 A 
ENDROOT
BRANCH   1  16
HETATM   16  C2  UNL     1      28.453   1.455  -8.080  1.00  0.00     0.190 C 
BRANCH  16  17
HETATM   17  C1  UNL     1      28.158   0.692  -6.848  1.00  0.00     0.250 C 
HETATM   18  O1  UNL     1      28.555   1.123  -5.783  1.00  0.00    -0.305 OA
ENDBRANCH  16  17
ENDBRANCH   1  16
TORSDOF 2
ENDMDL
MODEL 4
REMARK VINA RESULT: -6.869839969      3.642      4.746
REMARK  2 active torsions:
REMARK  status: ('A' for Active; 'I' for Inactive)
REMARK    1  A    between atoms: C1_2  and  C2_3 
REMARK    2  A    between atoms: C2_3  and  N1_4 
ROOT
HETATM    1  N1  UNL     1      27.379   2.902  -9.233  1.00  0.00    -0.369 N 
ATOM      2  H1  UNL     1      27.973   3.282  -9.970  1.00  0.00     0.161 HD
HETATM    3  C3  UNL     1      26.235   2.492  -9.597  1.00  0.00     0.115 A 
HETATM    4  N2  UNL     1      25.269   1.933  -8.713  1.00  0.00    -0.306 N 
ATOM      5  H2  UNL     1      25.502   1.852  -7.723  1.00  0.00     0.170 HD
HETATM    6  C4  UNL     1      24.003   1.486  -9.149  1.00  0.00     0.298 A 
HETATM    7  O2  UNL     1      23.173   0.997  -8.345  1.00  0.00    -0.264 OA
HETATM    8  C5  UNL     1      23.675   1.607 -10.575  1.00  0.00     0.250 A 
HETATM    9  O3  UNL     1      22.544   1.213 -10.992  1.00  0.00    -0.281 OA
HETATM   10  C6  UNL     1      24.643   2.174 -11.495  1.00  0.00     0.034 A 
HETATM   11  C7  UNL     1      24.301   2.272 -12.825  1.00  0.00     0.017 A 
HETATM   12  C8  UNL     1      25.217   2.809 -13.700  1.00  0.00     0.001 A 
HETATM   13  C9  UNL     1      26.470   3.251 -13.269  1.00  0.00     0.001 A 
HETATM   14  C10 UNL     1      26.750   3.125 -11.924  1.00  0.00     0.016 A 
HETATM   15  C11 UNL     1      25.867   2.594 -11.009  1.00  0.00     0.022 A 
ENDROOT
BRANCH   1  16
HETATM   16  C2  UNL     1      27.933   2.898  -7.930  1.00  0.00     0.190 C 
BRANCH  16  17
HETATM   17  C1  UNL     1      28.377   1.535  -7.564  1.00  0.00     0.250 C 
HETATM   18  O1  UNL     1      27.627   0.829  -6.917  1.00  0.00    -0.305 OA
ENDBRANCH  16  17
ENDBRANCH   1  16
TORSDOF 2
ENDMDL
MODEL 5
REMARK VINA RESULT: -6.826831609      3.796      4.974
REMARK  2 active torsions:
REMARK  status: ('A' for Active; 'I' for Inactive)
REMARK    1  A    between atoms: C1_2  and  C2_3 
REMARK    2  A    between atoms: C2_3  and  N1_4 
ROOT
HETATM    1  N1  UNL     1      22.360   1.899  -9.590  1.00  0.00    -0.369 N 
ATOM      2  H1  UNL     1      21.916   2.075 -10.491  1.00  0.00     0.161 HD
HETATM    3  C3  UNL     1      23.629   1.891  -9.587  1.00  0.00     0.115 A 
HETATM    4  N2  UNL     1      24.422   1.663  -8.427  1.00  0.00    -0.306 N 
ATOM      5  H2  UNL     1      23.951   1.494  -7.538  1.00  0.00     0.170 HD
HETATM    6  C4  UNL     1      25.834   1.659  -8.456  1.00  0.00     0.298 A 
HETATM    7  O2  UNL     1      26.505   1.455  -7.417  1.00  0.00    -0.264 OA
HETATM    8  C5  UNL     1      26.505   1.901  -9.740  1.00  0.00     0.250 A 
HETATM    9  O3  UNL     1      27.772   1.903  -9.792  1.00  0.00    -0.281 OA
HETATM   10  C6  UNL     1      25.717   2.136 -10.935  1.00  0.00     0.034 A 
HETATM   11  C7  UNL     1      26.380   2.359 -12.120  1.00  0.00     0.017 A 
HETATM   12  C8  UNL     1      25.635   2.583 -13.256  1.00  0.00     0.001 A 
HETATM   13  C9  UNL     1      24.239   2.586 -13.227  1.00  0.00     0.001 A 
HETATM   14  C10 UNL     1      23.636   2.356 -12.008  1.00  0.00     0.016 A 
HETATM   15  C11 UNL     1      24.337   2.128 -10.844  1.00  0.00     0.022 A 
ENDROOT
BRANCH   1  16
HETATM   16  C2  UNL     1      21.484   1.694  -8.496  1.00  0.00     0.190 C 
BRANCH  16  17
HETATM   17  C1  UNL     1      20.920   0.328  -8.537  1.00  0.00     0.250 C 
HETATM   18  O1  UNL     1      21.513  -0.567  -7.967  1.00  0.00    -0.305 OA
ENDBRANCH  16  17
ENDBRANCH   1  16
TORSDOF 2
ENDMDL
