MODEL 1
REMARK VINA RESULT: -6.648029464      0.000      0.000
REMARK  4 active torsions:
REMARK  status: ('A' for Active; 'I' for Inactive)
REMARK    1  A    between atoms: C2_2  and  O1_3 
REMARK    2  A    between atoms: O1_3  and  C3_4 
REMARK    3  A    between atoms: C9_12  and  N2_13 
REMARK    4  A    between atoms: N4_19  and  O2_20 
ROOT
HETATM    1  C3  UNL     1      23.914   3.030 -10.841  1.00  0.00     0.097 A 
HETATM    2  C4  UNL     1      22.870   3.874 -10.637  1.00  0.00     0.039 A 
HETATM    3  C5  UNL     1      22.899   4.737  -9.530  1.00  0.00     0.005 A 
HETATM    4  C6  UNL     1      23.961   4.739  -8.656  1.00  0.00     0.034 A 
HETATM    5  C7  UNL     1      25.024   3.873  -8.873  1.00  0.00     0.093 A 
HETATM    6  C8  UNL     1      24.981   3.042  -9.953  1.00  0.00     0.097 A 
HETATM    7  N1  UNL     1      26.036   2.207 -10.136  1.00  0.00    -0.336 N 
ATOM      8  H1  UNL     1      26.024   1.576 -10.938  1.00  0.00     0.168 HD
HETATM    9  C9  UNL     1      27.093   2.175  -9.311  1.00  0.00     0.140 A 
HETATM   10  C10 UNL     1      27.090   3.033  -8.236  1.00  0.00     0.186 A 
HETATM   11  C11 UNL     1      28.204   3.018  -7.343  1.00  0.00     0.124 C 
HETATM   12  N3  UNL     1      29.102   2.993  -6.613  1.00  0.00    -0.190 NA
HETATM   13  N4  UNL     1      26.081   3.875  -8.004  1.00  0.00    -0.208 N 
ENDROOT
BRANCH   9  14
HETATM   14  N2  UNL     1      28.037   1.353  -9.569  1.00  0.00    -0.383 N 
ATOM     15  H22 UNL     1      28.079   0.776 -10.409  1.00  0.00     0.157 HD
ATOM     16  H21 UNL     1      28.798   1.265  -8.896  1.00  0.00     0.157 HD
ENDBRANCH   9  14
BRANCH  13  17
HETATM   17  O2  UNL     1      26.053   4.750  -6.930  1.00  0.00    -0.281 OA
ATOM     18  H2  UNL     1      26.754   4.705  -6.291  1.00  0.00     0.245 HD
ENDBRANCH  13  17
BRANCH   1  19
HETATM   19  O1  UNL     1      23.942   2.166 -11.901  1.00  0.00    -0.349 OA
BRANCH  19  20
HETATM   20  C2  UNL     1      24.095   2.535 -13.213  1.00  0.00     0.171 C 
HETATM   21  C1  UNL     1      25.531   2.859 -13.572  1.00  0.00     0.034 C 
ENDBRANCH  19  20
ENDBRANCH   1  19
TORSDOF 4
ENDMDL
MODEL 2
REMARK VINA RESULT: -6.430662561      3.223      3.816
REMARK  4 active torsions:
REMARK  status: ('A' for Active; 'I' for Inactive)
REMARK    1  A    between atoms: C2_2  and  O1_3 
REMARK    2  A    between atoms: O1_3  and  C3_4 
REMARK    3  A    between atoms: C9_12  and  N2_13 
REMARK    4  A    between atoms: N4_19  and  O2_20 
ROOT
HETATM    1  C3  UNL     1      25.688   5.562 -11.968  1.00  0.00     0.097 A 
HETATM    2  C4  UNL     1      25.479   6.873 -11.683  1.00  0.00     0.039 A 
HETATM    3  C5  UNL     1      24.544   7.214 -10.692  1.00  0.00     0.005 A 
HETATM    4  C6  UNL     1      23.842   6.246 -10.012  1.00  0.00     0.034 A 
HETATM    5  C7  UNL     1      24.063   4.908 -10.311  1.00  0.00     0.093 A 
HETATM    6  C8  UNL     1      24.974   4.594 -11.275  1.00  0.00     0.097 A 
HETATM    7  N1  UNL     1      25.166   3.277 -11.542  1.00  0.00    -0.336 N 
ATOM      8  H1  UNL     1      25.843   3.019 -12.261  1.00  0.00     0.168 HD
HETATM    9  C9  UNL     1      24.505   2.299 -10.905  1.00  0.00     0.140 A 
HETATM   10  C10 UNL     1      23.596   2.667  -9.940  1.00  0.00     0.186 A 
HETATM   11  C11 UNL     1      22.880   1.644  -9.247  1.00  0.00     0.124 C 
HETATM   12  N3  UNL     1      22.291   0.813  -8.697  1.00  0.00    -0.190 NA
HETATM   13  N4  UNL     1      23.365   3.945  -9.634  1.00  0.00    -0.208 N 
ENDROOT
BRANCH   9  14
HETATM   14  N2  UNL     1      24.756   1.089 -11.228  1.00  0.00    -0.383 N 
ATOM     15  H22 UNL     1      24.209   0.287 -10.915  1.00  0.00     0.157 HD
ATOM     16  H21 UNL     1      25.554   0.908 -11.837  1.00  0.00     0.157 HD
ENDBRANCH   9  14
BRANCH  13  17
HETATM   17  O2  UNL     1      22.456   4.342  -8.667  1.00  0.00    -0.281 OA
ATOM     18  H2  UNL     1      22.294   3.763  -7.932  1.00  0.00     0.245 HD
ENDBRANCH  13  17
BRANCH   1  19
HETATM   19  O1  UNL     1      26.584   5.169 -12.923  1.00  0.00    -0.349 OA
BRANCH  19  20
HETATM   20  C2  UNL     1      26.588   5.603 -14.225  1.00  0.00     0.171 C 
HETATM   21  C1  UNL     1      25.654   4.809 -15.115  1.00  0.00     0.034 C 
ENDBRANCH  19  20
ENDBRANCH   1  19
TORSDOF 4
ENDMDL
MODEL 3
REMARK VINA RESULT: -6.406255136      3.134      4.911
REMARK  4 active torsions:
REMARK  status: ('A' for Active; 'I' for Inactive)
REMARK    1  A    between atoms: C2_2  and  O1_3 
REMARK    2  A    between atoms: O1_3  and  C3_4 
REMARK    3  A    between atoms: C9_12  and  N2_13 
REMARK    4  A    between atoms: N4_19  and  O2_20 
ROOT
HETATM    1  C3  UNL     1      25.377   6.219  -9.748  1.00  0.00     0.097 A 
HETATM    2  C4  UNL     1      26.730   6.225  -9.863  1.00  0.00     0.039 A 
HETATM    3  C5  UNL     1      27.429   5.013  -9.745  1.00  0.00     0.005 A 
HETATM    4  C6  UNL     1      26.768   3.829  -9.517  1.00  0.00     0.034 A 
HETATM    5  C7  UNL     1      25.385   3.832  -9.402  1.00  0.00     0.093 A 
HETATM    6  C8  UNL     1      24.721   5.017  -9.520  1.00  0.00     0.097 A 
HETATM    7  N1  UNL     1      23.368   4.985  -9.401  1.00  0.00    -0.336 N 
ATOM      8  H1  UNL     1      22.851   5.861  -9.485  1.00  0.00     0.168 HD
HETATM    9  C9  UNL     1      22.682   3.855  -9.179  1.00  0.00     0.140 A 
HETATM   10  C10 UNL     1      23.397   2.685  -9.069  1.00  0.00     0.186 A 
HETATM   11  C11 UNL     1      22.688   1.468  -8.833  1.00  0.00     0.124 C 
HETATM   12  N3  UNL     1      22.112   0.485  -8.627  1.00  0.00    -0.190 NA
HETATM   13  N4  UNL     1      24.727   2.654  -9.176  1.00  0.00    -0.208 N 
ENDROOT
BRANCH   9  14
HETATM   14  N2  UNL     1      21.410   3.929  -9.084  1.00  0.00    -0.383 N 
ATOM     15  H22 UNL     1      20.865   3.493  -8.340  1.00  0.00     0.157 HD
ATOM     16  H21 UNL     1      20.902   4.456  -9.794  1.00  0.00     0.157 HD
ENDBRANCH   9  14
BRANCH  13  17
HETATM   17  O2  UNL     1      25.470   1.490  -9.069  1.00  0.00    -0.281 OA
ATOM     18  H2  UNL     1      25.713   1.033  -9.866  1.00  0.00     0.245 HD
ENDBRANCH  13  17
BRANCH   1  19
HETATM   19  O1  UNL     1      24.642   7.367  -9.853  1.00  0.00    -0.349 OA
BRANCH  19  20
HETATM   20  C2  UNL     1      24.544   8.139 -10.983  1.00  0.00     0.171 C 
HETATM   21  C1  UNL     1      24.496   9.623 -10.683  1.00  0.00     0.034 C 
ENDBRANCH  19  20
ENDBRANCH   1  19
TORSDOF 4
ENDMDL
MODEL 4
REMARK VINA RESULT: -6.366706215      2.612      4.136
REMARK  4 active torsions:
REMARK  status: ('A' for Active; 'I' for Inactive)
REMARK    1  A    between atoms: C2_2  and  O1_3 
REMARK    2  A    between atoms: O1_3  and  C3_4 
REMARK    3  A    between atoms: C9_12  and  N2_13 
REMARK    4  A    between atoms: N4_19  and  O2_20 
ROOT
HETATM    1  C3  UNL     1      26.459   4.781 -11.163  1.00  0.00     0.097 A 
HETATM    2  C4  UNL     1      27.645   4.981 -10.533  1.00  0.00     0.039 A 
HETATM    3  C5  UNL     1      27.897   4.313  -9.325  1.00  0.00     0.005 A 
HETATM    4  C6  UNL     1      26.965   3.465  -8.773  1.00  0.00     0.034 A 
HETATM    5  C7  UNL     1      25.755   3.266  -9.424  1.00  0.00     0.093 A 
HETATM    6  C8  UNL     1      25.527   3.922 -10.597  1.00  0.00     0.097 A 
HETATM    7  N1  UNL     1      24.333   3.706 -11.208  1.00  0.00    -0.336 N 
ATOM      8  H1  UNL     1      24.141   4.187 -12.086  1.00  0.00     0.168 HD
HETATM    9  C9  UNL     1      23.395   2.888 -10.707  1.00  0.00     0.140 A 
HETATM   10  C10 UNL     1      23.673   2.248  -9.522  1.00  0.00     0.186 A 
HETATM   11  C11 UNL     1      22.690   1.372  -8.969  1.00  0.00     0.124 C 
HETATM   12  N3  UNL     1      21.886   0.673  -8.516  1.00  0.00    -0.190 NA
HETATM   13  N4  UNL     1      24.828   2.422  -8.876  1.00  0.00    -0.208 N 
ENDROOT
BRANCH   9  14
HETATM   14  N2  UNL     1      22.304   2.750 -11.358  1.00  0.00    -0.383 N 
ATOM     15  H22 UNL     1      22.064   1.923 -11.904  1.00  0.00     0.157 HD
ATOM     16  H21 UNL     1      21.628   3.513 -11.332  1.00  0.00     0.157 HD
ENDBRANCH   9  14
BRANCH  13  17
HETATM   17  O2  UNL     1      25.133   1.790  -7.681  1.00  0.00    -0.281 OA
ATOM     18  H2  UNL     1      25.447   0.894  -7.710  1.00  0.00     0.245 HD
ENDBRANCH  13  17
BRANCH   1  19
HETATM   19  O1  UNL     1      26.157   5.405 -12.342  1.00  0.00    -0.349 OA
BRANCH  19  20
HETATM   20  C2  UNL     1      26.718   5.105 -13.557  1.00  0.00     0.171 C 
HETATM   21  C1  UNL     1      25.733   4.485 -14.527  1.00  0.00     0.034 C 
ENDBRANCH  19  20
ENDBRANCH   1  19
TORSDOF 4
ENDMDL
MODEL 5
REMARK VINA RESULT: -6.346968752      2.711      4.272
REMARK  4 active torsions:
REMARK  status: ('A' for Active; 'I' for Inactive)
REMARK    1  A    between atoms: C2_2  and  O1_3 
REMARK    2  A    between atoms: O1_3  and  C3_4 
REMARK    3  A    between atoms: C9_12  and  N2_13 
REMARK    4  A    between atoms: N4_19  and  O2_20 
ROOT
HETATM    1  C3  UNL     1      25.841   4.989 -12.955  1.00  0.00     0.097 A 
HETATM    2  C4  UNL     1      25.714   4.152 -14.016  1.00  0.00     0.039 A 
HETATM    3  C5  UNL     1      25.158   2.878 -13.817  1.00  0.00     0.005 A 
HETATM    4  C6  UNL     1      24.745   2.469 -12.571  1.00  0.00     0.034 A 
HETATM    5  C7  UNL     1      24.878   3.331 -11.492  1.00  0.00     0.093 A 
HETATM    6  C8  UNL     1      25.419   4.565 -11.702  1.00  0.00     0.097 A 
HETATM    7  N1  UNL     1      25.536   5.384 -10.625  1.00  0.00    -0.336 N 
ATOM      8  H1  UNL     1      25.938   6.312 -10.759  1.00  0.00     0.168 HD
HETATM    9  C9  UNL     1      25.145   5.028  -9.392  1.00  0.00     0.140 A 
HETATM   10  C10 UNL     1      24.605   3.773  -9.231  1.00  0.00     0.186 A 
HETATM   11  C11 UNL     1      24.182   3.371  -7.928  1.00  0.00     0.124 C 
HETATM   12  N3  UNL     1      23.853   3.042  -6.867  1.00  0.00    -0.190 NA
HETATM   13  N4  UNL     1      24.466   2.925 -10.252  1.00  0.00    -0.208 N 
ENDROOT
BRANCH   9  14
HETATM   14  N2  UNL     1      25.296   5.870  -8.443  1.00  0.00    -0.383 N 
ATOM     15  H22 UNL     1      24.682   6.669  -8.284  1.00  0.00     0.157 HD
ATOM     16  H21 UNL     1      26.079   5.740  -7.803  1.00  0.00     0.157 HD
ENDBRANCH   9  14
BRANCH  13  17
HETATM   17  O2  UNL     1      23.926   1.656 -10.117  1.00  0.00    -0.281 OA
ATOM     18  H2  UNL     1      24.498   0.906 -10.225  1.00  0.00     0.245 HD
ENDBRANCH  13  17
BRANCH   1  19
HETATM   19  O1  UNL     1      26.375   6.241 -13.086  1.00  0.00    -0.349 OA
BRANCH  19  20
HETATM   20  C2  UNL     1      26.488   6.928 -14.269  1.00  0.00     0.171 C 
HETATM   21  C1  UNL     1      26.117   8.391 -14.141  1.00  0.00     0.034 C 
ENDBRANCH  19  20
ENDBRANCH   1  19
TORSDOF 4
ENDMDL
