MODEL 1
REMARK VINA RESULT: -6.651769129      0.000      0.000
REMARK  2 active torsions:
REMARK  status: ('A' for Active; 'I' for Inactive)
REMARK    1  A    between atoms: C5_7  and  C6_8 
REMARK    2  A    between atoms: C6_8  and  N2_9 
ROOT
HETATM    1  N1  UNL     1      25.757   5.004  -7.014  1.00  0.00    -0.191 NA
HETATM    2  C1  UNL     1      26.115   4.907  -8.127  1.00  0.00     0.100 C 
HETATM    3  C2  UNL     1      26.552   4.811  -9.526  1.00  0.00     0.059 A 
HETATM    4  C3  UNL     1      27.850   4.715  -9.853  1.00  0.00     0.031 A 
HETATM    5  C4  UNL     1      28.160   4.651 -11.185  1.00  0.00     0.052 A 
HETATM    6  S1  UNL     1      26.641   4.727 -11.940  1.00  0.00    -0.103 SA
HETATM    7  C5  UNL     1      25.637   4.837 -10.527  1.00  0.00     0.021 A 
ENDROOT
BRANCH   7   8
HETATM    8  C6  UNL     1      24.140   4.900 -10.538  1.00  0.00     0.180 C 
BRANCH   8   9
HETATM    9  N2  UNL     1      23.527   3.677 -10.076  1.00  0.00    -0.305 N 
HETATM   10  C7  UNL     1      23.689   2.478 -10.635  1.00  0.00     0.101 A 
HETATM   11  C8  UNL     1      23.088   1.326 -10.153  1.00  0.00     0.092 A 
HETATM   12  C9  UNL     1      22.280   1.409  -9.040  1.00  0.00     0.250 A 
HETATM   13  O1  UNL     1      21.715   0.369  -8.573  1.00  0.00    -0.268 OA
HETATM   14  N3  UNL     1      22.122   2.622  -8.481  1.00  0.00    -0.275 N 
HETATM   15  C10 UNL     1      22.719   3.718  -8.974  1.00  0.00     0.329 A 
ATOM     16  H3  UNL     1      21.530   2.712  -7.656  1.00  0.00     0.173 HD
HETATM   17  O2  UNL     1      22.559   4.864  -8.432  1.00  0.00    -0.246 OA
ENDBRANCH   8   9
ENDBRANCH   7   8
TORSDOF 2
ENDMDL
MODEL 2
REMARK VINA RESULT: -6.604295755      2.486      3.253
REMARK  2 active torsions:
REMARK  status: ('A' for Active; 'I' for Inactive)
REMARK    1  A    between atoms: C5_7  and  C6_8 
REMARK    2  A    between atoms: C6_8  and  N2_9 
ROOT
HETATM    1  N1  UNL     1      26.874   0.382 -10.980  1.00  0.00    -0.191 NA
HETATM    2  C1  UNL     1      27.198   1.506 -11.078  1.00  0.00     0.100 C 
HETATM    3  C2  UNL     1      27.625   2.908 -11.183  1.00  0.00     0.059 A 
HETATM    4  C3  UNL     1      28.072   3.423 -12.339  1.00  0.00     0.031 A 
HETATM    5  C4  UNL     1      28.465   4.734 -12.332  1.00  0.00     0.052 A 
HETATM    6  S1  UNL     1      28.203   5.209 -10.722  1.00  0.00    -0.103 SA
HETATM    7  C5  UNL     1      27.591   3.711 -10.091  1.00  0.00     0.021 A 
ENDROOT
BRANCH   7   8
HETATM    8  C6  UNL     1      27.133   3.495  -8.681  1.00  0.00     0.180 C 
BRANCH   8   9
HETATM    9  N2  UNL     1      25.708   3.275  -8.584  1.00  0.00    -0.305 N 
HETATM   10  C7  UNL     1      24.771   4.109  -9.034  1.00  0.00     0.101 A 
HETATM   11  C8  UNL     1      23.413   3.855  -8.929  1.00  0.00     0.092 A 
HETATM   12  C9  UNL     1      22.996   2.685  -8.332  1.00  0.00     0.250 A 
HETATM   13  O1  UNL     1      21.756   2.423  -8.221  1.00  0.00    -0.268 OA
HETATM   14  N3  UNL     1      23.949   1.849  -7.881  1.00  0.00    -0.275 N 
HETATM   15  C10 UNL     1      25.256   2.127  -7.999  1.00  0.00     0.329 A 
ATOM     16  H3  UNL     1      23.668   0.976  -7.435  1.00  0.00     0.173 HD
HETATM   17  O2  UNL     1      26.149   1.322  -7.565  1.00  0.00    -0.246 OA
ENDBRANCH   8   9
ENDBRANCH   7   8
TORSDOF 2
ENDMDL
MODEL 3
REMARK VINA RESULT: -6.590004078      1.872      2.072
REMARK  2 active torsions:
REMARK  status: ('A' for Active; 'I' for Inactive)
REMARK    1  A    between atoms: C5_7  and  C6_8 
REMARK    2  A    between atoms: C6_8  and  N2_9 
ROOT
HETATM    1  N1  UNL     1      25.659   5.143  -6.930  1.00  0.00    -0.191 NA
HETATM    2  C1  UNL     1      26.014   5.271  -8.041  1.00  0.00     0.100 C 
HETATM    3  C2  UNL     1      26.434   5.418  -9.441  1.00  0.00     0.059 A 
HETATM    4  C3  UNL     1      26.553   6.624 -10.017  1.00  0.00     0.031 A 
HETATM    5  C4  UNL     1      26.931   6.658 -11.332  1.00  0.00     0.052 A 
HETATM    6  S1  UNL     1      27.110   5.016 -11.727  1.00  0.00    -0.103 SA
HETATM    7  C5  UNL     1      26.695   4.319 -10.190  1.00  0.00     0.021 A 
ENDROOT
BRANCH   7   8
HETATM    8  C6  UNL     1      26.700   2.853  -9.882  1.00  0.00     0.180 C 
BRANCH   8   9
HETATM    9  N2  UNL     1      25.378   2.332  -9.622  1.00  0.00    -0.305 N 
HETATM   10  C7  UNL     1      24.372   2.322 -10.495  1.00  0.00     0.101 A 
HETATM   11  C8  UNL     1      23.120   1.803 -10.207  1.00  0.00     0.092 A 
HETATM   12  C9  UNL     1      22.890   1.267  -8.958  1.00  0.00     0.250 A 
HETATM   13  O1  UNL     1      21.750   0.783  -8.664  1.00  0.00    -0.268 OA
HETATM   14  N3  UNL     1      23.911   1.281  -8.083  1.00  0.00    -0.275 N 
HETATM   15  C10 UNL     1      25.111   1.792  -8.395  1.00  0.00     0.329 A 
ATOM     16  H3  UNL     1      23.768   0.890  -7.152  1.00  0.00     0.173 HD
HETATM   17  O2  UNL     1      26.071   1.798  -7.552  1.00  0.00    -0.246 OA
ENDBRANCH   8   9
ENDBRANCH   7   8
TORSDOF 2
ENDMDL
MODEL 4
REMARK VINA RESULT: -6.541467143      3.529      5.279
REMARK  2 active torsions:
REMARK  status: ('A' for Active; 'I' for Inactive)
REMARK    1  A    between atoms: C5_7  and  C6_8 
REMARK    2  A    between atoms: C6_8  and  N2_9 
ROOT
HETATM    1  N1  UNL     1      25.894   5.330  -7.004  1.00  0.00    -0.191 NA
HETATM    2  C1  UNL     1      25.220   4.553  -7.570  1.00  0.00     0.100 C 
HETATM    3  C2  UNL     1      24.385   3.561  -8.258  1.00  0.00     0.059 A 
HETATM    4  C3  UNL     1      23.051   3.692  -8.332  1.00  0.00     0.031 A 
HETATM    5  C4  UNL     1      22.357   2.705  -8.977  1.00  0.00     0.052 A 
HETATM    6  S1  UNL     1      23.576   1.626  -9.460  1.00  0.00    -0.103 SA
HETATM    7  C5  UNL     1      24.955   2.468  -8.823  1.00  0.00     0.021 A 
ENDROOT
BRANCH   7   8
HETATM    8  C6  UNL     1      26.377   2.018  -8.963  1.00  0.00     0.180 C 
BRANCH   8   9
HETATM    9  N2  UNL     1      26.985   2.461 -10.196  1.00  0.00    -0.305 N 
HETATM   10  C7  UNL     1      27.441   3.691 -10.428  1.00  0.00     0.101 A 
HETATM   11  C8  UNL     1      28.027   4.073 -11.624  1.00  0.00     0.092 A 
HETATM   12  C9  UNL     1      28.149   3.144 -12.634  1.00  0.00     0.250 A 
HETATM   13  O1  UNL     1      28.683   3.464 -13.744  1.00  0.00    -0.268 OA
HETATM   14  N3  UNL     1      27.687   1.905 -12.392  1.00  0.00    -0.275 N 
HETATM   15  C10 UNL     1      27.125   1.569 -11.221  1.00  0.00     0.329 A 
ATOM     16  H3  UNL     1      27.766   1.197 -13.123  1.00  0.00     0.173 HD
HETATM   17  O2  UNL     1      26.690   0.387 -11.007  1.00  0.00    -0.246 OA
ENDBRANCH   8   9
ENDBRANCH   7   8
TORSDOF 2
ENDMDL
MODEL 5
REMARK VINA RESULT: -6.492632446      1.314      1.367
REMARK  2 active torsions:
REMARK  status: ('A' for Active; 'I' for Inactive)
REMARK    1  A    between atoms: C5_7  and  C6_8 
REMARK    2  A    between atoms: C6_8  and  N2_9 
ROOT
HETATM    1  N1  UNL     1      27.695   3.353  -7.688  1.00  0.00    -0.191 NA
HETATM    2  C1  UNL     1      27.504   3.865  -8.726  1.00  0.00     0.100 C 
HETATM    3  C2  UNL     1      27.262   4.530 -10.013  1.00  0.00     0.059 A 
HETATM    4  C3  UNL     1      28.196   4.563 -10.976  1.00  0.00     0.031 A 
HETATM    5  C4  UNL     1      27.884   5.225 -12.132  1.00  0.00     0.052 A 
HETATM    6  S1  UNL     1      26.305   5.781 -11.847  1.00  0.00    -0.103 SA
HETATM    7  C5  UNL     1      26.078   5.149 -10.245  1.00  0.00     0.021 A 
ENDROOT
BRANCH   7   8
HETATM    8  C6  UNL     1      24.823   5.285  -9.438  1.00  0.00     0.180 C 
BRANCH   8   9
HETATM    9  N2  UNL     1      24.106   4.038  -9.306  1.00  0.00    -0.305 N 
HETATM   10  C7  UNL     1      23.620   3.321 -10.318  1.00  0.00     0.101 A 
HETATM   11  C8  UNL     1      22.946   2.122 -10.148  1.00  0.00     0.092 A 
HETATM   12  C9  UNL     1      22.761   1.635  -8.872  1.00  0.00     0.250 A 
HETATM   13  O1  UNL     1      22.147   0.537  -8.683  1.00  0.00    -0.268 OA
HETATM   14  N3  UNL     1      23.256   2.365  -7.855  1.00  0.00    -0.275 N 
HETATM   15  C10 UNL     1      23.904   3.522  -8.057  1.00  0.00     0.329 A 
ATOM     16  H3  UNL     1      23.134   2.027  -6.901  1.00  0.00     0.173 HD
HETATM   17  O2  UNL     1      24.367   4.203  -7.080  1.00  0.00    -0.246 OA
ENDBRANCH   8   9
ENDBRANCH   7   8
TORSDOF 2
ENDMDL
