MODEL 1
REMARK VINA RESULT: -6.826051880      0.000      0.000
REMARK  2 active torsions:
REMARK  status: ('A' for Active; 'I' for Inactive)
REMARK    1  A    between atoms: C2_2  and  C3_3 
REMARK    2  A    between atoms: C3_3  and  N1_4 
ROOT
HETATM    1  N1  UNL     1      24.965   2.365 -11.870  1.00  0.00    -0.277 N 
HETATM    2  C4  UNL     1      23.818   2.454 -11.187  1.00  0.00     0.250 A 
HETATM    3  O1  UNL     1      22.812   2.668 -11.889  1.00  0.00    -0.268 OA
HETATM    4  C5  UNL     1      23.544   2.348  -9.829  1.00  0.00     0.077 A 
HETATM    5  C6  UNL     1      24.412   2.024  -8.809  1.00  0.00     0.036 A 
HETATM    6  C7  UNL     1      25.773   1.804  -8.933  1.00  0.00     0.051 A 
HETATM    7  N2  UNL     1      26.319   1.572  -7.713  1.00  0.00    -0.323 N 
ATOM      8  H2  UNL     1      25.727   1.579  -6.883  1.00  0.00     0.169 HD
HETATM    9  C8  UNL     1      27.627   1.333  -7.591  1.00  0.00     0.245 A 
HETATM   10  O2  UNL     1      28.080   1.123  -6.435  1.00  0.00    -0.268 OA
HETATM   11  C9  UNL     1      28.437   1.322  -8.714  1.00  0.00     0.075 A 
HETATM   12  C10 UNL     1      27.929   1.552  -9.968  1.00  0.00     0.025 A 
HETATM   13  C11 UNL     1      26.573   1.796 -10.063  1.00  0.00     0.059 A 
HETATM   14  C12 UNL     1      26.165   2.016 -11.374  1.00  0.00     0.263 A 
HETATM   15  O3  UNL     1      27.052   1.867 -12.254  1.00  0.00    -0.267 OA
ENDROOT
BRANCH   1  16
HETATM   16  C3  UNL     1      24.886   2.678 -13.262  1.00  0.00     0.162 C 
BRANCH  16  17
HETATM   17  C2  UNL     1      25.301   4.042 -13.604  1.00  0.00    -0.017 C 
HETATM   18  C1  UNL     1      25.863   4.291 -14.781  1.00  0.00     0.008 C 
ENDBRANCH  16  17
ENDBRANCH   1  16
TORSDOF 2
ENDMDL
MODEL 2
REMARK VINA RESULT: -6.717858961      2.710      3.945
REMARK  2 active torsions:
REMARK  status: ('A' for Active; 'I' for Inactive)
REMARK    1  A    between atoms: C2_2  and  C3_3 
REMARK    2  A    between atoms: C3_3  and  N1_4 
ROOT
HETATM    1  N1  UNL     1      26.058   3.934 -12.135  1.00  0.00    -0.277 N 
HETATM    2  C4  UNL     1      26.545   2.687 -12.160  1.00  0.00     0.250 A 
HETATM    3  O1  UNL     1      27.558   2.542 -12.870  1.00  0.00    -0.268 OA
HETATM    4  C5  UNL     1      26.123   1.521 -11.535  1.00  0.00     0.077 A 
HETATM    5  C6  UNL     1      25.103   1.366 -10.621  1.00  0.00     0.036 A 
HETATM    6  C7  UNL     1      24.235   2.355 -10.191  1.00  0.00     0.051 A 
HETATM    7  N2  UNL     1      23.319   1.831  -9.339  1.00  0.00    -0.323 N 
ATOM      8  H2  UNL     1      23.350   0.837  -9.111  1.00  0.00     0.169 HD
HETATM    9  C8  UNL     1      22.377   2.605  -8.796  1.00  0.00     0.245 A 
HETATM   10  O2  UNL     1      21.553   2.066  -8.011  1.00  0.00    -0.268 OA
HETATM   11  C9  UNL     1      22.329   3.955  -9.101  1.00  0.00     0.075 A 
HETATM   12  C10 UNL     1      23.234   4.529  -9.959  1.00  0.00     0.025 A 
HETATM   13  C11 UNL     1      24.196   3.703 -10.504  1.00  0.00     0.059 A 
HETATM   14  C12 UNL     1      25.059   4.385 -11.355  1.00  0.00     0.263 A 
HETATM   15  O3  UNL     1      24.892   5.631 -11.418  1.00  0.00    -0.267 OA
ENDROOT
BRANCH   1  16
HETATM   16  C3  UNL     1      26.673   4.860 -13.032  1.00  0.00     0.162 C 
BRANCH  16  17
HETATM   17  C2  UNL     1      25.925   5.096 -14.271  1.00  0.00    -0.017 C 
HETATM   18  C1  UNL     1      26.371   4.603 -15.421  1.00  0.00     0.008 C 
ENDBRANCH  16  17
ENDBRANCH   1  16
TORSDOF 2
ENDMDL
MODEL 3
REMARK VINA RESULT: -6.682812743      1.855      5.524
REMARK  2 active torsions:
REMARK  status: ('A' for Active; 'I' for Inactive)
REMARK    1  A    between atoms: C2_2  and  C3_3 
REMARK    2  A    between atoms: C3_3  and  N1_4 
ROOT
HETATM    1  N1  UNL     1      27.104   1.803  -8.851  1.00  0.00    -0.277 N 
HETATM    2  C4  UNL     1      27.545   1.882 -10.112  1.00  0.00     0.250 A 
HETATM    3  O1  UNL     1      28.678   1.399 -10.295  1.00  0.00    -0.268 OA
HETATM    4  C5  UNL     1      26.965   2.408 -11.259  1.00  0.00     0.077 A 
HETATM    5  C6  UNL     1      25.696   2.924 -11.411  1.00  0.00     0.036 A 
HETATM    6  C7  UNL     1      24.755   3.086 -10.409  1.00  0.00     0.051 A 
HETATM    7  N2  UNL     1      23.642   3.682 -10.907  1.00  0.00    -0.323 N 
ATOM      8  H2  UNL     1      23.603   3.935 -11.894  1.00  0.00     0.169 HD
HETATM    9  C8  UNL     1      22.599   3.938 -10.116  1.00  0.00     0.245 A 
HETATM   10  O2  UNL     1      21.592   4.493 -10.632  1.00  0.00    -0.268 OA
HETATM   11  C9  UNL     1      22.645   3.597  -8.775  1.00  0.00     0.075 A 
HETATM   12  C10 UNL     1      23.750   2.994  -8.226  1.00  0.00     0.025 A 
HETATM   13  C11 UNL     1      24.813   2.741  -9.069  1.00  0.00     0.059 A 
HETATM   14  C12 UNL     1      25.875   2.129  -8.412  1.00  0.00     0.263 A 
HETATM   15  O3  UNL     1      25.669   1.823  -7.209  1.00  0.00    -0.267 OA
ENDROOT
BRANCH   1  16
HETATM   16  C3  UNL     1      28.047   1.323  -7.891  1.00  0.00     0.162 C 
BRANCH  16  17
HETATM   17  C2  UNL     1      28.864   2.367  -7.265  1.00  0.00    -0.017 C 
HETATM   18  C1  UNL     1      29.229   2.253  -5.993  1.00  0.00     0.008 C 
ENDBRANCH  16  17
ENDBRANCH   1  16
TORSDOF 2
ENDMDL
MODEL 4
REMARK VINA RESULT: -6.669243142      3.138      4.080
REMARK  2 active torsions:
REMARK  status: ('A' for Active; 'I' for Inactive)
REMARK    1  A    between atoms: C2_2  and  C3_3 
REMARK    2  A    between atoms: C3_3  and  N1_4 
ROOT
HETATM    1  N1  UNL     1      25.652   4.740 -11.786  1.00  0.00    -0.277 N 
HETATM    2  C4  UNL     1      25.421   4.070 -12.921  1.00  0.00     0.250 A 
HETATM    3  O1  UNL     1      26.036   4.506 -13.913  1.00  0.00    -0.268 OA
HETATM    4  C5  UNL     1      24.617   2.972 -13.195  1.00  0.00     0.077 A 
HETATM    5  C6  UNL     1      23.890   2.207 -12.309  1.00  0.00     0.036 A 
HETATM    6  C7  UNL     1      23.761   2.433 -10.949  1.00  0.00     0.051 A 
HETATM    7  N2  UNL     1      22.920   1.520 -10.403  1.00  0.00    -0.323 N 
ATOM      8  H2  UNL     1      22.493   0.807 -10.995  1.00  0.00     0.169 HD
HETATM    9  C8  UNL     1      22.646   1.546  -9.098  1.00  0.00     0.245 A 
HETATM   10  O2  UNL     1      21.859   0.674  -8.644  1.00  0.00    -0.268 OA
HETATM   11  C9  UNL     1      23.222   2.511  -8.288  1.00  0.00     0.075 A 
HETATM   12  C10 UNL     1      24.079   3.455  -8.796  1.00  0.00     0.025 A 
HETATM   13  C11 UNL     1      24.342   3.403 -10.150  1.00  0.00     0.059 A 
HETATM   14  C12 UNL     1      25.220   4.402 -10.558  1.00  0.00     0.263 A 
HETATM   15  O3  UNL     1      25.697   5.117  -9.639  1.00  0.00    -0.267 OA
ENDROOT
BRANCH   1  16
HETATM   16  C3  UNL     1      26.436   5.927 -11.912  1.00  0.00     0.162 C 
BRANCH  16  17
HETATM   17  C2  UNL     1      25.655   7.157 -12.080  1.00  0.00    -0.017 C 
HETATM   18  C1  UNL     1      26.034   8.068 -12.970  1.00  0.00     0.008 C 
ENDBRANCH  16  17
ENDBRANCH   1  16
TORSDOF 2
ENDMDL
MODEL 5
REMARK VINA RESULT: -6.649920544      2.314      3.691
REMARK  2 active torsions:
REMARK  status: ('A' for Active; 'I' for Inactive)
REMARK    1  A    between atoms: C2_2  and  C3_3 
REMARK    2  A    between atoms: C3_3  and  N1_4 
ROOT
HETATM    1  N1  UNL     1      26.742   2.900 -12.182  1.00  0.00    -0.277 N 
HETATM    2  C4  UNL     1      25.918   2.948 -13.235  1.00  0.00     0.250 A 
HETATM    3  O1  UNL     1      26.476   3.206 -14.318  1.00  0.00    -0.268 OA
HETATM    4  C5  UNL     1      24.546   2.759 -13.340  1.00  0.00     0.077 A 
HETATM    5  C6  UNL     1      23.662   2.372 -12.356  1.00  0.00     0.036 A 
HETATM    6  C7  UNL     1      23.967   2.159 -11.023  1.00  0.00     0.051 A 
HETATM    7  N2  UNL     1      22.841   1.851 -10.332  1.00  0.00    -0.323 N 
ATOM      8  H2  UNL     1      21.945   1.808 -10.817  1.00  0.00     0.169 HD
HETATM    9  C8  UNL     1      22.897   1.604  -9.022  1.00  0.00     0.245 A 
HETATM   10  O2  UNL     1      21.820   1.322  -8.430  1.00  0.00    -0.268 OA
HETATM   11  C9  UNL     1      24.110   1.660  -8.356  1.00  0.00     0.075 A 
HETATM   12  C10 UNL     1      25.275   1.968  -9.014  1.00  0.00     0.025 A 
HETATM   13  C11 UNL     1      25.186   2.219 -10.368  1.00  0.00     0.059 A 
HETATM   14  C12 UNL     1      26.421   2.520 -10.933  1.00  0.00     0.263 A 
HETATM   15  O3  UNL     1      27.411   2.424 -10.163  1.00  0.00    -0.267 OA
ENDROOT
BRANCH   1  16
HETATM   16  C3  UNL     1      28.091   3.298 -12.430  1.00  0.00     0.162 C 
BRANCH  16  17
HETATM   17  C2  UNL     1      28.305   4.749 -12.446  1.00  0.00    -0.017 C 
HETATM   18  C1  UNL     1      28.837   5.354 -11.390  1.00  0.00     0.008 C 
ENDBRANCH  16  17
ENDBRANCH   1  16
TORSDOF 2
ENDMDL
