MODEL 1
REMARK VINA RESULT: -7.461474588      0.000      0.000
REMARK  2 active torsions:
REMARK  status: ('A' for Active; 'I' for Inactive)
REMARK    1  A    between atoms: C3_3  and  O1_4 
REMARK    2  A    between atoms: O1_4  and  C4_5 
ROOT
HETATM    1  C1  UNL     1      29.466   6.056 -11.630  1.00  0.00     0.014 C 
HETATM    2  C2  UNL     1      29.015   4.984 -11.961  1.00  0.00    -0.091 C 
HETATM    3  C3  UNL     1      28.478   3.667 -12.342  1.00  0.00     0.268 C 
ENDROOT
BRANCH   3   4
HETATM    4  O1  UNL     1      28.498   2.776 -11.244  1.00  0.00    -0.340 OA
BRANCH   4   5
HETATM    5  C4  UNL     1      27.374   2.762 -10.430  1.00  0.00     0.070 A 
HETATM    6  C5  UNL     1      27.357   3.253  -9.145  1.00  0.00     0.038 A 
HETATM    7  C6  UNL     1      26.205   3.211  -8.388  1.00  0.00     0.019 A 
HETATM    8  C7  UNL     1      25.039   2.672  -8.899  1.00  0.00     0.036 A 
HETATM    9  C8  UNL     1      25.053   2.179 -10.187  1.00  0.00     0.049 A 
HETATM   10  C12 UNL     1      23.805   2.613  -8.122  1.00  0.00     0.250 A 
HETATM   11  C9  UNL     1      26.214   2.228 -10.938  1.00  0.00     0.054 A 
HETATM   12  C10 UNL     1      23.847   1.600 -10.775  1.00  0.00     0.259 A 
HETATM   13  O2  UNL     1      23.867   1.153 -11.947  1.00  0.00    -0.267 OA
HETATM   14  N1  UNL     1      22.650   1.545 -10.013  1.00  0.00    -0.286 N 
HETATM   15  C11 UNL     1      22.586   2.041  -8.682  1.00  0.00     0.299 A 
ATOM     16  H1  UNL     1      21.815   1.138 -10.431  1.00  0.00     0.172 HD
HETATM   17  O3  UNL     1      21.534   1.999  -7.993  1.00  0.00    -0.264 OA
HETATM   18  O4  UNL     1      23.814   3.073  -6.937  1.00  0.00    -0.281 OA
ENDBRANCH   4   5
ENDBRANCH   3   4
TORSDOF 2
ENDMDL
MODEL 2
REMARK VINA RESULT: -7.183954562      3.099      3.280
REMARK  2 active torsions:
REMARK  status: ('A' for Active; 'I' for Inactive)
REMARK    1  A    between atoms: C3_3  and  O1_4 
REMARK    2  A    between atoms: O1_4  and  C4_5 
ROOT
HETATM    1  C1  UNL     1      23.782   9.491 -11.690  1.00  0.00     0.014 C 
HETATM    2  C2  UNL     1      24.763   8.911 -11.285  1.00  0.00    -0.091 C 
HETATM    3  C3  UNL     1      25.945   8.181 -10.800  1.00  0.00     0.268 C 
ENDROOT
BRANCH   3   4
HETATM    4  O1  UNL     1      25.975   6.865 -11.317  1.00  0.00    -0.340 OA
BRANCH   4   5
HETATM    5  C4  UNL     1      25.373   5.878 -10.550  1.00  0.00     0.070 A 
HETATM    6  C5  UNL     1      25.349   5.888  -9.174  1.00  0.00     0.038 A 
HETATM    7  C6  UNL     1      24.732   4.877  -8.470  1.00  0.00     0.019 A 
HETATM    8  C7  UNL     1      24.122   3.825  -9.127  1.00  0.00     0.036 A 
HETATM    9  C8  UNL     1      24.143   3.811 -10.506  1.00  0.00     0.049 A 
HETATM   10  C12 UNL     1      23.461   2.739  -8.410  1.00  0.00     0.250 A 
HETATM   11  C9  UNL     1      24.765   4.832 -11.202  1.00  0.00     0.054 A 
HETATM   12  C10 UNL     1      23.513   2.722 -11.249  1.00  0.00     0.259 A 
HETATM   13  O2  UNL     1      23.536   2.716 -12.503  1.00  0.00    -0.267 OA
HETATM   14  N1  UNL     1      22.872   1.669 -10.544  1.00  0.00    -0.286 N 
HETATM   15  C11 UNL     1      22.823   1.639  -9.123  1.00  0.00     0.299 A 
ATOM     16  H1  UNL     1      22.436   0.913 -11.071  1.00  0.00     0.172 HD
HETATM   17  O3  UNL     1      22.260   0.713  -8.484  1.00  0.00    -0.264 OA
HETATM   18  O4  UNL     1      23.453   2.772  -7.139  1.00  0.00    -0.281 OA
ENDBRANCH   4   5
ENDBRANCH   3   4
TORSDOF 2
ENDMDL
MODEL 3
REMARK VINA RESULT: -7.178474408      2.500      3.556
REMARK  2 active torsions:
REMARK  status: ('A' for Active; 'I' for Inactive)
REMARK    1  A    between atoms: C3_3  and  O1_4 
REMARK    2  A    between atoms: O1_4  and  C4_5 
ROOT
HETATM    1  C1  UNL     1      25.286   5.385 -16.185  1.00  0.00     0.014 C 
HETATM    2  C2  UNL     1      25.982   4.748 -15.429  1.00  0.00    -0.091 C 
HETATM    3  C3  UNL     1      26.809   3.958 -14.503  1.00  0.00     0.268 C 
ENDROOT
BRANCH   3   4
HETATM    4  O1  UNL     1      26.165   2.747 -14.158  1.00  0.00    -0.340 OA
BRANCH   4   5
HETATM    5  C4  UNL     1      25.489   2.722 -12.947  1.00  0.00     0.070 A 
HETATM    6  C5  UNL     1      24.165   2.368 -12.819  1.00  0.00     0.038 A 
HETATM    7  C6  UNL     1      23.551   2.364 -11.584  1.00  0.00     0.019 A 
HETATM    8  C7  UNL     1      24.248   2.716 -10.443  1.00  0.00     0.036 A 
HETATM    9  C8  UNL     1      25.575   3.071 -10.568  1.00  0.00     0.049 A 
HETATM   10  C12 UNL     1      23.626   2.721  -9.123  1.00  0.00     0.250 A 
HETATM   11  C9  UNL     1      26.181   3.071 -11.812  1.00  0.00     0.054 A 
HETATM   12  C10 UNL     1      26.357   3.451  -9.394  1.00  0.00     0.259 A 
HETATM   13  O2  UNL     1      27.563   3.773  -9.514  1.00  0.00    -0.267 OA
HETATM   14  N1  UNL     1      25.744   3.454  -8.112  1.00  0.00    -0.286 N 
HETATM   15  C11 UNL     1      24.380   3.095  -7.933  1.00  0.00     0.299 A 
ATOM     16  H1  UNL     1      26.297   3.721  -7.299  1.00  0.00     0.172 HD
HETATM   17  O3  UNL     1      23.822   3.093  -6.805  1.00  0.00    -0.264 OA
HETATM   18  O4  UNL     1      22.401   2.389  -9.031  1.00  0.00    -0.281 OA
ENDBRANCH   4   5
ENDBRANCH   3   4
TORSDOF 2
ENDMDL
MODEL 4
REMARK VINA RESULT: -7.148695744      3.541      3.832
REMARK  2 active torsions:
REMARK  status: ('A' for Active; 'I' for Inactive)
REMARK    1  A    between atoms: C3_3  and  O1_4 
REMARK    2  A    between atoms: O1_4  and  C4_5 
ROOT
HETATM    1  C1  UNL     1      23.412   9.979 -11.666  1.00  0.00     0.014 C 
HETATM    2  C2  UNL     1      24.206   9.072 -11.567  1.00  0.00    -0.091 C 
HETATM    3  C3  UNL     1      25.177   7.977 -11.420  1.00  0.00     0.268 C 
ENDROOT
BRANCH   3   4
HETATM    4  O1  UNL     1      25.446   7.717 -10.056  1.00  0.00    -0.340 OA
BRANCH   4   5
HETATM    5  C4  UNL     1      25.223   6.422  -9.611  1.00  0.00     0.070 A 
HETATM    6  C5  UNL     1      26.126   5.707  -8.858  1.00  0.00     0.038 A 
HETATM    7  C6  UNL     1      25.843   4.422  -8.447  1.00  0.00     0.019 A 
HETATM    8  C7  UNL     1      24.645   3.818  -8.781  1.00  0.00     0.036 A 
HETATM    9  C8  UNL     1      23.738   4.530  -9.535  1.00  0.00     0.049 A 
HETATM   10  C12 UNL     1      24.317   2.459  -8.361  1.00  0.00     0.250 A 
HETATM   11  C9  UNL     1      24.033   5.820  -9.942  1.00  0.00     0.054 A 
HETATM   12  C10 UNL     1      22.457   3.938  -9.916  1.00  0.00     0.259 A 
HETATM   13  O2  UNL     1      21.637   4.593 -10.602  1.00  0.00    -0.267 OA
HETATM   14  N1  UNL     1      22.145   2.616  -9.504  1.00  0.00    -0.286 N 
HETATM   15  C11 UNL     1      23.047   1.840  -8.724  1.00  0.00     0.299 A 
ATOM     16  H1  UNL     1      21.250   2.211  -9.774  1.00  0.00     0.172 HD
HETATM   17  O3  UNL     1      22.786   0.668  -8.352  1.00  0.00    -0.264 OA
HETATM   18  O4  UNL     1      25.168   1.819  -7.665  1.00  0.00    -0.281 OA
ENDBRANCH   4   5
ENDBRANCH   3   4
TORSDOF 2
ENDMDL
MODEL 5
REMARK VINA RESULT: -7.148599373      2.883      3.765
REMARK  2 active torsions:
REMARK  status: ('A' for Active; 'I' for Inactive)
REMARK    1  A    between atoms: C3_3  and  O1_4 
REMARK    2  A    between atoms: O1_4  and  C4_5 
ROOT
HETATM    1  C1  UNL     1      24.161   9.085 -11.266  1.00  0.00     0.014 C 
HETATM    2  C2  UNL     1      25.032   8.355 -11.678  1.00  0.00    -0.091 C 
HETATM    3  C3  UNL     1      26.100   7.460 -12.152  1.00  0.00     0.268 C 
ENDROOT
BRANCH   3   4
HETATM    4  O1  UNL     1      26.530   6.593 -11.121  1.00  0.00    -0.340 OA
BRANCH   4   5
HETATM    5  C4  UNL     1      25.794   5.432 -10.933  1.00  0.00     0.070 A 
HETATM    6  C5  UNL     1      25.437   4.580 -11.953  1.00  0.00     0.038 A 
HETATM    7  C6  UNL     1      24.705   3.441 -11.698  1.00  0.00     0.019 A 
HETATM    8  C7  UNL     1      24.308   3.125 -10.412  1.00  0.00     0.036 A 
HETATM    9  C8  UNL     1      24.663   3.976  -9.387  1.00  0.00     0.049 A 
HETATM   10  C12 UNL     1      23.531   1.926 -10.111  1.00  0.00     0.250 A 
HETATM   11  C9  UNL     1      25.399   5.117  -9.655  1.00  0.00     0.054 A 
HETATM   12  C10 UNL     1      24.269   3.689  -8.010  1.00  0.00     0.259 A 
HETATM   13  O2  UNL     1      24.596   4.468  -7.082  1.00  0.00    -0.267 OA
HETATM   14  N1  UNL     1      23.513   2.521  -7.725  1.00  0.00    -0.286 N 
HETATM   15  C11 UNL     1      23.123   1.612  -8.746  1.00  0.00     0.299 A 
ATOM     16  H1  UNL     1      23.242   2.329  -6.761  1.00  0.00     0.172 HD
HETATM   17  O3  UNL     1      22.453   0.574  -8.510  1.00  0.00    -0.264 OA
HETATM   18  O4  UNL     1      23.214   1.155 -11.070  1.00  0.00    -0.281 OA
ENDBRANCH   4   5
ENDBRANCH   3   4
TORSDOF 2
ENDMDL
