MODEL 1
REMARK VINA RESULT: -8.084566803      0.000      0.000
REMARK  8 active torsions:
REMARK  status: ('A' for Active; 'I' for Inactive)
REMARK    1  A    between atoms: N2_8  and  C8_10 
REMARK    2  A    between atoms: C8_10  and  C9_11 
REMARK    3  A    between atoms: C9_11  and  N3_12 
REMARK       I    between atoms: N3_12  and  C10_14 
REMARK       I    between atoms: C10_14  and  N5_16 
REMARK       I    between atoms: N5_16  and  C11_18 
REMARK       I    between atoms: C11_18  and  N7_20 
REMARK       I    between atoms: N7_20  and  C12_21 
REMARK    4  A    between atoms: N9_23  and  C13_25 
REMARK    5  A    between atoms: C13_25  and  C14_26 
REMARK    6  A    between atoms: C14_26  and  N10_27 
REMARK       I    between atoms: N10_27  and  C15_29 
REMARK    7  A    between atoms: N12_31  and  S1_33 
REMARK    8  A    between atoms: S1_33  and  N13_34 
ROOT
HETATM    1  N3  UNL     1      44.820  28.662  41.423  1.00  0.00    -0.363 N 
ATOM      2  H3  UNL     1      44.605  29.477  40.848  1.00  0.00     0.162 HD
HETATM    3  C10 UNL     1      44.817  27.352  40.801  1.00  0.00     0.191 C 
HETATM    4  N4  UNL     1      45.427  26.300  41.526  1.00  0.00    -0.063 NA
HETATM    5  N5  UNL     1      44.309  27.188  39.694  1.00  0.00    -0.293 N 
ATOM      6  H5  UNL     1      43.939  28.085  39.381  1.00  0.00     0.172 HD
HETATM    7  C11 UNL     1      44.055  26.275  38.737  1.00  0.00     0.272 C 
HETATM    8  N6  UNL     1      42.846  26.577  37.923  1.00  0.00    -0.049 NA
HETATM    9  N7  UNL     1      44.642  25.274  38.450  1.00  0.00    -0.341 NA
HETATM   10  C12 UNL     1      45.090  24.170  37.947  1.00  0.00     0.266 C 
HETATM   11  N8  UNL     1      45.920  23.260  38.722  1.00  0.00    -0.049 NA
HETATM   12  N9  UNL     1      44.826  23.793  36.711  1.00  0.00    -0.351 N 
ATOM     13  H9  UNL     1      44.249  24.370  36.099  1.00  0.00     0.163 HD
ENDROOT
BRANCH   1  14
HETATM   14  C9  UNL     1      45.106  28.857  42.795  1.00  0.00     0.150 C 
BRANCH  14  15
HETATM   15  C8  UNL     1      44.313  29.893  43.527  1.00  0.00     0.257 C 
BRANCH  15  16
HETATM   16  N2  UNL     1      44.992  30.982  44.111  1.00  0.00    -0.062 N 
HETATM   17  C2  UNL     1      44.265  32.235  44.004  1.00  0.00     0.214 C 
HETATM   18  C1  UNL     1      43.133  32.214  43.007  1.00  0.00     0.042 C 
HETATM   19  C3  UNL     1      43.637  32.673  45.315  1.00  0.00     0.304 C 
HETATM   20  N1  UNL     1      43.119  31.532  46.012  1.00  0.00     0.087 N 
HETATM   21  C4  UNL     1      42.449  32.004  47.218  1.00  0.00     0.310 C 
HETATM   22  C5  UNL     1      44.252  30.746  46.459  1.00  0.00     0.300 C 
HETATM   23  C6  UNL     1      45.391  30.881  45.487  1.00  0.00     0.267 C 
HETATM   24  C7  UNL     1      46.266  31.210  43.384  1.00  0.00     0.273 C 
ENDBRANCH  15  16
ENDBRANCH  14  15
ENDBRANCH   1  14
BRANCH  12  25
HETATM   25  C13 UNL     1      45.373  22.548  36.249  1.00  0.00     0.143 C 
BRANCH  25  26
HETATM   26  C14 UNL     1      44.303  21.510  35.961  1.00  0.00     0.142 C 
BRANCH  26  27
HETATM   27  N10 UNL     1      44.909  20.215  36.180  1.00  0.00    -0.362 N 
HETATM   28  C15 UNL     1      44.429  19.418  37.280  1.00  0.00     0.199 C 
HETATM   29  N11 UNL     1      44.819  19.848  38.566  1.00  0.00    -0.063 NA
HETATM   30  N12 UNL     1      43.703  18.386  37.076  1.00  0.00    -0.241 N 
ATOM     31  H12 UNL     1      43.463  18.122  36.120  1.00  0.00     0.183 HD
ATOM     32  H10 UNL     1      45.656  19.877  35.572  1.00  0.00     0.162 HD
BRANCH  30  33
HETATM   33  S1  UNL     1      43.120  17.431  38.395  1.00  0.00     0.319 S 
HETATM   34  O1  UNL     1      42.135  18.280  39.137  1.00  0.00    -0.183 OA
HETATM   35  O2  UNL     1      42.516  16.180  37.839  1.00  0.00    -0.183 OA
BRANCH  33  36
HETATM   36  N13 UNL     1      44.450  17.096  39.441  1.00  0.00    -0.311 N 
ATOM     37 2H13 UNL     1      44.895  17.773  40.061  1.00  0.00     0.170 HD
ATOM     38 1H13 UNL     1      44.703  16.114  39.327  1.00  0.00     0.170 HD
ENDBRANCH  33  36
ENDBRANCH  30  33
ENDBRANCH  26  27
ENDBRANCH  25  26
ENDBRANCH  12  25
TORSDOF 8
ENDMDL
MODEL 2
REMARK VINA RESULT: -8.061009736      3.076      5.257
REMARK  8 active torsions:
REMARK  status: ('A' for Active; 'I' for Inactive)
REMARK    1  A    between atoms: N2_8  and  C8_10 
REMARK    2  A    between atoms: C8_10  and  C9_11 
REMARK    3  A    between atoms: C9_11  and  N3_12 
REMARK       I    between atoms: N3_12  and  C10_14 
REMARK       I    between atoms: C10_14  and  N5_16 
REMARK       I    between atoms: N5_16  and  C11_18 
REMARK       I    between atoms: C11_18  and  N7_20 
REMARK       I    between atoms: N7_20  and  C12_21 
REMARK    4  A    between atoms: N9_23  and  C13_25 
REMARK    5  A    between atoms: C13_25  and  C14_26 
REMARK    6  A    between atoms: C14_26  and  N10_27 
REMARK       I    between atoms: N10_27  and  C15_29 
REMARK    7  A    between atoms: N12_31  and  S1_33 
REMARK    8  A    between atoms: S1_33  and  N13_34 
ROOT
HETATM    1  N3  UNL     1      45.528  25.177  38.860  1.00  0.00    -0.363 N 
ATOM      2  H3  UNL     1      46.274  25.115  39.552  1.00  0.00     0.162 HD
HETATM    3  C10 UNL     1      45.079  23.961  38.211  1.00  0.00     0.191 C 
HETATM    4  N4  UNL     1      43.847  24.025  37.515  1.00  0.00    -0.063 NA
HETATM    5  N5  UNL     1      45.750  22.933  38.280  1.00  0.00    -0.293 N 
ATOM      6  H5  UNL     1      46.584  23.137  38.828  1.00  0.00     0.172 HD
HETATM    7  C11 UNL     1      45.801  21.640  37.907  1.00  0.00     0.272 C 
HETATM    8  N6  UNL     1      47.185  21.106  37.774  1.00  0.00    -0.049 NA
HETATM    9  N7  UNL     1      44.919  20.870  37.668  1.00  0.00    -0.341 NA
HETATM   10  C12 UNL     1      44.166  19.861  37.370  1.00  0.00     0.266 C 
HETATM   11  N8  UNL     1      42.809  20.042  36.878  1.00  0.00    -0.049 NA
HETATM   12  N9  UNL     1      44.571  18.611  37.486  1.00  0.00    -0.351 N 
ATOM     13  H9  UNL     1      45.510  18.394  37.820  1.00  0.00     0.163 HD
ENDROOT
BRANCH   1  14
HETATM   14  C9  UNL     1      44.974  26.447  38.572  1.00  0.00     0.150 C 
BRANCH  14  15
HETATM   15  C8  UNL     1      44.955  27.459  39.674  1.00  0.00     0.257 C 
BRANCH  15  16
HETATM   16  N2  UNL     1      46.111  28.232  39.906  1.00  0.00    -0.062 N 
HETATM   17  C2  UNL     1      45.818  29.574  40.381  1.00  0.00     0.214 C 
HETATM   18  C1  UNL     1      44.383  29.999  40.195  1.00  0.00     0.042 C 
HETATM   19  C3  UNL     1      46.102  29.757  41.861  1.00  0.00     0.304 C 
HETATM   20  N1  UNL     1      45.719  28.578  42.581  1.00  0.00     0.087 N 
HETATM   21  C4  UNL     1      45.924  28.828  44.002  1.00  0.00     0.310 C 
HETATM   22  C5  UNL     1      46.646  27.526  42.216  1.00  0.00     0.300 C 
HETATM   23  C6  UNL     1      47.111  27.715  40.798  1.00  0.00     0.267 C 
HETATM   24  C7  UNL     1      46.837  28.424  38.626  1.00  0.00     0.273 C 
ENDBRANCH  15  16
ENDBRANCH  14  15
ENDBRANCH   1  14
BRANCH  12  25
HETATM   25  C13 UNL     1      43.655  17.565  37.128  1.00  0.00     0.143 C 
BRANCH  25  26
HETATM   26  C14 UNL     1      43.167  16.777  38.331  1.00  0.00     0.142 C 
BRANCH  26  27
HETATM   27  N10 UNL     1      42.841  15.451  37.856  1.00  0.00    -0.362 N 
HETATM   28  C15 UNL     1      43.658  14.350  38.299  1.00  0.00     0.199 C 
HETATM   29  N11 UNL     1      44.943  14.270  37.723  1.00  0.00    -0.063 NA
HETATM   30  N12 UNL     1      43.221  13.510  39.156  1.00  0.00    -0.241 N 
ATOM     31  H12 UNL     1      42.277  13.618  39.529  1.00  0.00     0.183 HD
ATOM     32  H10 UNL     1      42.053  15.300  37.225  1.00  0.00     0.162 HD
BRANCH  30  33
HETATM   33  S1  UNL     1      44.202  12.191  39.694  1.00  0.00     0.319 S 
HETATM   34  O1  UNL     1      45.389  12.792  40.381  1.00  0.00    -0.183 OA
HETATM   35  O2  UNL     1      43.378  11.328  40.595  1.00  0.00    -0.183 OA
BRANCH  33  36
HETATM   36  N13 UNL     1      44.752  11.332  38.303  1.00  0.00    -0.311 N 
ATOM     37 2H13 UNL     1      44.211  10.636  37.790  1.00  0.00     0.170 HD
ATOM     38 1H13 UNL     1      45.701  11.644  38.093  1.00  0.00     0.170 HD
ENDBRANCH  33  36
ENDBRANCH  30  33
ENDBRANCH  26  27
ENDBRANCH  25  26
ENDBRANCH  12  25
TORSDOF 8
ENDMDL
MODEL 3
REMARK VINA RESULT: -7.930316444      9.390     11.538
REMARK  8 active torsions:
REMARK  status: ('A' for Active; 'I' for Inactive)
REMARK    1  A    between atoms: N2_8  and  C8_10 
REMARK    2  A    between atoms: C8_10  and  C9_11 
REMARK    3  A    between atoms: C9_11  and  N3_12 
REMARK       I    between atoms: N3_12  and  C10_14 
REMARK       I    between atoms: C10_14  and  N5_16 
REMARK       I    between atoms: N5_16  and  C11_18 
REMARK       I    between atoms: C11_18  and  N7_20 
REMARK       I    between atoms: N7_20  and  C12_21 
REMARK    4  A    between atoms: N9_23  and  C13_25 
REMARK    5  A    between atoms: C13_25  and  C14_26 
REMARK    6  A    between atoms: C14_26  and  N10_27 
REMARK       I    between atoms: N10_27  and  C15_29 
REMARK    7  A    between atoms: N12_31  and  S1_33 
REMARK    8  A    between atoms: S1_33  and  N13_34 
ROOT
HETATM    1  N3  UNL     1      47.455  22.186  34.454  1.00  0.00    -0.363 N 
ATOM      2  H3  UNL     1      48.383  22.086  34.865  1.00  0.00     0.162 HD
HETATM    3  C10 UNL     1      46.379  21.354  34.957  1.00  0.00     0.191 C 
HETATM    4  N4  UNL     1      45.060  21.736  34.609  1.00  0.00    -0.063 NA
HETATM    5  N5  UNL     1      46.623  20.373  35.655  1.00  0.00    -0.293 N 
ATOM      6  H5  UNL     1      47.635  20.307  35.764  1.00  0.00     0.172 HD
HETATM    7  C11 UNL     1      46.064  19.352  36.332  1.00  0.00     0.272 C 
HETATM    8  N6  UNL     1      46.936  18.150  36.438  1.00  0.00    -0.049 NA
HETATM    9  N7  UNL     1      44.990  19.265  36.849  1.00  0.00    -0.341 NA
HETATM   10  C12 UNL     1      43.913  18.926  37.481  1.00  0.00     0.266 C 
HETATM   11  N8  UNL     1      42.634  19.561  37.203  1.00  0.00    -0.049 NA
HETATM   12  N9  UNL     1      43.897  17.988  38.408  1.00  0.00    -0.351 N 
ATOM     13  H9  UNL     1      44.749  17.489  38.662  1.00  0.00     0.163 HD
ENDROOT
BRANCH   1  14
HETATM   14  C9  UNL     1      47.271  23.130  33.416  1.00  0.00     0.150 C 
BRANCH  14  15
HETATM   15  C8  UNL     1      48.412  23.355  32.475  1.00  0.00     0.257 C 
BRANCH  15  16
HETATM   16  N2  UNL     1      48.477  22.593  31.291  1.00  0.00    -0.062 N 
HETATM   17  C2  UNL     1      49.619  22.924  30.457  1.00  0.00     0.214 C 
HETATM   18  C1  UNL     1      50.296  24.223  30.817  1.00  0.00     0.042 C 
HETATM   19  C3  UNL     1      50.716  21.875  30.504  1.00  0.00     0.304 C 
HETATM   20  N1  UNL     1      50.850  21.369  31.839  1.00  0.00     0.087 N 
HETATM   21  C4  UNL     1      51.968  20.434  31.860  1.00  0.00     0.310 C 
HETATM   22  C5  UNL     1      49.663  20.590  32.130  1.00  0.00     0.300 C 
HETATM   23  C6  UNL     1      48.478  21.160  31.399  1.00  0.00     0.267 C 
HETATM   24  C7  UNL     1      47.288  22.888  30.453  1.00  0.00     0.273 C 
ENDBRANCH  15  16
ENDBRANCH  14  15
ENDBRANCH   1  14
BRANCH  12  25
HETATM   25  C13 UNL     1      42.648  17.688  39.049  1.00  0.00     0.143 C 
BRANCH  25  26
HETATM   26  C14 UNL     1      42.113  16.317  38.676  1.00  0.00     0.142 C 
BRANCH  26  27
HETATM   27  N10 UNL     1      43.227  15.568  38.137  1.00  0.00    -0.362 N 
HETATM   28  C15 UNL     1      43.795  14.519  38.946  1.00  0.00     0.199 C 
HETATM   29  N11 UNL     1      44.575  14.944  40.042  1.00  0.00    -0.063 NA
HETATM   30  N12 UNL     1      43.595  13.289  38.663  1.00  0.00    -0.241 N 
ATOM     31  H12 UNL     1      43.027  13.047  37.850  1.00  0.00     0.183 HD
ATOM     32  H10 UNL     1      43.599  15.777  37.211  1.00  0.00     0.162 HD
BRANCH  30  33
HETATM   33  S1  UNL     1      44.271  12.029  39.636  1.00  0.00     0.319 S 
HETATM   34  O1  UNL     1      45.479  12.606  40.306  1.00  0.00    -0.183 OA
HETATM   35  O2  UNL     1      43.226  11.571  40.604  1.00  0.00    -0.183 OA
BRANCH  33  36
HETATM   36  N13 UNL     1      44.780  10.759  38.587  1.00  0.00    -0.311 N 
ATOM     37 2H13 UNL     1      44.174  10.246  37.947  1.00  0.00     0.170 HD
ATOM     38 1H13 UNL     1      45.782  10.619  38.723  1.00  0.00     0.170 HD
ENDBRANCH  33  36
ENDBRANCH  30  33
ENDBRANCH  26  27
ENDBRANCH  25  26
ENDBRANCH  12  25
TORSDOF 8
ENDMDL
MODEL 4
REMARK VINA RESULT: -7.856105267      3.481      5.928
REMARK  8 active torsions:
REMARK  status: ('A' for Active; 'I' for Inactive)
REMARK    1  A    between atoms: N2_8  and  C8_10 
REMARK    2  A    between atoms: C8_10  and  C9_11 
REMARK    3  A    between atoms: C9_11  and  N3_12 
REMARK       I    between atoms: N3_12  and  C10_14 
REMARK       I    between atoms: C10_14  and  N5_16 
REMARK       I    between atoms: N5_16  and  C11_18 
REMARK       I    between atoms: C11_18  and  N7_20 
REMARK       I    between atoms: N7_20  and  C12_21 
REMARK    4  A    between atoms: N9_23  and  C13_25 
REMARK    5  A    between atoms: C13_25  and  C14_26 
REMARK    6  A    between atoms: C14_26  and  N10_27 
REMARK       I    between atoms: N10_27  and  C15_29 
REMARK    7  A    between atoms: N12_31  and  S1_33 
REMARK    8  A    between atoms: S1_33  and  N13_34 
ROOT
HETATM    1  N3  UNL     1      46.615  24.598  38.356  1.00  0.00    -0.363 N 
ATOM      2  H3  UNL     1      47.361  24.434  39.032  1.00  0.00     0.162 HD
HETATM    3  C10 UNL     1      45.916  23.454  37.803  1.00  0.00     0.191 C 
HETATM    4  N4  UNL     1      44.694  23.713  37.136  1.00  0.00    -0.063 NA
HETATM    5  N5  UNL     1      46.378  22.322  37.926  1.00  0.00    -0.293 N 
ATOM      6  H5  UNL     1      47.257  22.393  38.438  1.00  0.00     0.172 HD
HETATM    7  C11 UNL     1      46.165  21.023  37.641  1.00  0.00     0.272 C 
HETATM    8  N6  UNL     1      47.414  20.222  37.510  1.00  0.00    -0.049 NA
HETATM    9  N7  UNL     1      45.143  20.426  37.477  1.00  0.00    -0.341 NA
HETATM   10  C12 UNL     1      44.199  19.567  37.268  1.00  0.00     0.266 C 
HETATM   11  N8  UNL     1      42.884  19.978  36.799  1.00  0.00    -0.049 NA
HETATM   12  N9  UNL     1      44.359  18.272  37.458  1.00  0.00    -0.351 N 
ATOM     13  H9  UNL     1      45.251  17.897  37.783  1.00  0.00     0.163 HD
ENDROOT
BRANCH   1  14
HETATM   14  C9  UNL     1      46.306  25.931  37.996  1.00  0.00     0.150 C 
BRANCH  14  15
HETATM   15  C8  UNL     1      46.256  26.949  39.091  1.00  0.00     0.257 C 
BRANCH  15  16
HETATM   16  N2  UNL     1      45.020  27.552  39.403  1.00  0.00    -0.062 N 
HETATM   17  C2  UNL     1      44.827  27.760  40.828  1.00  0.00     0.214 C 
HETATM   18  C1  UNL     1      45.785  26.991  41.704  1.00  0.00     0.042 C 
HETATM   19  C3  UNL     1      44.981  29.212  41.244  1.00  0.00     0.304 C 
HETATM   20  N1  UNL     1      46.052  29.819  40.509  1.00  0.00     0.087 N 
HETATM   21  C4  UNL     1      46.224  31.181  41.000  1.00  0.00     0.310 C 
HETATM   22  C5  UNL     1      45.620  29.936  39.130  1.00  0.00     0.300 C 
HETATM   23  C6  UNL     1      44.693  28.804  38.781  1.00  0.00     0.267 C 
HETATM   24  C7  UNL     1      43.917  26.648  38.991  1.00  0.00     0.273 C 
ENDBRANCH  15  16
ENDBRANCH  14  15
ENDBRANCH   1  14
BRANCH  12  25
HETATM   25  C13 UNL     1      43.246  17.403  37.196  1.00  0.00     0.143 C 
BRANCH  25  26
HETATM   26  C14 UNL     1      42.888  16.535  38.388  1.00  0.00     0.142 C 
BRANCH  26  27
HETATM   27  N10 UNL     1      42.672  15.198  37.880  1.00  0.00    -0.362 N 
HETATM   28  C15 UNL     1      43.550  14.149  38.333  1.00  0.00     0.199 C 
HETATM   29  N11 UNL     1      44.856  14.169  37.801  1.00  0.00    -0.063 NA
HETATM   30  N12 UNL     1      43.144  13.263  39.160  1.00  0.00    -0.241 N 
ATOM     31  H12 UNL     1      42.183  13.298  39.502  1.00  0.00     0.183 HD
ATOM     32  H10 UNL     1      41.919  15.004  37.219  1.00  0.00     0.162 HD
BRANCH  30  33
HETATM   33  S1  UNL     1      44.198  12.007  39.710  1.00  0.00     0.319 S 
HETATM   34  O1  UNL     1      45.362  12.681  40.368  1.00  0.00    -0.183 OA
HETATM   35  O2  UNL     1      43.429  11.122  40.640  1.00  0.00    -0.183 OA
BRANCH  33  36
HETATM   36  N13 UNL     1      44.772  11.148  38.329  1.00  0.00    -0.311 N 
ATOM     37 2H13 UNL     1      45.198  11.575  37.506  1.00  0.00     0.170 HD
ATOM     38 1H13 UNL     1      44.610  10.153  38.485  1.00  0.00     0.170 HD
ENDBRANCH  33  36
ENDBRANCH  30  33
ENDBRANCH  26  27
ENDBRANCH  25  26
ENDBRANCH  12  25
TORSDOF 8
ENDMDL
MODEL 5
REMARK VINA RESULT: -7.825395029      3.604      6.415
REMARK  8 active torsions:
REMARK  status: ('A' for Active; 'I' for Inactive)
REMARK    1  A    between atoms: N2_8  and  C8_10 
REMARK    2  A    between atoms: C8_10  and  C9_11 
REMARK    3  A    between atoms: C9_11  and  N3_12 
REMARK       I    between atoms: N3_12  and  C10_14 
REMARK       I    between atoms: C10_14  and  N5_16 
REMARK       I    between atoms: N5_16  and  C11_18 
REMARK       I    between atoms: C11_18  and  N7_20 
REMARK       I    between atoms: N7_20  and  C12_21 
REMARK    4  A    between atoms: N9_23  and  C13_25 
REMARK    5  A    between atoms: C13_25  and  C14_26 
REMARK    6  A    between atoms: C14_26  and  N10_27 
REMARK       I    between atoms: N10_27  and  C15_29 
REMARK    7  A    between atoms: N12_31  and  S1_33 
REMARK    8  A    between atoms: S1_33  and  N13_34 
ROOT
HETATM    1  N3  UNL     1      48.050  23.564  38.170  1.00  0.00    -0.363 N 
ATOM      2  H3  UNL     1      48.859  23.194  38.670  1.00  0.00     0.162 HD
HETATM    3  C10 UNL     1      47.063  22.634  37.659  1.00  0.00     0.191 C 
HETATM    4  N4  UNL     1      45.815  23.176  37.269  1.00  0.00    -0.063 NA
HETATM    5  N5  UNL     1      47.318  21.433  37.582  1.00  0.00    -0.293 N 
ATOM      6  H5  UNL     1      48.271  21.291  37.918  1.00  0.00     0.172 HD
HETATM    7  C11 UNL     1      46.819  20.235  37.224  1.00  0.00     0.272 C 
HETATM    8  N6  UNL     1      47.853  19.261  36.778  1.00  0.00    -0.049 NA
HETATM    9  N7  UNL     1      45.690  19.843  37.207  1.00  0.00    -0.341 NA
HETATM   10  C12 UNL     1      44.580  19.188  37.106  1.00  0.00     0.266 C 
HETATM   11  N8  UNL     1      43.304  19.869  36.941  1.00  0.00    -0.049 NA
HETATM   12  N9  UNL     1      44.525  17.870  37.139  1.00  0.00    -0.351 N 
ATOM     13  H9  UNL     1      45.373  17.314  37.248  1.00  0.00     0.163 HD
ENDROOT
BRANCH   1  14
HETATM   14  C9  UNL     1      47.939  24.965  38.004  1.00  0.00     0.150 C 
BRANCH  14  15
HETATM   15  C8  UNL     1      47.237  25.736  39.078  1.00  0.00     0.257 C 
BRANCH  15  16
HETATM   16  N2  UNL     1      46.787  27.041  38.794  1.00  0.00    -0.062 N 
HETATM   17  C2  UNL     1      45.366  27.223  39.035  1.00  0.00     0.214 C 
HETATM   18  C1  UNL     1      44.592  25.937  39.189  1.00  0.00     0.042 C 
HETATM   19  C3  UNL     1      45.073  28.020  40.294  1.00  0.00     0.304 C 
HETATM   20  N1  UNL     1      45.996  27.654  41.329  1.00  0.00     0.087 N 
HETATM   21  C4  UNL     1      45.626  28.374  42.541  1.00  0.00     0.310 C 
HETATM   22  C5  UNL     1      47.301  28.153  40.942  1.00  0.00     0.300 C 
HETATM   23  C6  UNL     1      47.435  28.145  39.444  1.00  0.00     0.267 C 
HETATM   24  C7  UNL     1      46.972  27.318  37.347  1.00  0.00     0.273 C 
ENDBRANCH  15  16
ENDBRANCH  14  15
ENDBRANCH   1  14
BRANCH  12  25
HETATM   25  C13 UNL     1      43.240  17.241  37.017  1.00  0.00     0.143 C 
BRANCH  25  26
HETATM   26  C14 UNL     1      42.848  16.467  38.263  1.00  0.00     0.142 C 
BRANCH  26  27
HETATM   27  N10 UNL     1      42.577  15.110  37.843  1.00  0.00    -0.362 N 
HETATM   28  C15 UNL     1      43.467  14.069  38.293  1.00  0.00     0.199 C 
HETATM   29  N11 UNL     1      44.734  14.036  37.675  1.00  0.00    -0.063 NA
HETATM   30  N12 UNL     1      43.103  13.237  39.191  1.00  0.00    -0.241 N 
ATOM     31  H12 UNL     1      42.168  13.308  39.593  1.00  0.00     0.183 HD
ATOM     32  H10 UNL     1      41.779  14.896  37.244  1.00  0.00     0.162 HD
BRANCH  30  33
HETATM   33  S1  UNL     1      44.171  11.991  39.737  1.00  0.00     0.319 S 
HETATM   34  O1  UNL     1      45.325  12.675  40.402  1.00  0.00    -0.183 OA
HETATM   35  O2  UNL     1      43.412  11.091  40.660  1.00  0.00    -0.183 OA
BRANCH  33  36
HETATM   36  N13 UNL     1      44.760  11.147  38.353  1.00  0.00    -0.311 N 
ATOM     37 2H13 UNL     1      44.418  11.271  37.399  1.00  0.00     0.170 HD
ATOM     38 1H13 UNL     1      45.499  10.513  38.659  1.00  0.00     0.170 HD
ENDBRANCH  33  36
ENDBRANCH  30  33
ENDBRANCH  26  27
ENDBRANCH  25  26
ENDBRANCH  12  25
TORSDOF 8
ENDMDL
