MODEL 1
REMARK VINA RESULT: -7.450424190      0.000      0.000
REMARK  13 active torsions:
REMARK  status: ('A' for Active; 'I' for Inactive)
REMARK       I    between atoms: N1_3  and  C3_5 
REMARK       I    between atoms: N3_7  and  C4_9 
REMARK       I    between atoms: N5_11  and  C5_13 
REMARK    1  A    between atoms: N7_15  and  C6_17 
REMARK    2  A    between atoms: C6_17  and  C7_18 
REMARK    3  A    between atoms: C6_17  and  C21_39 
REMARK    4  A    between atoms: C8_19  and  C9_20 
REMARK    5  A    between atoms: C10_21  and  C11_22 
REMARK    6  A    between atoms: C12_23  and  C13_24 
REMARK    7  A    between atoms: C14_25  and  C15_26 
REMARK    8  A    between atoms: C15_26  and  C16_27 
REMARK    9  A    between atoms: C16_27  and  C17_28 
REMARK   10  A    between atoms: C17_28  and  N8_29 
REMARK       I    between atoms: N8_29  and  C18_31 
REMARK   11  A    between atoms: C18_31  and  C19_33 
REMARK   12  A    between atoms: C19_33  and  N9_34 
REMARK       I    between atoms: N9_34  and  C20_36 
REMARK   13  A    between atoms: C21_39  and  O3_40 
ROOT
HETATM    1  C1  UNL     1      36.021  25.894  30.033  1.00  0.00     0.037 C 
HETATM    2  C2  UNL     1      37.084  26.458  30.117  1.00  0.00     0.001 C 
HETATM    3  N1  UNL     1      38.326  27.140  30.206  1.00  0.00    -0.290 N 
ATOM      4  H1  UNL     1      38.782  27.449  29.349  1.00  0.00     0.179 HD
HETATM    5  C3  UNL     1      38.953  27.403  31.451  1.00  0.00     0.202 C 
HETATM    6  N2  UNL     1      39.771  26.393  32.053  1.00  0.00    -0.062 NA
HETATM    7  N3  UNL     1      38.831  28.510  32.082  1.00  0.00    -0.304 N 
ATOM      8  H3  UNL     1      39.326  28.595  32.970  1.00  0.00     0.171 HD
HETATM    9  C4  UNL     1      38.074  29.620  31.662  1.00  0.00     0.197 C 
HETATM   10  N4  UNL     1      37.522  29.644  30.329  1.00  0.00    -0.063 NA
HETATM   11  N5  UNL     1      37.826  30.644  32.374  1.00  0.00    -0.305 N 
ATOM     12  H5  UNL     1      37.268  31.401  31.980  1.00  0.00     0.171 HD
HETATM   13  C5  UNL     1      38.308  30.759  33.715  1.00  0.00     0.191 C 
HETATM   14  N6  UNL     1      38.836  31.986  34.225  1.00  0.00    -0.063 NA
HETATM   15  N7  UNL     1      38.287  29.758  34.515  1.00  0.00    -0.347 N 
ATOM     16  H7  UNL     1      37.911  28.885  34.146  1.00  0.00     0.163 HD
ENDROOT
BRANCH  15  17
HETATM   17  C6  UNL     1      38.733  29.736  35.865  1.00  0.00     0.188 C 
BRANCH  17  18
HETATM   18  C7  UNL     1      39.784  28.758  36.120  1.00  0.00    -0.065 C 
HETATM   19  C8  UNL     1      40.636  27.932  36.345  1.00  0.00    -0.012 C 
BRANCH  19  20
HETATM   20  C9  UNL     1      41.613  26.948  36.626  1.00  0.00    -0.001 C 
HETATM   21  C10 UNL     1      42.434  26.093  36.847  1.00  0.00    -0.000 C 
BRANCH  21  22
HETATM   22  C11 UNL     1      43.384  25.073  37.083  1.00  0.00    -0.000 C 
HETATM   23  C12 UNL     1      44.191  24.189  37.261  1.00  0.00    -0.001 C 
BRANCH  23  24
HETATM   24  C13 UNL     1      45.127  23.140  37.445  1.00  0.00    -0.014 C 
HETATM   25  C14 UNL     1      45.942  22.262  37.590  1.00  0.00    -0.092 C 
BRANCH  25  26
HETATM   26  C15 UNL     1      46.964  21.203  37.755  1.00  0.00     0.096 C 
BRANCH  26  27
HETATM   27  C16 UNL     1      46.900  20.270  36.540  1.00  0.00     0.032 C 
BRANCH  27  28
HETATM   28  C17 UNL     1      45.523  19.677  36.531  1.00  0.00     0.123 C 
BRANCH  28  29
HETATM   29  N8  UNL     1      45.310  18.652  37.502  1.00  0.00    -0.360 N 
HETATM   30  C18 UNL     1      44.064  17.965  37.607  1.00  0.00     0.235 C 
HETATM   31  O1  UNL     1      43.103  18.243  36.839  1.00  0.00    -0.272 OA
ATOM     32  H8  UNL     1      46.070  18.404  38.137  1.00  0.00     0.162 HD
BRANCH  30  33
HETATM   33  C19 UNL     1      43.858  16.906  38.618  1.00  0.00     0.226 C 
BRANCH  33  34
HETATM   34  N9  UNL     1      42.711  16.099  38.304  1.00  0.00    -0.337 N 
HETATM   35  C20 UNL     1      42.808  14.713  38.003  1.00  0.00     0.329 C 
HETATM   36  N10 UNL     1      41.660  13.947  37.700  1.00  0.00    -0.040 NA
HETATM   37  O2  UNL     1      43.939  14.178  38.013  1.00  0.00    -0.251 OA
ATOM     38  H9  UNL     1      41.791  16.538  38.297  1.00  0.00     0.164 HD
ENDBRANCH  33  34
ENDBRANCH  30  33
ENDBRANCH  28  29
ENDBRANCH  27  28
ENDBRANCH  26  27
ENDBRANCH  25  26
ENDBRANCH  23  24
ENDBRANCH  21  22
ENDBRANCH  19  20
ENDBRANCH  17  18
BRANCH  17  39
HETATM   39  C21 UNL     1      37.579  29.465  36.838  1.00  0.00     0.202 C 
BRANCH  39  40
HETATM   40  O3  UNL     1      37.048  28.211  36.669  1.00  0.00    -0.398 OA
ATOM     41  H3  UNL     1      36.529  27.941  37.418  1.00  0.00     0.209 HD
ENDBRANCH  39  40
ENDBRANCH  17  39
ENDBRANCH  15  17
TORSDOF 13
ENDMDL
MODEL 2
REMARK VINA RESULT: -7.364314433      7.596     13.749
REMARK  13 active torsions:
REMARK  status: ('A' for Active; 'I' for Inactive)
REMARK       I    between atoms: N1_3  and  C3_5 
REMARK       I    between atoms: N3_7  and  C4_9 
REMARK       I    between atoms: N5_11  and  C5_13 
REMARK    1  A    between atoms: N7_15  and  C6_17 
REMARK    2  A    between atoms: C6_17  and  C7_18 
REMARK    3  A    between atoms: C6_17  and  C21_39 
REMARK    4  A    between atoms: C8_19  and  C9_20 
REMARK    5  A    between atoms: C10_21  and  C11_22 
REMARK    6  A    between atoms: C12_23  and  C13_24 
REMARK    7  A    between atoms: C14_25  and  C15_26 
REMARK    8  A    between atoms: C15_26  and  C16_27 
REMARK    9  A    between atoms: C16_27  and  C17_28 
REMARK   10  A    between atoms: C17_28  and  N8_29 
REMARK       I    between atoms: N8_29  and  C18_31 
REMARK   11  A    between atoms: C18_31  and  C19_33 
REMARK   12  A    between atoms: C19_33  and  N9_34 
REMARK       I    between atoms: N9_34  and  C20_36 
REMARK   13  A    between atoms: C21_39  and  O3_40 
ROOT
HETATM    1  C1  UNL     1      41.301  17.285  39.453  1.00  0.00     0.037 C 
HETATM    2  C2  UNL     1      42.491  17.458  39.545  1.00  0.00     0.001 C 
HETATM    3  N1  UNL     1      43.895  17.644  39.642  1.00  0.00    -0.290 N 
ATOM      4  H1  UNL     1      44.465  16.901  40.047  1.00  0.00     0.179 HD
HETATM    5  C3  UNL     1      44.531  18.830  39.194  1.00  0.00     0.202 C 
HETATM    6  N2  UNL     1      44.593  19.965  40.065  1.00  0.00    -0.062 NA
HETATM    7  N3  UNL     1      45.064  18.951  38.037  1.00  0.00    -0.304 N 
ATOM      8  H3  UNL     1      45.496  19.848  37.817  1.00  0.00     0.171 HD
HETATM    9  C4  UNL     1      45.107  17.957  37.040  1.00  0.00     0.197 C 
HETATM   10  N4  UNL     1      44.702  16.610  37.358  1.00  0.00    -0.063 NA
HETATM   11  N5  UNL     1      45.486  18.145  35.841  1.00  0.00    -0.305 N 
ATOM     12  H5  UNL     1      45.485  17.360  35.190  1.00  0.00     0.171 HD
HETATM   13  C5  UNL     1      45.916  19.429  35.383  1.00  0.00     0.191 C 
HETATM   14  N6  UNL     1      47.049  19.585  34.525  1.00  0.00    -0.063 NA
HETATM   15  N7  UNL     1      45.297  20.497  35.728  1.00  0.00    -0.347 N 
ATOM     16  H7  UNL     1      44.490  20.380  36.341  1.00  0.00     0.163 HD
ENDROOT
BRANCH  15  17
HETATM   17  C6  UNL     1      45.617  21.829  35.347  1.00  0.00     0.188 C 
BRANCH  17  18
HETATM   18  C7  UNL     1      45.456  22.801  36.421  1.00  0.00    -0.065 C 
HETATM   19  C8  UNL     1      45.350  23.614  37.308  1.00  0.00    -0.012 C 
BRANCH  19  20
HETATM   20  C9  UNL     1      45.255  24.573  38.343  1.00  0.00    -0.001 C 
HETATM   21  C10 UNL     1      45.160  25.408  39.210  1.00  0.00    -0.000 C 
BRANCH  21  22
HETATM   22  C11 UNL     1      45.028  26.401  40.206  1.00  0.00    -0.000 C 
HETATM   23  C12 UNL     1      44.924  27.271  41.042  1.00  0.00    -0.001 C 
BRANCH  23  24
HETATM   24  C13 UNL     1      44.814  28.308  42.001  1.00  0.00    -0.014 C 
HETATM   25  C14 UNL     1      44.734  29.177  42.835  1.00  0.00    -0.092 C 
BRANCH  25  26
HETATM   26  C15 UNL     1      44.653  30.227  43.877  1.00  0.00     0.096 C 
BRANCH  26  27
HETATM   27  C16 UNL     1      45.740  29.958  44.924  1.00  0.00     0.032 C 
BRANCH  27  28
HETATM   28  C17 UNL     1      46.619  31.174  44.946  1.00  0.00     0.123 C 
BRANCH  28  29
HETATM   29  N8  UNL     1      45.916  32.416  44.905  1.00  0.00    -0.360 N 
HETATM   30  C18 UNL     1      45.434  33.044  46.092  1.00  0.00     0.235 C 
HETATM   31  O1  UNL     1      45.614  32.520  47.224  1.00  0.00    -0.272 OA
ATOM     32  H8  UNL     1      45.755  32.867  44.003  1.00  0.00     0.162 HD
BRANCH  30  33
HETATM   33  C19 UNL     1      44.707  34.331  46.034  1.00  0.00     0.226 C 
BRANCH  33  34
HETATM   34  N9  UNL     1      43.560  34.247  45.174  1.00  0.00    -0.337 N 
HETATM   35  C20 UNL     1      42.237  34.092  45.672  1.00  0.00     0.329 C 
HETATM   36  N10 UNL     1      41.129  34.013  44.800  1.00  0.00    -0.040 NA
HETATM   37  O2  UNL     1      42.072  34.028  46.911  1.00  0.00    -0.251 OA
ATOM     38  H9  UNL     1      43.700  34.300  44.165  1.00  0.00     0.164 HD
ENDBRANCH  33  34
ENDBRANCH  30  33
ENDBRANCH  28  29
ENDBRANCH  27  28
ENDBRANCH  26  27
ENDBRANCH  25  26
ENDBRANCH  23  24
ENDBRANCH  21  22
ENDBRANCH  19  20
ENDBRANCH  17  18
BRANCH  17  39
HETATM   39  C21 UNL     1      44.777  22.292  34.150  1.00  0.00     0.202 C 
BRANCH  39  40
HETATM   40  O3  UNL     1      45.381  21.998  32.953  1.00  0.00    -0.398 OA
ATOM     41  H3  UNL     1      45.966  22.690  32.670  1.00  0.00     0.209 HD
ENDBRANCH  39  40
ENDBRANCH  17  39
ENDBRANCH  15  17
TORSDOF 13
ENDMDL
MODEL 3
REMARK VINA RESULT: -7.281334208      7.366     13.605
REMARK  13 active torsions:
REMARK  status: ('A' for Active; 'I' for Inactive)
REMARK       I    between atoms: N1_3  and  C3_5 
REMARK       I    between atoms: N3_7  and  C4_9 
REMARK       I    between atoms: N5_11  and  C5_13 
REMARK    1  A    between atoms: N7_15  and  C6_17 
REMARK    2  A    between atoms: C6_17  and  C7_18 
REMARK    3  A    between atoms: C6_17  and  C21_39 
REMARK    4  A    between atoms: C8_19  and  C9_20 
REMARK    5  A    between atoms: C10_21  and  C11_22 
REMARK    6  A    between atoms: C12_23  and  C13_24 
REMARK    7  A    between atoms: C14_25  and  C15_26 
REMARK    8  A    between atoms: C15_26  and  C16_27 
REMARK    9  A    between atoms: C16_27  and  C17_28 
REMARK   10  A    between atoms: C17_28  and  N8_29 
REMARK       I    between atoms: N8_29  and  C18_31 
REMARK   11  A    between atoms: C18_31  and  C19_33 
REMARK   12  A    between atoms: C19_33  and  N9_34 
REMARK       I    between atoms: N9_34  and  C20_36 
REMARK   13  A    between atoms: C21_39  and  O3_40 
ROOT
HETATM    1  C1  UNL     1      41.260  17.257  39.438  1.00  0.00     0.037 C 
HETATM    2  C2  UNL     1      42.450  17.419  39.546  1.00  0.00     0.001 C 
HETATM    3  N1  UNL     1      43.855  17.592  39.661  1.00  0.00    -0.290 N 
ATOM      4  H1  UNL     1      44.414  16.838  40.059  1.00  0.00     0.179 HD
HETATM    5  C3  UNL     1      44.505  18.780  39.241  1.00  0.00     0.202 C 
HETATM    6  N2  UNL     1      44.566  19.900  40.132  1.00  0.00    -0.062 NA
HETATM    7  N3  UNL     1      45.051  18.917  38.092  1.00  0.00    -0.304 N 
ATOM      8  H3  UNL     1      45.492  19.814  37.892  1.00  0.00     0.171 HD
HETATM    9  C4  UNL     1      45.097  17.940  37.078  1.00  0.00     0.197 C 
HETATM   10  N4  UNL     1      44.678  16.591  37.368  1.00  0.00    -0.063 NA
HETATM   11  N5  UNL     1      45.491  18.146  35.887  1.00  0.00    -0.305 N 
ATOM     12  H5  UNL     1      45.490  17.372  35.222  1.00  0.00     0.171 HD
HETATM   13  C5  UNL     1      45.936  19.434  35.456  1.00  0.00     0.191 C 
HETATM   14  N6  UNL     1      47.079  19.596  34.613  1.00  0.00    -0.063 NA
HETATM   15  N7  UNL     1      45.322  20.501  35.813  1.00  0.00    -0.347 N 
ATOM     16  H7  UNL     1      44.507  20.380  36.415  1.00  0.00     0.163 HD
ENDROOT
BRANCH  15  17
HETATM   17  C6  UNL     1      45.656  21.837  35.458  1.00  0.00     0.188 C 
BRANCH  17  18
HETATM   18  C7  UNL     1      45.475  22.794  36.543  1.00  0.00    -0.065 C 
HETATM   19  C8  UNL     1      45.341  23.606  37.426  1.00  0.00    -0.012 C 
BRANCH  19  20
HETATM   20  C9  UNL     1      45.200  24.577  38.446  1.00  0.00    -0.001 C 
HETATM   21  C10 UNL     1      45.095  25.422  39.300  1.00  0.00    -0.000 C 
BRANCH  21  22
HETATM   22  C11 UNL     1      44.984  26.434  40.281  1.00  0.00    -0.000 C 
HETATM   23  C12 UNL     1      44.914  27.309  41.114  1.00  0.00    -0.001 C 
BRANCH  23  24
HETATM   24  C13 UNL     1      44.859  28.342  42.082  1.00  0.00    -0.014 C 
HETATM   25  C14 UNL     1      44.814  29.240  42.888  1.00  0.00    -0.092 C 
BRANCH  25  26
HETATM   26  C15 UNL     1      44.760  30.361  43.854  1.00  0.00     0.096 C 
BRANCH  26  27
HETATM   27  C16 UNL     1      45.495  29.940  45.132  1.00  0.00     0.032 C 
BRANCH  27  28
HETATM   28  C17 UNL     1      44.719  30.517  46.278  1.00  0.00     0.123 C 
BRANCH  28  29
HETATM   29  N8  UNL     1      43.726  31.472  45.904  1.00  0.00    -0.360 N 
HETATM   30  C18 UNL     1      43.770  32.821  46.368  1.00  0.00     0.235 C 
HETATM   31  O1  UNL     1      44.694  33.216  47.130  1.00  0.00    -0.272 OA
ATOM     32  H8  UNL     1      42.965  31.183  45.288  1.00  0.00     0.162 HD
BRANCH  30  33
HETATM   33  C19 UNL     1      42.735  33.800  45.973  1.00  0.00     0.226 C 
BRANCH  33  34
HETATM   34  N9  UNL     1      43.052  34.418  44.715  1.00  0.00    -0.337 N 
HETATM   35  C20 UNL     1      42.682  33.849  43.466  1.00  0.00     0.329 C 
HETATM   36  N10 UNL     1      43.009  34.482  42.246  1.00  0.00    -0.040 NA
HETATM   37  O2  UNL     1      42.054  32.767  43.467  1.00  0.00    -0.251 OA
ATOM     38  H9  UNL     1      43.563  35.300  44.719  1.00  0.00     0.164 HD
ENDBRANCH  33  34
ENDBRANCH  30  33
ENDBRANCH  28  29
ENDBRANCH  27  28
ENDBRANCH  26  27
ENDBRANCH  25  26
ENDBRANCH  23  24
ENDBRANCH  21  22
ENDBRANCH  19  20
ENDBRANCH  17  18
BRANCH  17  39
HETATM   39  C21 UNL     1      44.845  22.321  34.250  1.00  0.00     0.202 C 
BRANCH  39  40
HETATM   40  O3  UNL     1      45.426  21.956  33.061  1.00  0.00    -0.398 OA
ATOM     41  H3  UNL     1      45.258  21.046  32.847  1.00  0.00     0.209 HD
ENDBRANCH  39  40
ENDBRANCH  17  39
ENDBRANCH  15  17
TORSDOF 13
ENDMDL
MODEL 4
REMARK VINA RESULT: -7.068804406      6.561      8.828
REMARK  13 active torsions:
REMARK  status: ('A' for Active; 'I' for Inactive)
REMARK       I    between atoms: N1_3  and  C3_5 
REMARK       I    between atoms: N3_7  and  C4_9 
REMARK       I    between atoms: N5_11  and  C5_13 
REMARK    1  A    between atoms: N7_15  and  C6_17 
REMARK    2  A    between atoms: C6_17  and  C7_18 
REMARK    3  A    between atoms: C6_17  and  C21_39 
REMARK    4  A    between atoms: C8_19  and  C9_20 
REMARK    5  A    between atoms: C10_21  and  C11_22 
REMARK    6  A    between atoms: C12_23  and  C13_24 
REMARK    7  A    between atoms: C14_25  and  C15_26 
REMARK    8  A    between atoms: C15_26  and  C16_27 
REMARK    9  A    between atoms: C16_27  and  C17_28 
REMARK   10  A    between atoms: C17_28  and  N8_29 
REMARK       I    between atoms: N8_29  and  C18_31 
REMARK   11  A    between atoms: C18_31  and  C19_33 
REMARK   12  A    between atoms: C19_33  and  N9_34 
REMARK       I    between atoms: N9_34  and  C20_36 
REMARK   13  A    between atoms: C21_39  and  O3_40 
ROOT
HETATM    1  C1  UNL     1      46.350  32.578  46.268  1.00  0.00     0.037 C 
HETATM    2  C2  UNL     1      45.545  31.784  45.849  1.00  0.00     0.001 C 
HETATM    3  N1  UNL     1      44.582  30.861  45.363  1.00  0.00    -0.290 N 
ATOM      4  H1  UNL     1      43.892  30.481  46.010  1.00  0.00     0.179 HD
HETATM    5  C3  UNL     1      44.549  30.450  44.006  1.00  0.00     0.202 C 
HETATM    6  N2  UNL     1      45.397  29.379  43.576  1.00  0.00    -0.062 NA
HETATM    7  N3  UNL     1      43.795  30.989  43.124  1.00  0.00    -0.304 N 
ATOM      8  H3  UNL     1      43.850  30.617  42.176  1.00  0.00     0.171 HD
HETATM    9  C4  UNL     1      42.897  32.051  43.344  1.00  0.00     0.197 C 
HETATM   10  N4  UNL     1      42.620  32.484  44.692  1.00  0.00    -0.063 NA
HETATM   11  N5  UNL     1      42.281  32.685  42.429  1.00  0.00    -0.305 N 
ATOM     12  H5  UNL     1      41.647  33.441  42.688  1.00  0.00     0.171 HD
HETATM   13  C5  UNL     1      42.457  32.366  41.047  1.00  0.00     0.191 C 
HETATM   14  N6  UNL     1      41.357  32.330  40.134  1.00  0.00    -0.063 NA
HETATM   15  N7  UNL     1      43.616  32.097  40.571  1.00  0.00    -0.347 N 
ATOM     16  H7  UNL     1      44.397  32.123  41.227  1.00  0.00     0.163 HD
ENDROOT
BRANCH  15  17
HETATM   17  C6  UNL     1      43.929  31.765  39.224  1.00  0.00     0.188 C 
BRANCH  17  18
HETATM   18  C7  UNL     1      43.926  30.332  38.958  1.00  0.00    -0.065 C 
HETATM   19  C8  UNL     1      43.951  29.146  38.729  1.00  0.00    -0.012 C 
BRANCH  19  20
HETATM   20  C9  UNL     1      44.009  27.760  38.454  1.00  0.00    -0.001 C 
HETATM   21  C10 UNL     1      44.067  26.583  38.194  1.00  0.00    -0.000 C 
BRANCH  21  22
HETATM   22  C11 UNL     1      44.149  25.212  37.861  1.00  0.00    -0.000 C 
HETATM   23  C12 UNL     1      44.241  24.036  37.591  1.00  0.00    -0.001 C 
BRANCH  23  24
HETATM   24  C13 UNL     1      44.375  22.657  37.290  1.00  0.00    -0.014 C 
HETATM   25  C14 UNL     1      44.498  21.479  37.057  1.00  0.00    -0.092 C 
BRANCH  25  26
HETATM   26  C15 UNL     1      44.658  20.029  36.801  1.00  0.00     0.096 C 
BRANCH  26  27
HETATM   27  C16 UNL     1      45.349  19.393  38.013  1.00  0.00     0.032 C 
BRANCH  27  28
HETATM   28  C17 UNL     1      44.261  18.806  38.863  1.00  0.00     0.123 C 
BRANCH  28  29
HETATM   29  N8  UNL     1      44.589  17.554  39.467  1.00  0.00    -0.360 N 
HETATM   30  C18 UNL     1      43.933  16.345  39.089  1.00  0.00     0.235 C 
HETATM   31  O1  UNL     1      43.037  16.341  38.202  1.00  0.00    -0.272 OA
ATOM     32  H8  UNL     1      45.310  17.524  40.187  1.00  0.00     0.162 HD
BRANCH  30  33
HETATM   33  C19 UNL     1      44.282  15.055  39.724  1.00  0.00     0.226 C 
BRANCH  33  34
HETATM   34  N9  UNL     1      44.367  14.000  38.753  1.00  0.00    -0.337 N 
HETATM   35  C20 UNL     1      44.754  12.675  39.092  1.00  0.00     0.329 C 
HETATM   36  N10 UNL     1      44.828  11.659  38.114  1.00  0.00    -0.040 NA
HETATM   37  O2  UNL     1      45.032  12.423  40.286  1.00  0.00    -0.251 OA
ATOM     38  H9  UNL     1      44.140  14.209  37.781  1.00  0.00     0.164 HD
ENDBRANCH  33  34
ENDBRANCH  30  33
ENDBRANCH  28  29
ENDBRANCH  27  28
ENDBRANCH  26  27
ENDBRANCH  25  26
ENDBRANCH  23  24
ENDBRANCH  21  22
ENDBRANCH  19  20
ENDBRANCH  17  18
BRANCH  17  39
HETATM   39  C21 UNL     1      45.292  32.329  38.804  1.00  0.00     0.202 C 
BRANCH  39  40
HETATM   40  O3  UNL     1      45.263  33.694  38.666  1.00  0.00    -0.398 OA
ATOM     41  H3  UNL     1      45.945  34.007  38.083  1.00  0.00     0.209 HD
ENDBRANCH  39  40
ENDBRANCH  17  39
ENDBRANCH  15  17
TORSDOF 13
ENDMDL
MODEL 5
REMARK VINA RESULT: -7.034892222      1.724      2.093
REMARK  13 active torsions:
REMARK  status: ('A' for Active; 'I' for Inactive)
REMARK       I    between atoms: N1_3  and  C3_5 
REMARK       I    between atoms: N3_7  and  C4_9 
REMARK       I    between atoms: N5_11  and  C5_13 
REMARK    1  A    between atoms: N7_15  and  C6_17 
REMARK    2  A    between atoms: C6_17  and  C7_18 
REMARK    3  A    between atoms: C6_17  and  C21_39 
REMARK    4  A    between atoms: C8_19  and  C9_20 
REMARK    5  A    between atoms: C10_21  and  C11_22 
REMARK    6  A    between atoms: C12_23  and  C13_24 
REMARK    7  A    between atoms: C14_25  and  C15_26 
REMARK    8  A    between atoms: C15_26  and  C16_27 
REMARK    9  A    between atoms: C16_27  and  C17_28 
REMARK   10  A    between atoms: C17_28  and  N8_29 
REMARK       I    between atoms: N8_29  and  C18_31 
REMARK   11  A    between atoms: C18_31  and  C19_33 
REMARK   12  A    between atoms: C19_33  and  N9_34 
REMARK       I    between atoms: N9_34  and  C20_36 
REMARK   13  A    between atoms: C21_39  and  O3_40 
ROOT
HETATM    1  C1  UNL     1      35.793  25.518  29.812  1.00  0.00     0.037 C 
HETATM    2  C2  UNL     1      36.843  26.108  29.886  1.00  0.00     0.001 C 
HETATM    3  N1  UNL     1      38.070  26.818  29.960  1.00  0.00    -0.290 N 
ATOM      4  H1  UNL     1      38.558  27.053  29.096  1.00  0.00     0.179 HD
HETATM    5  C3  UNL     1      38.639  27.212  31.198  1.00  0.00     0.202 C 
HETATM    6  N2  UNL     1      39.445  26.280  31.928  1.00  0.00    -0.062 NA
HETATM    7  N3  UNL     1      38.473  28.371  31.714  1.00  0.00    -0.304 N 
ATOM      8  H3  UNL     1      38.928  28.550  32.609  1.00  0.00     0.171 HD
HETATM    9  C4  UNL     1      37.718  29.422  31.157  1.00  0.00     0.197 C 
HETATM   10  N4  UNL     1      37.224  29.307  29.807  1.00  0.00    -0.063 NA
HETATM   11  N5  UNL     1      37.424  30.504  31.757  1.00  0.00    -0.305 N 
ATOM     12  H5  UNL     1      36.873  31.209  31.268  1.00  0.00     0.171 HD
HETATM   13  C5  UNL     1      37.847  30.756  33.099  1.00  0.00     0.191 C 
HETATM   14  N6  UNL     1      38.333  32.036  33.510  1.00  0.00    -0.063 NA
HETATM   15  N7  UNL     1      37.806  29.836  33.991  1.00  0.00    -0.347 N 
ATOM     16  H7  UNL     1      37.459  28.925  33.692  1.00  0.00     0.163 HD
ENDROOT
BRANCH  15  17
HETATM   17  C6  UNL     1      38.194  29.952  35.354  1.00  0.00     0.188 C 
BRANCH  17  18
HETATM   18  C7  UNL     1      39.280  29.056  35.733  1.00  0.00    -0.065 C 
HETATM   19  C8  UNL     1      40.162  28.292  36.042  1.00  0.00    -0.012 C 
BRANCH  19  20
HETATM   20  C9  UNL     1      41.177  27.374  36.400  1.00  0.00    -0.001 C 
HETATM   21  C10 UNL     1      42.025  26.570  36.702  1.00  0.00    -0.000 C 
BRANCH  21  22
HETATM   22  C11 UNL     1      42.998  25.604  37.046  1.00  0.00    -0.000 C 
HETATM   23  C12 UNL     1      43.832  24.770  37.316  1.00  0.00    -0.001 C 
BRANCH  23  24
HETATM   24  C13 UNL     1      44.807  23.783  37.604  1.00  0.00    -0.014 C 
HETATM   25  C14 UNL     1      45.657  22.961  37.848  1.00  0.00    -0.092 C 
BRANCH  25  26
HETATM   26  C15 UNL     1      46.720  21.974  38.146  1.00  0.00     0.096 C 
BRANCH  26  27
HETATM   27  C16 UNL     1      47.882  22.198  37.171  1.00  0.00     0.032 C 
BRANCH  27  28
HETATM   28  C17 UNL     1      47.855  21.050  36.207  1.00  0.00     0.123 C 
BRANCH  28  29
HETATM   29  N8  UNL     1      47.087  19.927  36.640  1.00  0.00    -0.360 N 
HETATM   30  C18 UNL     1      46.264  19.189  35.738  1.00  0.00     0.235 C 
HETATM   31  O1  UNL     1      46.188  19.505  34.520  1.00  0.00    -0.272 OA
ATOM     32  H8  UNL     1      47.128  19.645  37.620  1.00  0.00     0.162 HD
BRANCH  30  33
HETATM   33  C19 UNL     1      45.474  18.028  36.201  1.00  0.00     0.226 C 
BRANCH  33  34
HETATM   34  N9  UNL     1      45.152  18.136  37.597  1.00  0.00    -0.337 N 
HETATM   35  C20 UNL     1      43.911  18.652  38.061  1.00  0.00     0.329 C 
HETATM   36  N10 UNL     1      43.626  18.745  39.441  1.00  0.00    -0.040 NA
HETATM   37  O2  UNL     1      43.068  19.024  37.215  1.00  0.00    -0.251 OA
ATOM     38  H9  UNL     1      45.843  17.831  38.283  1.00  0.00     0.164 HD
ENDBRANCH  33  34
ENDBRANCH  30  33
ENDBRANCH  28  29
ENDBRANCH  27  28
ENDBRANCH  26  27
ENDBRANCH  25  26
ENDBRANCH  23  24
ENDBRANCH  21  22
ENDBRANCH  19  20
ENDBRANCH  17  18
BRANCH  17  39
HETATM   39  C21 UNL     1      37.014  29.703  36.301  1.00  0.00     0.202 C 
BRANCH  39  40
HETATM   40  O3  UNL     1      36.080  28.863  35.749  1.00  0.00    -0.398 OA
ATOM     41  H3  UNL     1      36.479  28.202  35.196  1.00  0.00     0.209 HD
ENDBRANCH  39  40
ENDBRANCH  17  39
ENDBRANCH  15  17
TORSDOF 13
ENDMDL
