MODEL 1
REMARK VINA RESULT: -8.825325618      0.000      0.000
REMARK  9 active torsions:
REMARK  status: ('A' for Active; 'I' for Inactive)
REMARK       I    between atoms: N2_8  and  C6_9 
REMARK       I    between atoms: C6_9  and  N12_36 
REMARK       I    between atoms: N3_10  and  C7_12 
REMARK       I    between atoms: N5_14  and  C8_16 
REMARK       I    between atoms: N7_18  and  C9_20 
REMARK    1  A    between atoms: N9_22  and  C10_24 
REMARK    2  A    between atoms: C10_24  and  C11_25 
REMARK    3  A    between atoms: C11_25  and  C12_26 
REMARK    4  A    between atoms: C12_26  and  C13_27 
REMARK    5  A    between atoms: C13_27  and  N10_28 
REMARK    6  A    between atoms: N10_28  and  S2_30 
REMARK    7  A    between atoms: S2_30  and  N11_31 
REMARK    8  A    between atoms: N12_36  and  N13_38 
REMARK    9  A    between atoms: N13_38  and  N14_39 
ROOT
HETATM    1  N1  UNL     1      45.464  22.823  31.615  1.00  0.00    -0.195 NA
HETATM    2  C1  UNL     1      46.591  23.070  31.754  1.00  0.00     0.086 C 
HETATM    3  C2  UNL     1      48.011  23.384  31.945  1.00  0.00     0.218 C 
HETATM    4  C3  UNL     1      48.777  22.685  30.852  1.00  0.00     0.115 C 
HETATM    5  S1  UNL     1      49.227  21.016  31.449  1.00  0.00    -0.164 SA
HETATM    6  C4  UNL     1      50.187  21.259  32.975  1.00  0.00     0.094 C 
HETATM    7  C5  UNL     1      49.884  22.684  33.440  1.00  0.00     0.153 C 
HETATM    8  N2  UNL     1      48.469  22.892  33.228  1.00  0.00    -0.198 N 
HETATM    9  C6  UNL     1      47.574  22.608  34.279  1.00  0.00     0.697 C 
HETATM   10  N3  UNL     1      47.005  21.466  34.332  1.00  0.00    -0.162 N 
ATOM     11  H3  UNL     1      47.221  20.789  33.600  1.00  0.00     0.187 HD
HETATM   12  C7  UNL     1      46.089  21.083  35.348  1.00  0.00     0.209 C 
HETATM   13  N4  UNL     1      44.705  21.281  35.275  1.00  0.00    -0.063 NA
HETATM   14  N5  UNL     1      46.604  20.523  36.384  1.00  0.00    -0.304 N 
ATOM     15  H5  UNL     1      47.611  20.372  36.450  1.00  0.00     0.171 HD
HETATM   16  C8  UNL     1      45.725  20.113  37.448  1.00  0.00     0.197 C 
HETATM   17  N6  UNL     1      45.034  21.109  38.170  1.00  0.00    -0.063 NA
HETATM   18  N7  UNL     1      45.625  18.859  37.676  1.00  0.00    -0.305 N 
ATOM     19  H7  UNL     1      46.167  18.218  37.097  1.00  0.00     0.171 HD
HETATM   20  C9  UNL     1      44.785  18.303  38.709  1.00  0.00     0.190 C 
HETATM   21  N8  UNL     1      44.526  19.169  39.801  1.00  0.00    -0.063 NA
HETATM   22  N9  UNL     1      44.357  17.130  38.576  1.00  0.00    -0.364 N 
ATOM     23  H9  UNL     1      44.668  16.686  37.712  1.00  0.00     0.162 HD
HETATM   24  N12 UNL     1      47.318  23.588  35.260  1.00  0.00    -0.116 N 
ATOM     25  H12 UNL     1      46.511  24.198  35.130  1.00  0.00     0.203 HD
ENDROOT
BRANCH  24  26
HETATM   26  N13 UNL     1      48.107  23.773  36.400  1.00  0.00    -0.015 NA
BRANCH  26  27
HETATM   27  N14 UNL     1      47.333  23.631  37.550  1.00  0.00    -0.328 N 
ATOM     28 2H14 UNL     1      46.543  24.232  37.785  1.00  0.00     0.174 HD
ATOM     29 1H14 UNL     1      47.673  22.849  38.110  1.00  0.00     0.174 HD
ENDBRANCH  26  27
ENDBRANCH  24  26
BRANCH  22  30
HETATM   30  C10 UNL     1      43.539  16.292  39.364  1.00  0.00     0.122 C 
BRANCH  30  31
HETATM   31  C11 UNL     1      42.135  16.152  38.845  1.00  0.00     0.021 C 
BRANCH  31  32
HETATM   32  C12 UNL     1      42.045  14.964  37.878  1.00  0.00     0.022 C 
BRANCH  32  33
HETATM   33  C13 UNL     1      43.196  14.056  38.146  1.00  0.00     0.133 C 
BRANCH  33  34
HETATM   34  N10 UNL     1      42.866  12.692  38.416  1.00  0.00    -0.303 N 
ATOM     35  H10 UNL     1      42.024  12.206  38.108  1.00  0.00     0.173 HD
BRANCH  34  36
HETATM   36  S2  UNL     1      44.147  12.009  39.360  1.00  0.00     0.312 S 
HETATM   37  O1  UNL     1      43.591  11.394  40.591  1.00  0.00    -0.183 OA
HETATM   38  O2  UNL     1      45.091  13.109  39.743  1.00  0.00    -0.183 OA
BRANCH  36  39
HETATM   39  N11 UNL     1      45.012  10.820  38.480  1.00  0.00    -0.312 N 
ATOM     40 2H11 UNL     1      44.562  10.054  37.980  1.00  0.00     0.170 HD
ATOM     41 1H11 UNL     1      46.019  10.980  38.523  1.00  0.00     0.170 HD
ENDBRANCH  36  39
ENDBRANCH  34  36
ENDBRANCH  33  34
ENDBRANCH  32  33
ENDBRANCH  31  32
ENDBRANCH  30  31
ENDBRANCH  22  30
TORSDOF 9
ENDMDL
MODEL 2
REMARK VINA RESULT: -8.447863748      3.712      5.017
REMARK  9 active torsions:
REMARK  status: ('A' for Active; 'I' for Inactive)
REMARK       I    between atoms: N2_8  and  C6_9 
REMARK       I    between atoms: C6_9  and  N12_36 
REMARK       I    between atoms: N3_10  and  C7_12 
REMARK       I    between atoms: N5_14  and  C8_16 
REMARK       I    between atoms: N7_18  and  C9_20 
REMARK    1  A    between atoms: N9_22  and  C10_24 
REMARK    2  A    between atoms: C10_24  and  C11_25 
REMARK    3  A    between atoms: C11_25  and  C12_26 
REMARK    4  A    between atoms: C12_26  and  C13_27 
REMARK    5  A    between atoms: C13_27  and  N10_28 
REMARK    6  A    between atoms: N10_28  and  S2_30 
REMARK    7  A    between atoms: S2_30  and  N11_31 
REMARK    8  A    between atoms: N12_36  and  N13_38 
REMARK    9  A    between atoms: N13_38  and  N14_39 
ROOT
HETATM    1  N1  UNL     1      48.817  25.526  39.729  1.00  0.00    -0.195 NA
HETATM    2  C1  UNL     1      48.089  26.270  39.214  1.00  0.00     0.086 C 
HETATM    3  C2  UNL     1      47.167  27.200  38.551  1.00  0.00     0.218 C 
HETATM    4  C3  UNL     1      46.530  28.043  39.624  1.00  0.00     0.115 C 
HETATM    5  S1  UNL     1      45.013  27.192  40.191  1.00  0.00    -0.164 SA
HETATM    6  C4  UNL     1      43.969  26.969  38.718  1.00  0.00     0.094 C 
HETATM    7  C5  UNL     1      44.897  27.144  37.515  1.00  0.00     0.153 C 
HETATM    8  N2  UNL     1      46.131  26.471  37.849  1.00  0.00    -0.198 N 
HETATM    9  C6  UNL     1      46.291  25.119  37.481  1.00  0.00     0.697 C 
HETATM   10  N3  UNL     1      46.013  24.200  38.322  1.00  0.00    -0.162 N 
ATOM     11  H3  UNL     1      45.680  24.479  39.245  1.00  0.00     0.187 HD
HETATM   12  C7  UNL     1      46.140  22.811  38.048  1.00  0.00     0.209 C 
HETATM   13  N4  UNL     1      47.303  22.066  38.282  1.00  0.00    -0.063 NA
HETATM   14  N5  UNL     1      45.100  22.240  37.557  1.00  0.00    -0.304 N 
ATOM     15  H5  UNL     1      44.246  22.770  37.382  1.00  0.00     0.171 HD
HETATM   16  C8  UNL     1      45.168  20.832  37.259  1.00  0.00     0.197 C 
HETATM   17  N6  UNL     1      46.045  20.403  36.240  1.00  0.00    -0.063 NA
HETATM   18  N7  UNL     1      44.422  20.051  37.942  1.00  0.00    -0.305 N 
ATOM     19  H7  UNL     1      43.822  20.460  38.658  1.00  0.00     0.171 HD
HETATM   20  C9  UNL     1      44.385  18.621  37.753  1.00  0.00     0.190 C 
HETATM   21  N8  UNL     1      44.749  18.178  36.457  1.00  0.00    -0.063 NA
HETATM   22  N9  UNL     1      44.042  17.892  38.717  1.00  0.00    -0.364 N 
ATOM     23  H9  UNL     1      43.821  18.421  39.560  1.00  0.00     0.162 HD
HETATM   24  N12 UNL     1      46.756  24.800  36.189  1.00  0.00    -0.116 N 
ATOM     25  H12 UNL     1      47.756  24.647  36.062  1.00  0.00     0.203 HD
ENDROOT
BRANCH  24  26
HETATM   26  N13 UNL     1      45.925  24.680  35.070  1.00  0.00    -0.015 NA
BRANCH  26  27
HETATM   27  N14 UNL     1      46.041  23.407  34.516  1.00  0.00    -0.328 N 
ATOM     28 2H14 UNL     1      45.815  22.545  35.012  1.00  0.00     0.174 HD
ATOM     29 1H14 UNL     1      46.382  23.469  33.556  1.00  0.00     0.174 HD
ENDBRANCH  26  27
ENDBRANCH  24  26
BRANCH  22  30
HETATM   30  C10 UNL     1      43.898  16.498  38.885  1.00  0.00     0.122 C 
BRANCH  30  31
HETATM   31  C11 UNL     1      42.470  16.048  39.023  1.00  0.00     0.021 C 
BRANCH  31  32
HETATM   32  C12 UNL     1      42.141  14.997  37.955  1.00  0.00     0.022 C 
BRANCH  32  33
HETATM   33  C13 UNL     1      43.227  13.978  37.952  1.00  0.00     0.133 C 
BRANCH  33  34
HETATM   34  N10 UNL     1      42.852  12.664  38.368  1.00  0.00    -0.303 N 
ATOM     35  H10 UNL     1      41.979  12.189  38.141  1.00  0.00     0.173 HD
BRANCH  34  36
HETATM   36  S2  UNL     1      44.142  12.018  39.327  1.00  0.00     0.312 S 
HETATM   37  O1  UNL     1      43.589  11.394  40.555  1.00  0.00    -0.183 OA
HETATM   38  O2  UNL     1      45.052  13.144  39.716  1.00  0.00    -0.183 OA
BRANCH  36  39
HETATM   39  N11 UNL     1      45.046  10.848  38.461  1.00  0.00    -0.312 N 
ATOM     40 2H11 UNL     1      44.701  10.380  37.624  1.00  0.00     0.170 HD
ATOM     41 1H11 UNL     1      45.958  10.687  38.889  1.00  0.00     0.170 HD
ENDBRANCH  36  39
ENDBRANCH  34  36
ENDBRANCH  33  34
ENDBRANCH  32  33
ENDBRANCH  31  32
ENDBRANCH  30  31
ENDBRANCH  22  30
TORSDOF 9
ENDMDL
MODEL 3
REMARK VINA RESULT: -8.436385920      3.419      4.323
REMARK  9 active torsions:
REMARK  status: ('A' for Active; 'I' for Inactive)
REMARK       I    between atoms: N2_8  and  C6_9 
REMARK       I    between atoms: C6_9  and  N12_36 
REMARK       I    between atoms: N3_10  and  C7_12 
REMARK       I    between atoms: N5_14  and  C8_16 
REMARK       I    between atoms: N7_18  and  C9_20 
REMARK    1  A    between atoms: N9_22  and  C10_24 
REMARK    2  A    between atoms: C10_24  and  C11_25 
REMARK    3  A    between atoms: C11_25  and  C12_26 
REMARK    4  A    between atoms: C12_26  and  C13_27 
REMARK    5  A    between atoms: C13_27  and  N10_28 
REMARK    6  A    between atoms: N10_28  and  S2_30 
REMARK    7  A    between atoms: S2_30  and  N11_31 
REMARK    8  A    between atoms: N12_36  and  N13_38 
REMARK    9  A    between atoms: N13_38  and  N14_39 
ROOT
HETATM    1  N1  UNL     1      49.775  24.943  35.648  1.00  0.00    -0.195 NA
HETATM    2  C1  UNL     1      49.330  25.775  36.326  1.00  0.00     0.086 C 
HETATM    3  C2  UNL     1      48.754  26.822  37.177  1.00  0.00     0.218 C 
HETATM    4  C3  UNL     1      49.767  27.140  38.246  1.00  0.00     0.115 C 
HETATM    5  S1  UNL     1      49.461  26.033  39.670  1.00  0.00    -0.164 SA
HETATM    6  C4  UNL     1      47.739  26.322  40.183  1.00  0.00     0.094 C 
HETATM    7  C5  UNL     1      47.058  27.011  38.999  1.00  0.00     0.153 C 
HETATM    8  N2  UNL     1      47.539  26.349  37.808  1.00  0.00    -0.198 N 
HETATM    9  C6  UNL     1      46.809  25.258  37.293  1.00  0.00     0.697 C 
HETATM   10  N3  UNL     1      47.138  24.069  37.620  1.00  0.00    -0.162 N 
ATOM     11  H3  UNL     1      47.930  23.947  38.251  1.00  0.00     0.187 HD
HETATM   12  C7  UNL     1      46.468  22.905  37.156  1.00  0.00     0.209 C 
HETATM   13  N4  UNL     1      46.812  22.211  35.989  1.00  0.00    -0.063 NA
HETATM   14  N5  UNL     1      45.489  22.496  37.881  1.00  0.00    -0.304 N 
ATOM     15  H5  UNL     1      45.228  22.992  38.733  1.00  0.00     0.171 HD
HETATM   16  C8  UNL     1      44.770  21.321  37.462  1.00  0.00     0.197 C 
HETATM   17  N6  UNL     1      44.028  21.380  36.263  1.00  0.00    -0.063 NA
HETATM   18  N7  UNL     1      44.850  20.287  38.209  1.00  0.00    -0.305 N 
ATOM     19  H7  UNL     1      45.414  20.345  39.056  1.00  0.00     0.171 HD
HETATM   20  C9  UNL     1      44.184  19.041  37.915  1.00  0.00     0.190 C 
HETATM   21  N8  UNL     1      43.019  19.158  37.115  1.00  0.00    -0.063 NA
HETATM   22  N9  UNL     1      44.664  17.975  38.374  1.00  0.00    -0.364 N 
ATOM     23  H9  UNL     1      45.509  18.121  38.926  1.00  0.00     0.162 HD
HETATM   24  N12 UNL     1      45.724  25.494  36.424  1.00  0.00    -0.116 N 
ATOM     25  H12 UNL     1      45.900  25.472  35.419  1.00  0.00     0.203 HD
ENDROOT
BRANCH  24  26
HETATM   26  N13 UNL     1      44.421  25.757  36.859  1.00  0.00    -0.015 NA
BRANCH  26  27
HETATM   27  N14 UNL     1      43.554  24.760  36.417  1.00  0.00    -0.328 N 
ATOM     28 2H14 UNL     1      43.390  24.539  35.435  1.00  0.00     0.174 HD
ATOM     29 1H14 UNL     1      43.118  24.293  37.213  1.00  0.00     0.174 HD
ENDBRANCH  26  27
ENDBRANCH  24  26
BRANCH  22  30
HETATM   30  C10 UNL     1      44.286  16.617  38.291  1.00  0.00     0.122 C 
BRANCH  30  31
HETATM   31  C11 UNL     1      43.028  16.291  39.046  1.00  0.00     0.021 C 
BRANCH  31  32
HETATM   32  C12 UNL     1      42.236  15.203  38.309  1.00  0.00     0.022 C 
BRANCH  32  33
HETATM   33  C13 UNL     1      43.175  14.103  37.950  1.00  0.00     0.133 C 
BRANCH  33  34
HETATM   34  N10 UNL     1      42.791  12.792  38.368  1.00  0.00    -0.303 N 
ATOM     35  H10 UNL     1      41.918  12.321  38.135  1.00  0.00     0.173 HD
BRANCH  34  36
HETATM   36  S2  UNL     1      44.070  12.144  39.340  1.00  0.00     0.312 S 
HETATM   37  O1  UNL     1      43.512  11.587  40.597  1.00  0.00    -0.183 OA
HETATM   38  O2  UNL     1      45.019  13.255  39.674  1.00  0.00    -0.183 OA
BRANCH  36  39
HETATM   39  N11 UNL     1      44.928  10.913  38.512  1.00  0.00    -0.312 N 
ATOM     40 2H11 UNL     1      45.003  10.868  37.496  1.00  0.00     0.170 HD
ATOM     41 1H11 UNL     1      45.345  10.246  39.161  1.00  0.00     0.170 HD
ENDBRANCH  36  39
ENDBRANCH  34  36
ENDBRANCH  33  34
ENDBRANCH  32  33
ENDBRANCH  31  32
ENDBRANCH  30  31
ENDBRANCH  22  30
TORSDOF 9
ENDMDL
MODEL 4
REMARK VINA RESULT: -8.410063701      2.021      2.454
REMARK  9 active torsions:
REMARK  status: ('A' for Active; 'I' for Inactive)
REMARK       I    between atoms: N2_8  and  C6_9 
REMARK       I    between atoms: C6_9  and  N12_36 
REMARK       I    between atoms: N3_10  and  C7_12 
REMARK       I    between atoms: N5_14  and  C8_16 
REMARK       I    between atoms: N7_18  and  C9_20 
REMARK    1  A    between atoms: N9_22  and  C10_24 
REMARK    2  A    between atoms: C10_24  and  C11_25 
REMARK    3  A    between atoms: C11_25  and  C12_26 
REMARK    4  A    between atoms: C12_26  and  C13_27 
REMARK    5  A    between atoms: C13_27  and  N10_28 
REMARK    6  A    between atoms: N10_28  and  S2_30 
REMARK    7  A    between atoms: S2_30  and  N11_31 
REMARK    8  A    between atoms: N12_36  and  N13_38 
REMARK    9  A    between atoms: N13_38  and  N14_39 
ROOT
HETATM    1  N1  UNL     1      48.016  22.953  32.468  1.00  0.00    -0.195 NA
HETATM    2  C1  UNL     1      48.198  23.886  33.136  1.00  0.00     0.086 C 
HETATM    3  C2  UNL     1      48.413  25.062  33.986  1.00  0.00     0.218 C 
HETATM    4  C3  UNL     1      49.896  25.186  34.215  1.00  0.00     0.115 C 
HETATM    5  S1  UNL     1      50.326  24.223  35.710  1.00  0.00    -0.164 SA
HETATM    6  C4  UNL     1      49.317  24.901  37.064  1.00  0.00     0.094 C 
HETATM    7  C5  UNL     1      48.185  25.681  36.394  1.00  0.00     0.153 C 
HETATM    8  N2  UNL     1      47.754  24.889  35.264  1.00  0.00    -0.198 N 
HETATM    9  C6  UNL     1      46.700  23.968  35.441  1.00  0.00     0.697 C 
HETATM   10  N3  UNL     1      46.968  22.748  35.702  1.00  0.00    -0.162 N 
ATOM     11  H3  UNL     1      47.949  22.477  35.775  1.00  0.00     0.187 HD
HETATM   12  C7  UNL     1      45.981  21.744  35.896  1.00  0.00     0.209 C 
HETATM   13  N4  UNL     1      45.451  20.952  34.870  1.00  0.00    -0.063 NA
HETATM   14  N5  UNL     1      45.574  21.585  37.104  1.00  0.00    -0.304 N 
ATOM     15  H5  UNL     1      45.952  22.155  37.862  1.00  0.00     0.171 HD
HETATM   16  C8  UNL     1      44.574  20.583  37.364  1.00  0.00     0.197 C 
HETATM   17  N6  UNL     1      43.286  20.762  36.817  1.00  0.00    -0.063 NA
HETATM   18  N7  UNL     1      44.918  19.583  38.082  1.00  0.00    -0.305 N 
ATOM     19  H7  UNL     1      45.875  19.545  38.431  1.00  0.00     0.171 HD
HETATM   20  C9  UNL     1      44.023  18.504  38.424  1.00  0.00     0.190 C 
HETATM   21  N8  UNL     1      42.647  18.846  38.430  1.00  0.00    -0.063 NA
HETATM   22  N9  UNL     1      44.507  17.375  38.686  1.00  0.00    -0.364 N 
ATOM     23  H9  UNL     1      45.524  17.351  38.622  1.00  0.00     0.162 HD
HETATM   24  N12 UNL     1      45.366  24.407  35.327  1.00  0.00    -0.116 N 
ATOM     25  H12 UNL     1      44.905  24.312  34.421  1.00  0.00     0.203 HD
ENDROOT
BRANCH  24  26
HETATM   26  N13 UNL     1      44.636  24.964  36.382  1.00  0.00    -0.015 NA
BRANCH  26  27
HETATM   27  N14 UNL     1      43.651  24.076  36.810  1.00  0.00    -0.328 N 
ATOM     28 2H14 UNL     1      43.575  23.725  37.765  1.00  0.00     0.174 HD
ATOM     29 1H14 UNL     1      43.032  23.836  36.036  1.00  0.00     0.174 HD
ENDBRANCH  26  27
ENDBRANCH  24  26
BRANCH  22  30
HETATM   30  C10 UNL     1      43.946  16.131  39.049  1.00  0.00     0.122 C 
BRANCH  30  31
HETATM   31  C11 UNL     1      42.457  16.059  38.861  1.00  0.00     0.021 C 
BRANCH  31  32
HETATM   32  C12 UNL     1      42.097  14.901  37.922  1.00  0.00     0.022 C 
BRANCH  32  33
HETATM   33  C13 UNL     1      43.203  13.903  37.966  1.00  0.00     0.133 C 
BRANCH  33  34
HETATM   34  N10 UNL     1      42.840  12.586  38.381  1.00  0.00    -0.303 N 
ATOM     35  H10 UNL     1      41.966  12.108  38.164  1.00  0.00     0.173 HD
BRANCH  34  36
HETATM   36  S2  UNL     1      44.145  11.942  39.320  1.00  0.00     0.312 S 
HETATM   37  O1  UNL     1      43.615  11.330  40.563  1.00  0.00    -0.183 OA
HETATM   38  O2  UNL     1      45.068  13.066  39.681  1.00  0.00    -0.183 OA
BRANCH  36  39
HETATM   39  N11 UNL     1      45.027  10.761  38.445  1.00  0.00    -0.312 N 
ATOM     40 2H11 UNL     1      46.046  10.735  38.408  1.00  0.00     0.170 HD
ATOM     41 1H11 UNL     1      44.406  10.100  37.976  1.00  0.00     0.170 HD
ENDBRANCH  36  39
ENDBRANCH  34  36
ENDBRANCH  33  34
ENDBRANCH  32  33
ENDBRANCH  31  32
ENDBRANCH  30  31
ENDBRANCH  22  30
TORSDOF 9
ENDMDL
MODEL 5
REMARK VINA RESULT: -8.349300697      1.162      1.187
REMARK  9 active torsions:
REMARK  status: ('A' for Active; 'I' for Inactive)
REMARK       I    between atoms: N2_8  and  C6_9 
REMARK       I    between atoms: C6_9  and  N12_36 
REMARK       I    between atoms: N3_10  and  C7_12 
REMARK       I    between atoms: N5_14  and  C8_16 
REMARK       I    between atoms: N7_18  and  C9_20 
REMARK    1  A    between atoms: N9_22  and  C10_24 
REMARK    2  A    between atoms: C10_24  and  C11_25 
REMARK    3  A    between atoms: C11_25  and  C12_26 
REMARK    4  A    between atoms: C12_26  and  C13_27 
REMARK    5  A    between atoms: C13_27  and  N10_28 
REMARK    6  A    between atoms: N10_28  and  S2_30 
REMARK    7  A    between atoms: S2_30  and  N11_31 
REMARK    8  A    between atoms: N12_36  and  N13_38 
REMARK    9  A    between atoms: N13_38  and  N14_39 
ROOT
HETATM    1  N1  UNL     1      45.480  23.382  30.622  1.00  0.00    -0.195 NA
HETATM    2  C1  UNL     1      46.501  23.875  30.873  1.00  0.00     0.086 C 
HETATM    3  C2  UNL     1      47.787  24.499  31.203  1.00  0.00     0.218 C 
HETATM    4  C3  UNL     1      48.801  23.996  30.209  1.00  0.00     0.115 C 
HETATM    5  S1  UNL     1      49.548  22.468  30.882  1.00  0.00    -0.164 SA
HETATM    6  C4  UNL     1      50.263  22.914  32.494  1.00  0.00     0.094 C 
HETATM    7  C5  UNL     1      49.601  24.232  32.897  1.00  0.00     0.153 C 
HETATM    8  N2  UNL     1      48.206  24.117  32.536  1.00  0.00    -0.198 N 
HETATM    9  C6  UNL     1      47.292  23.635  33.495  1.00  0.00     0.697 C 
HETATM   10  N3  UNL     1      46.991  22.394  33.510  1.00  0.00    -0.162 N 
ATOM     11  H3  UNL     1      47.429  21.786  32.818  1.00  0.00     0.187 HD
HETATM   12  C7  UNL     1      46.082  21.811  34.433  1.00  0.00     0.209 C 
HETATM   13  N4  UNL     1      44.704  21.693  34.214  1.00  0.00    -0.063 NA
HETATM   14  N5  UNL     1      46.597  21.376  35.527  1.00  0.00    -0.304 N 
ATOM     15  H5  UNL     1      47.600  21.455  35.700  1.00  0.00     0.171 HD
HETATM   16  C8  UNL     1      45.726  20.774  36.503  1.00  0.00     0.197 C 
HETATM   17  N6  UNL     1      44.757  21.586  37.129  1.00  0.00    -0.063 NA
HETATM   18  N7  UNL     1      45.886  19.529  36.743  1.00  0.00    -0.305 N 
ATOM     19  H7  UNL     1      46.615  19.029  36.236  1.00  0.00     0.171 HD
HETATM   20  C9  UNL     1      45.087  18.793  37.694  1.00  0.00     0.190 C 
HETATM   21  N8  UNL     1      44.527  19.574  38.736  1.00  0.00    -0.063 NA
HETATM   22  N9  UNL     1      44.950  17.555  37.540  1.00  0.00    -0.364 N 
ATOM     23  H9  UNL     1      45.441  17.196  36.721  1.00  0.00     0.162 HD
HETATM   24  N12 UNL     1      46.722  24.528  34.424  1.00  0.00    -0.116 N 
ATOM     25  H12 UNL     1      45.816  24.942  34.200  1.00  0.00     0.203 HD
ENDROOT
BRANCH  24  26
HETATM   26  N13 UNL     1      47.324  24.880  35.636  1.00  0.00    -0.015 NA
BRANCH  26  27
HETATM   27  N14 UNL     1      46.396  24.813  36.674  1.00  0.00    -0.328 N 
ATOM     28 2H14 UNL     1      45.488  24.355  36.600  1.00  0.00     0.174 HD
ATOM     29 1H14 UNL     1      46.759  25.285  37.503  1.00  0.00     0.174 HD
ENDBRANCH  26  27
ENDBRANCH  24  26
BRANCH  22  30
HETATM   30  C10 UNL     1      44.262  16.551  38.255  1.00  0.00     0.122 C 
BRANCH  30  31
HETATM   31  C11 UNL     1      42.765  16.642  38.140  1.00  0.00     0.021 C 
BRANCH  31  32
HETATM   32  C12 UNL     1      42.157  15.238  38.037  1.00  0.00     0.022 C 
BRANCH  32  33
HETATM   33  C13 UNL     1      43.246  14.241  38.234  1.00  0.00     0.133 C 
BRANCH  33  34
HETATM   34  N10 UNL     1      42.827  12.911  38.545  1.00  0.00    -0.303 N 
ATOM     35  H10 UNL     1      41.959  12.470  38.244  1.00  0.00     0.173 HD
BRANCH  34  36
HETATM   36  S2  UNL     1      44.054  12.178  39.522  1.00  0.00     0.312 S 
HETATM   37  O1  UNL     1      43.436  11.551  40.717  1.00  0.00    -0.183 OA
HETATM   38  O2  UNL     1      45.007  13.247  39.967  1.00  0.00    -0.183 OA
BRANCH  36  39
HETATM   39  N11 UNL     1      44.927  10.987  38.651  1.00  0.00    -0.312 N 
ATOM     40 2H11 UNL     1      44.481  10.206  38.170  1.00  0.00     0.170 HD
ATOM     41 1H11 UNL     1      45.931  11.163  38.679  1.00  0.00     0.170 HD
ENDBRANCH  36  39
ENDBRANCH  34  36
ENDBRANCH  33  34
ENDBRANCH  32  33
ENDBRANCH  31  32
ENDBRANCH  30  31
ENDBRANCH  22  30
TORSDOF 9
ENDMDL
