MODEL 1
REMARK VINA RESULT: -7.637181664      0.000      0.000
REMARK  11 active torsions:
REMARK  status: ('A' for Active; 'I' for Inactive)
REMARK    1  A    between atoms: C6_9  and  C7_10 
REMARK    2  A    between atoms: C7_10  and  C12_16 
REMARK    3  A    between atoms: C8_11  and  N2_12 
REMARK    4  A    between atoms: C12_16  and  C13_17 
REMARK    5  A    between atoms: C12_16  and  N4_22 
REMARK    6  A    between atoms: C13_17  and  S1_18 
REMARK    7  A    between atoms: S1_18  and  N3_19 
REMARK       I    between atoms: C14_24  and  N6_26 
REMARK    8  A    between atoms: N6_26  and  C15_28 
REMARK    9  A    between atoms: C15_28  and  C16_29 
REMARK   10  A    between atoms: C17_30  and  C18_31 
REMARK   11  A    between atoms: C18_31  and  N7_32 
REMARK       I    between atoms: N7_32  and  C19_34 
ROOT
HETATM    1  C12 UNL     1      47.335  20.795  36.654  1.00  0.00     0.130 C 
ENDROOT
BRANCH   1   2
HETATM    2  C7  UNL     1      47.335  22.175  36.002  1.00  0.00     0.004 C 
HETATM    3  C8  UNL     1      47.873  22.174  34.668  1.00  0.00     0.211 C 
BRANCH   2   4
HETATM    4  C6  UNL     1      46.839  23.126  36.765  1.00  0.00     0.038 A 
HETATM    5  C5  UNL     1      45.447  23.366  36.794  1.00  0.00     0.209 A 
HETATM    6  C3  UNL     1      44.884  24.347  37.589  1.00  0.00     0.074 A 
HETATM    7  O1  UNL     1      44.590  22.759  36.141  1.00  0.00    -0.285 OA
HETATM    8  N1  UNL     1      45.599  25.120  38.370  1.00  0.00    -0.354 N 
HETATM    9  C4  UNL     1      43.547  24.521  37.567  1.00  0.00     0.047 C 
HETATM   10  C2  UNL     1      46.926  24.963  38.406  1.00  0.00     0.033 A 
ATOM     11  H1  UNL     1      45.148  25.833  38.943  1.00  0.00     0.166 HD
HETATM   12  C1  UNL     1      47.593  25.763  39.217  1.00  0.00     0.044 C 
HETATM   13  C20 UNL     1      47.536  23.979  37.612  1.00  0.00    -0.005 A 
HETATM   14  C21 UNL     1      48.822  23.962  37.713  1.00  0.00     0.026 C 
ENDBRANCH   2   4
BRANCH   3  15
HETATM   15  N2  UNL     1      47.230  21.740  33.499  1.00  0.00    -0.058 N 
HETATM   16  C9  UNL     1      46.308  20.658  33.581  1.00  0.00     0.277 C 
HETATM   17  C10 UNL     1      48.080  21.618  32.305  1.00  0.00     0.277 C 
HETATM   18  C11 UNL     1      46.350  22.883  33.033  1.00  0.00     0.277 C 
ENDBRANCH   3  15
ENDBRANCH   1   2
BRANCH   1  19
HETATM   19  C13 UNL     1      48.475  20.473  37.520  1.00  0.00     0.127 C 
BRANCH  19  20
HETATM   20  S1  UNL     1      49.495  19.168  36.675  1.00  0.00    -0.060 SA
BRANCH  20  21
HETATM   21  N3  UNL     1      50.021  17.956  37.803  1.00  0.00    -0.374 N 
ATOM     22  H32 UNL     1      49.384  17.332  38.299  1.00  0.00     0.164 HD
ATOM     23  H31 UNL     1      51.036  17.956  37.897  1.00  0.00     0.164 HD
ENDBRANCH  20  21
ENDBRANCH  19  20
ENDBRANCH   1  19
BRANCH   1  24
HETATM   24  N4  UNL     1      46.124  20.763  37.595  1.00  0.00    -0.355 N 
HETATM   25  C14 UNL     1      45.510  19.625  37.760  1.00  0.00     0.185 C 
HETATM   26  N5  UNL     1      45.923  18.430  37.105  1.00  0.00    -0.064 NA
HETATM   27  N6  UNL     1      44.377  19.527  38.605  1.00  0.00    -0.354 N 
ATOM     28  H6  UNL     1      43.578  20.150  38.481  1.00  0.00     0.163 HD
ATOM     29  H4  UNL     1      45.808  21.605  38.077  1.00  0.00     0.162 HD
BRANCH  27  30
HETATM   30  C15 UNL     1      44.376  18.534  39.638  1.00  0.00     0.216 C 
BRANCH  30  31
HETATM   31  C16 UNL     1      44.006  17.211  39.139  1.00  0.00    -0.085 C 
HETATM   32  C17 UNL     1      43.716  16.111  38.740  1.00  0.00    -0.085 C 
BRANCH  32  33
HETATM   33  C18 UNL     1      43.386  14.765  38.268  1.00  0.00     0.216 C 
BRANCH  33  34
HETATM   34  N7  UNL     1      44.557  13.899  38.254  1.00  0.00    -0.354 N 
HETATM   35  C19 UNL     1      44.432  12.649  38.894  1.00  0.00     0.182 C 
HETATM   36  N8  UNL     1      43.735  11.725  38.354  1.00  0.00    -0.374 N 
HETATM   37  N9  UNL     1      45.072  12.415  40.128  1.00  0.00    -0.064 NA
ATOM     38  H82 UNL     1      43.272  11.894  37.461  1.00  0.00     0.158 HD
ATOM     39  H81 UNL     1      43.645  10.820  38.817  1.00  0.00     0.158 HD
ATOM     40  H7  UNL     1      45.425  14.183  37.803  1.00  0.00     0.163 HD
ENDBRANCH  33  34
ENDBRANCH  32  33
ENDBRANCH  30  31
ENDBRANCH  27  30
ENDBRANCH   1  24
TORSDOF 11
ENDMDL
MODEL 2
REMARK VINA RESULT: -7.634454593      1.673      4.289
REMARK  11 active torsions:
REMARK  status: ('A' for Active; 'I' for Inactive)
REMARK    1  A    between atoms: C6_9  and  C7_10 
REMARK    2  A    between atoms: C7_10  and  C12_16 
REMARK    3  A    between atoms: C8_11  and  N2_12 
REMARK    4  A    between atoms: C12_16  and  C13_17 
REMARK    5  A    between atoms: C12_16  and  N4_22 
REMARK    6  A    between atoms: C13_17  and  S1_18 
REMARK    7  A    between atoms: S1_18  and  N3_19 
REMARK       I    between atoms: C14_24  and  N6_26 
REMARK    8  A    between atoms: N6_26  and  C15_28 
REMARK    9  A    between atoms: C15_28  and  C16_29 
REMARK   10  A    between atoms: C17_30  and  C18_31 
REMARK   11  A    between atoms: C18_31  and  N7_32 
REMARK       I    between atoms: N7_32  and  C19_34 
ROOT
HETATM    1  C12 UNL     1      46.610  20.946  35.634  1.00  0.00     0.130 C 
ENDROOT
BRANCH   1   2
HETATM    2  C7  UNL     1      46.334  22.322  35.031  1.00  0.00     0.004 C 
HETATM    3  C8  UNL     1      45.436  23.119  35.822  1.00  0.00     0.211 C 
BRANCH   2   4
HETATM    4  C6  UNL     1      46.967  22.545  33.899  1.00  0.00     0.038 A 
HETATM    5  C5  UNL     1      48.312  22.978  33.905  1.00  0.00     0.209 A 
HETATM    6  C3  UNL     1      49.016  23.213  32.738  1.00  0.00     0.074 A 
HETATM    7  O1  UNL     1      49.002  23.195  34.907  1.00  0.00    -0.285 OA
HETATM    8  N1  UNL     1      48.489  23.050  31.550  1.00  0.00    -0.354 N 
HETATM    9  C4  UNL     1      50.297  23.626  32.819  1.00  0.00     0.047 C 
HETATM   10  C2  UNL     1      47.220  22.641  31.450  1.00  0.00     0.033 A 
ATOM     11  H1  UNL     1      49.040  23.233  30.711  1.00  0.00     0.166 HD
HETATM   12  C1  UNL     1      46.745  22.486  30.227  1.00  0.00     0.044 C 
HETATM   13  C20 UNL     1      46.470  22.394  32.610  1.00  0.00    -0.005 A 
HETATM   14  C21 UNL     1      45.252  22.045  32.370  1.00  0.00     0.026 C 
ENDBRANCH   2   4
BRANCH   3  15
HETATM   15  N2  UNL     1      45.742  23.816  37.001  1.00  0.00    -0.058 N 
HETATM   16  C9  UNL     1      47.024  24.423  37.131  1.00  0.00     0.277 C 
HETATM   17  C10 UNL     1      45.339  23.165  38.257  1.00  0.00     0.277 C 
HETATM   18  C11 UNL     1      44.810  25.011  37.058  1.00  0.00     0.277 C 
ENDBRANCH   3  15
ENDBRANCH   1   2
BRANCH   1  19
HETATM   19  C13 UNL     1      47.489  20.903  36.807  1.00  0.00     0.127 C 
BRANCH  19  20
HETATM   20  S1  UNL     1      49.069  20.054  36.317  1.00  0.00    -0.060 SA
BRANCH  20  21
HETATM   21  N3  UNL     1      49.338  18.628  37.273  1.00  0.00    -0.374 N 
ATOM     22  H32 UNL     1      49.541  17.712  36.875  1.00  0.00     0.164 HD
ATOM     23  H31 UNL     1      49.264  18.834  38.269  1.00  0.00     0.164 HD
ENDBRANCH  20  21
ENDBRANCH  19  20
ENDBRANCH   1  19
BRANCH   1  24
HETATM   24  N4  UNL     1      45.262  20.426  36.152  1.00  0.00    -0.355 N 
HETATM   25  C14 UNL     1      45.189  19.175  36.509  1.00  0.00     0.185 C 
HETATM   26  N5  UNL     1      46.302  18.291  36.438  1.00  0.00    -0.064 NA
HETATM   27  N6  UNL     1      43.972  18.626  36.985  1.00  0.00    -0.354 N 
ATOM     28  H6  UNL     1      43.113  18.712  36.441  1.00  0.00     0.163 HD
ATOM     29  H4  UNL     1      44.449  21.039  36.214  1.00  0.00     0.162 HD
BRANCH  27  30
HETATM   30  C15 UNL     1      43.973  17.947  38.247  1.00  0.00     0.216 C 
BRANCH  30  31
HETATM   31  C16 UNL     1      44.006  16.494  38.099  1.00  0.00    -0.085 C 
HETATM   32  C17 UNL     1      44.035  15.293  37.998  1.00  0.00    -0.085 C 
BRANCH  32  33
HETATM   33  C18 UNL     1      44.076  13.833  37.902  1.00  0.00     0.216 C 
BRANCH  33  34
HETATM   34  N7  UNL     1      44.771  13.239  39.036  1.00  0.00    -0.354 N 
HETATM   35  C19 UNL     1      44.436  11.909  39.363  1.00  0.00     0.182 C 
HETATM   36  N8  UNL     1      44.829  10.952  38.615  1.00  0.00    -0.374 N 
HETATM   37  N9  UNL     1      43.669  11.633  40.513  1.00  0.00    -0.064 NA
ATOM     38  H82 UNL     1      45.385  11.152  37.783  1.00  0.00     0.158 HD
ATOM     39  H81 UNL     1      44.587   9.990  38.852  1.00  0.00     0.158 HD
ATOM     40  H7  UNL     1      45.467  13.761  39.568  1.00  0.00     0.163 HD
ENDBRANCH  33  34
ENDBRANCH  32  33
ENDBRANCH  30  31
ENDBRANCH  27  30
ENDBRANCH   1  24
TORSDOF 11
ENDMDL
MODEL 3
REMARK VINA RESULT: -7.496269735      1.699      3.953
REMARK  11 active torsions:
REMARK  status: ('A' for Active; 'I' for Inactive)
REMARK    1  A    between atoms: C6_9  and  C7_10 
REMARK    2  A    between atoms: C7_10  and  C12_16 
REMARK    3  A    between atoms: C8_11  and  N2_12 
REMARK    4  A    between atoms: C12_16  and  C13_17 
REMARK    5  A    between atoms: C12_16  and  N4_22 
REMARK    6  A    between atoms: C13_17  and  S1_18 
REMARK    7  A    between atoms: S1_18  and  N3_19 
REMARK       I    between atoms: C14_24  and  N6_26 
REMARK    8  A    between atoms: N6_26  and  C15_28 
REMARK    9  A    between atoms: C15_28  and  C16_29 
REMARK   10  A    between atoms: C17_30  and  C18_31 
REMARK   11  A    between atoms: C18_31  and  N7_32 
REMARK       I    between atoms: N7_32  and  C19_34 
ROOT
HETATM    1  C12 UNL     1      46.580  20.978  35.517  1.00  0.00     0.130 C 
ENDROOT
BRANCH   1   2
HETATM    2  C7  UNL     1      46.274  22.316  34.849  1.00  0.00     0.004 C 
HETATM    3  C8  UNL     1      45.259  23.073  35.532  1.00  0.00     0.211 C 
BRANCH   2   4
HETATM    4  C6  UNL     1      46.990  22.551  33.770  1.00  0.00     0.038 A 
HETATM    5  C5  UNL     1      46.470  22.261  32.489  1.00  0.00     0.209 A 
HETATM    6  C3  UNL     1      47.186  22.502  31.331  1.00  0.00     0.074 A 
HETATM    7  O1  UNL     1      45.360  21.774  32.248  1.00  0.00    -0.285 OA
HETATM    8  N1  UNL     1      48.391  23.016  31.339  1.00  0.00    -0.354 N 
HETATM    9  C4  UNL     1      46.627  22.200  30.141  1.00  0.00     0.047 C 
HETATM   10  C2  UNL     1      48.962  23.322  32.509  1.00  0.00     0.033 A 
ATOM     11  H1  UNL     1      48.888  23.181  30.464  1.00  0.00     0.166 HD
HETATM   12  C1  UNL     1      50.173  23.845  32.455  1.00  0.00     0.044 C 
HETATM   13  C20 UNL     1      48.270  23.090  33.708  1.00  0.00    -0.005 A 
HETATM   14  C21 UNL     1      48.950  23.393  34.761  1.00  0.00     0.026 C 
ENDBRANCH   2   4
BRANCH   3  15
HETATM   15  N2  UNL     1      45.413  23.819  36.710  1.00  0.00    -0.058 N 
HETATM   16  C9  UNL     1      46.624  24.539  36.917  1.00  0.00     0.277 C 
HETATM   17  C10 UNL     1      44.974  23.161  37.951  1.00  0.00     0.277 C 
HETATM   18  C11 UNL     1      44.379  24.928  36.665  1.00  0.00     0.277 C 
ENDBRANCH   3  15
ENDBRANCH   1   2
BRANCH   1  19
HETATM   19  C13 UNL     1      47.431  21.015  36.711  1.00  0.00     0.127 C 
BRANCH  19  20
HETATM   20  S1  UNL     1      49.039  20.173  36.306  1.00  0.00    -0.060 SA
BRANCH  20  21
HETATM   21  N3  UNL     1      49.269  18.757  37.286  1.00  0.00    -0.374 N 
ATOM     22  H32 UNL     1      49.628  18.783  38.240  1.00  0.00     0.164 HD
ATOM     23  H31 UNL     1      49.000  17.913  36.781  1.00  0.00     0.164 HD
ENDBRANCH  20  21
ENDBRANCH  19  20
ENDBRANCH   1  19
BRANCH   1  24
HETATM   24  N4  UNL     1      45.238  20.432  36.024  1.00  0.00    -0.355 N 
HETATM   25  C14 UNL     1      45.195  19.190  36.416  1.00  0.00     0.185 C 
HETATM   26  N5  UNL     1      46.334  18.338  36.390  1.00  0.00    -0.064 NA
HETATM   27  N6  UNL     1      43.985  18.619  36.885  1.00  0.00    -0.354 N 
ATOM     28  H6  UNL     1      43.134  18.665  36.322  1.00  0.00     0.163 HD
ATOM     29  H4  UNL     1      44.407  21.023  36.054  1.00  0.00     0.162 HD
BRANCH  27  30
HETATM   30  C15 UNL     1      43.982  17.977  38.166  1.00  0.00     0.216 C 
BRANCH  30  31
HETATM   31  C16 UNL     1      44.022  16.520  38.058  1.00  0.00    -0.085 C 
HETATM   32  C17 UNL     1      44.037  15.316  37.981  1.00  0.00    -0.085 C 
BRANCH  32  33
HETATM   33  C18 UNL     1      44.033  13.855  37.904  1.00  0.00     0.216 C 
BRANCH  33  34
HETATM   34  N7  UNL     1      44.740  13.256  39.028  1.00  0.00    -0.354 N 
HETATM   35  C19 UNL     1      44.437  11.912  39.328  1.00  0.00     0.182 C 
HETATM   36  N8  UNL     1      44.855  10.980  38.562  1.00  0.00    -0.374 N 
HETATM   37  N9  UNL     1      43.673  11.593  40.469  1.00  0.00    -0.064 NA
ATOM     38  H82 UNL     1      45.408  11.211  37.736  1.00  0.00     0.158 HD
ATOM     39  H81 UNL     1      44.636  10.007  38.778  1.00  0.00     0.158 HD
ATOM     40  H7  UNL     1      45.421  13.784  39.573  1.00  0.00     0.163 HD
ENDBRANCH  33  34
ENDBRANCH  32  33
ENDBRANCH  30  31
ENDBRANCH  27  30
ENDBRANCH   1  24
TORSDOF 11
ENDMDL
MODEL 4
REMARK VINA RESULT: -7.404544695      2.095      4.170
REMARK  11 active torsions:
REMARK  status: ('A' for Active; 'I' for Inactive)
REMARK    1  A    between atoms: C6_9  and  C7_10 
REMARK    2  A    between atoms: C7_10  and  C12_16 
REMARK    3  A    between atoms: C8_11  and  N2_12 
REMARK    4  A    between atoms: C12_16  and  C13_17 
REMARK    5  A    between atoms: C12_16  and  N4_22 
REMARK    6  A    between atoms: C13_17  and  S1_18 
REMARK    7  A    between atoms: S1_18  and  N3_19 
REMARK       I    between atoms: C14_24  and  N6_26 
REMARK    8  A    between atoms: N6_26  and  C15_28 
REMARK    9  A    between atoms: C15_28  and  C16_29 
REMARK   10  A    between atoms: C17_30  and  C18_31 
REMARK   11  A    between atoms: C18_31  and  N7_32 
REMARK       I    between atoms: N7_32  and  C19_34 
ROOT
HETATM    1  C12 UNL     1      46.896  22.158  35.520  1.00  0.00     0.130 C 
ENDROOT
BRANCH   1   2
HETATM    2  C7  UNL     1      46.042  23.295  34.963  1.00  0.00     0.004 C 
HETATM    3  C8  UNL     1      44.992  23.707  35.857  1.00  0.00     0.211 C 
BRANCH   2   4
HETATM    4  C6  UNL     1      46.413  23.706  33.770  1.00  0.00     0.038 A 
HETATM    5  C5  UNL     1      45.868  23.115  32.608  1.00  0.00     0.209 A 
HETATM    6  C3  UNL     1      46.223  23.525  31.336  1.00  0.00     0.074 A 
HETATM    7  O1  UNL     1      45.043  22.195  32.579  1.00  0.00    -0.285 OA
HETATM    8  N1  UNL     1      47.084  24.488  31.119  1.00  0.00    -0.354 N 
HETATM    9  C4  UNL     1      45.663  22.915  30.272  1.00  0.00     0.047 C 
HETATM   10  C2  UNL     1      47.650  25.105  32.162  1.00  0.00     0.033 A 
ATOM     11  H1  UNL     1      47.321  24.764  30.166  1.00  0.00     0.166 HD
HETATM   12  C1  UNL     1      48.504  26.073  31.882  1.00  0.00     0.044 C 
HETATM   13  C20 UNL     1      47.318  24.717  33.469  1.00  0.00    -0.005 A 
HETATM   14  C21 UNL     1      47.965  25.366  34.377  1.00  0.00     0.026 C 
ENDBRANCH   2   4
BRANCH   3  15
HETATM   15  N2  UNL     1      45.124  24.510  37.000  1.00  0.00    -0.058 N 
HETATM   16  C9  UNL     1      46.048  25.593  36.979  1.00  0.00     0.277 C 
HETATM   17  C10 UNL     1      45.179  23.795  38.285  1.00  0.00     0.277 C 
HETATM   18  C11 UNL     1      43.796  25.218  37.193  1.00  0.00     0.277 C 
ENDBRANCH   3  15
ENDBRANCH   1   2
BRANCH   1  19
HETATM   19  C13 UNL     1      47.915  22.521  36.511  1.00  0.00     0.127 C 
BRANCH  19  20
HETATM   20  S1  UNL     1      49.078  21.084  36.702  1.00  0.00    -0.060 SA
BRANCH  20  21
HETATM   21  N3  UNL     1      49.420  20.346  35.166  1.00  0.00    -0.374 N 
ATOM     22  H32 UNL     1      48.748  20.298  34.400  1.00  0.00     0.164 HD
ATOM     23  H31 UNL     1      50.370  19.976  35.139  1.00  0.00     0.164 HD
ENDBRANCH  20  21
ENDBRANCH  19  20
ENDBRANCH   1  19
BRANCH   1  24
HETATM   24  N4  UNL     1      45.938  21.234  36.283  1.00  0.00    -0.355 N 
HETATM   25  C14 UNL     1      45.694  20.058  35.777  1.00  0.00     0.185 C 
HETATM   26  N5  UNL     1      46.279  19.612  34.559  1.00  0.00    -0.064 NA
HETATM   27  N6  UNL     1      44.809  19.159  36.424  1.00  0.00    -0.354 N 
ATOM     28  H6  UNL     1      43.865  19.449  36.679  1.00  0.00     0.163 HD
ATOM     29  H4  UNL     1      45.506  21.529  37.159  1.00  0.00     0.162 HD
BRANCH  27  30
HETATM   30  C15 UNL     1      45.271  17.833  36.712  1.00  0.00     0.216 C 
BRANCH  30  31
HETATM   31  C16 UNL     1      44.243  17.012  37.349  1.00  0.00    -0.085 C 
HETATM   32  C17 UNL     1      43.401  16.317  37.861  1.00  0.00    -0.085 C 
BRANCH  32  33
HETATM   33  C18 UNL     1      42.383  15.456  38.463  1.00  0.00     0.216 C 
BRANCH  33  34
HETATM   34  N7  UNL     1      42.326  14.155  37.811  1.00  0.00    -0.354 N 
HETATM   35  C19 UNL     1      43.287  13.202  38.204  1.00  0.00     0.182 C 
HETATM   36  N8  UNL     1      43.194  12.639  39.346  1.00  0.00    -0.374 N 
HETATM   37  N9  UNL     1      44.352  12.869  37.342  1.00  0.00    -0.064 NA
ATOM     38  H82 UNL     1      42.424  12.879  39.971  1.00  0.00     0.158 HD
ATOM     39  H81 UNL     1      43.890  11.949  39.631  1.00  0.00     0.158 HD
ATOM     40  H7  UNL     1      41.623  13.943  37.103  1.00  0.00     0.163 HD
ENDBRANCH  33  34
ENDBRANCH  32  33
ENDBRANCH  30  31
ENDBRANCH  27  30
ENDBRANCH   1  24
TORSDOF 11
ENDMDL
MODEL 5
REMARK VINA RESULT: -7.304082584      0.841      1.823
REMARK  11 active torsions:
REMARK  status: ('A' for Active; 'I' for Inactive)
REMARK    1  A    between atoms: C6_9  and  C7_10 
REMARK    2  A    between atoms: C7_10  and  C12_16 
REMARK    3  A    between atoms: C8_11  and  N2_12 
REMARK    4  A    between atoms: C12_16  and  C13_17 
REMARK    5  A    between atoms: C12_16  and  N4_22 
REMARK    6  A    between atoms: C13_17  and  S1_18 
REMARK    7  A    between atoms: S1_18  and  N3_19 
REMARK       I    between atoms: C14_24  and  N6_26 
REMARK    8  A    between atoms: N6_26  and  C15_28 
REMARK    9  A    between atoms: C15_28  and  C16_29 
REMARK   10  A    between atoms: C17_30  and  C18_31 
REMARK   11  A    between atoms: C18_31  and  N7_32 
REMARK       I    between atoms: N7_32  and  C19_34 
ROOT
HETATM    1  C12 UNL     1      47.294  20.770  36.658  1.00  0.00     0.130 C 
ENDROOT
BRANCH   1   2
HETATM    2  C7  UNL     1      47.262  22.146  35.995  1.00  0.00     0.004 C 
HETATM    3  C8  UNL     1      47.880  22.165  34.696  1.00  0.00     0.211 C 
BRANCH   2   4
HETATM    4  C6  UNL     1      46.673  23.074  36.719  1.00  0.00     0.038 A 
HETATM    5  C5  UNL     1      47.426  23.871  37.610  1.00  0.00     0.209 A 
HETATM    6  C3  UNL     1      46.848  24.863  38.380  1.00  0.00     0.074 A 
HETATM    7  O1  UNL     1      48.643  23.787  37.810  1.00  0.00    -0.285 OA
HETATM    8  N1  UNL     1      45.567  25.134  38.336  1.00  0.00    -0.354 N 
HETATM    9  C4  UNL     1      47.627  25.585  39.210  1.00  0.00     0.047 C 
HETATM   10  C2  UNL     1      44.777  24.429  37.519  1.00  0.00     0.033 A 
ATOM     11  H1  UNL     1      45.176  25.875  38.919  1.00  0.00     0.166 HD
HETATM   12  C1  UNL     1      43.497  24.754  37.511  1.00  0.00     0.044 C 
HETATM   13  C20 UNL     1      45.325  23.412  36.723  1.00  0.00    -0.005 A 
HETATM   14  C21 UNL     1      44.448  22.787  36.013  1.00  0.00     0.026 C 
ENDBRANCH   2   4
BRANCH   3  15
HETATM   15  N2  UNL     1      47.331  21.692  33.494  1.00  0.00    -0.058 N 
HETATM   16  C9  UNL     1      46.354  20.657  33.542  1.00  0.00     0.277 C 
HETATM   17  C10 UNL     1      48.285  21.465  32.397  1.00  0.00     0.277 C 
HETATM   18  C11 UNL     1      46.556  22.843  32.884  1.00  0.00     0.277 C 
ENDBRANCH   3  15
ENDBRANCH   1   2
BRANCH   1  19
HETATM   19  C13 UNL     1      48.455  20.470  37.502  1.00  0.00     0.127 C 
BRANCH  19  20
HETATM   20  S1  UNL     1      49.469  19.164  36.652  1.00  0.00    -0.060 SA
BRANCH  20  21
HETATM   21  N3  UNL     1      50.019  17.964  37.782  1.00  0.00    -0.374 N 
ATOM     22  H32 UNL     1      49.726  17.931  38.759  1.00  0.00     0.164 HD
ATOM     23  H31 UNL     1      50.663  17.309  37.339  1.00  0.00     0.164 HD
ENDBRANCH  20  21
ENDBRANCH  19  20
ENDBRANCH   1  19
BRANCH   1  24
HETATM   24  N4  UNL     1      46.102  20.730  37.624  1.00  0.00    -0.355 N 
HETATM   25  C14 UNL     1      45.494  19.591  37.793  1.00  0.00     0.185 C 
HETATM   26  N5  UNL     1      45.894  18.401  37.123  1.00  0.00    -0.064 NA
HETATM   27  N6  UNL     1      44.378  19.486  38.661  1.00  0.00    -0.354 N 
ATOM     28  H6  UNL     1      43.577  20.109  38.558  1.00  0.00     0.163 HD
ATOM     29  H4  UNL     1      45.796  21.569  38.117  1.00  0.00     0.162 HD
BRANCH  27  30
HETATM   30  C15 UNL     1      44.401  18.486  39.688  1.00  0.00     0.216 C 
BRANCH  30  31
HETATM   31  C16 UNL     1      44.034  17.163  39.185  1.00  0.00    -0.085 C 
HETATM   32  C17 UNL     1      43.745  16.074  38.755  1.00  0.00    -0.085 C 
BRANCH  32  33
HETATM   33  C18 UNL     1      43.412  14.757  38.211  1.00  0.00     0.216 C 
BRANCH  33  34
HETATM   34  N7  UNL     1      44.567  13.870  38.206  1.00  0.00    -0.354 N 
HETATM   35  C19 UNL     1      44.440  12.654  38.908  1.00  0.00     0.182 C 
HETATM   36  N8  UNL     1      43.714  11.719  38.432  1.00  0.00    -0.374 N 
HETATM   37  N9  UNL     1      45.112  12.468  40.133  1.00  0.00    -0.064 NA
ATOM     38  H82 UNL     1      43.228  11.853  37.545  1.00  0.00     0.158 HD
ATOM     39  H81 UNL     1      43.622  10.838  38.940  1.00  0.00     0.158 HD
ATOM     40  H7  UNL     1      45.428  14.117  37.717  1.00  0.00     0.163 HD
ENDBRANCH  33  34
ENDBRANCH  32  33
ENDBRANCH  30  31
ENDBRANCH  27  30
ENDBRANCH   1  24
TORSDOF 11
ENDMDL
