MODEL 1
REMARK VINA RESULT: -7.465764446      0.000      0.000
REMARK  14 active torsions:
REMARK  status: ('A' for Active; 'I' for Inactive)
REMARK    1  A    between atoms: N1_1  and  O1_4 
REMARK    2  A    between atoms: O1_4  and  C1_5 
REMARK    3  A    between atoms: C1_5  and  C2_6 
REMARK    4  A    between atoms: C2_6  and  C3_7 
REMARK    5  A    between atoms: C3_7  and  N2_8 
REMARK    6  A    between atoms: C3_7  and  C4_12 
REMARK    7  A    between atoms: C4_12  and  N3_13 
REMARK    8  A    between atoms: C4_12  and  C6_17 
REMARK       I    between atoms: N3_13  and  C5_14 
REMARK    9  A    between atoms: C6_17  and  C7_18 
REMARK   10  A    between atoms: C6_17  and  C14_25 
REMARK   11  A    between atoms: C7_18  and  C8_19 
REMARK   12  A    between atoms: C14_25  and  O3_27 
REMARK   13  A    between atoms: O3_27  and  C15_28 
REMARK   14  A    between atoms: C15_28  and  C16_29 
ROOT
HETATM    1  C6  UNL     1      -8.087  45.354  56.678  1.00  0.00     0.147 C 
ENDROOT
BRANCH   1   2
HETATM    2  C4  UNL     1      -8.103  43.995  56.097  1.00  0.00     0.213 C 
BRANCH   2   3
HETATM    3  C3  UNL     1      -6.728  43.618  55.477  1.00  0.00     0.222 C 
BRANCH   3   4
HETATM    4  C2  UNL     1      -6.375  44.579  54.382  1.00  0.00     0.065 C 
BRANCH   4   5
HETATM    5  C1  UNL     1      -4.874  44.641  54.268  1.00  0.00     0.202 C 
BRANCH   5   6
HETATM    6  O1  UNL     1      -4.390  43.909  53.217  1.00  0.00    -0.287 OA
BRANCH   6   7
HETATM    7  N1  UNL     1      -3.479  43.022  53.737  1.00  0.00    -0.311 N 
ATOM      8  H12 UNL     1      -2.579  43.265  54.151  1.00  0.00     0.184 HD
ATOM      9  H11 UNL     1      -3.878  42.091  53.627  1.00  0.00     0.184 HD
ENDBRANCH   6   7
ENDBRANCH   5   6
ENDBRANCH   4   5
ENDBRANCH   3   4
BRANCH   3  10
HETATM   10  N2  UNL     1      -6.597  42.307  55.025  1.00  0.00    -0.072 N 
ATOM     11  H23 UNL     1      -7.453  41.967  54.588  1.00  0.00     0.274 HD
ATOM     12  H22 UNL     1      -5.979  42.243  54.217  1.00  0.00     0.274 HD
ATOM     13  H21 UNL     1      -6.293  41.702  55.788  1.00  0.00     0.274 HD
ENDBRANCH   3  10
ENDBRANCH   2   3
BRANCH   2  14
HETATM   14  N3  UNL     1      -9.082  43.776  55.142  1.00  0.00    -0.412 NA
HETATM   15  C5  UNL     1     -10.057  43.765  54.514  1.00  0.00     0.270 C 
HETATM   16  N4  UNL     1     -10.134  43.002  53.274  1.00  0.00    -0.053 NA
HETATM   17  N5  UNL     1     -11.269  44.454  54.820  1.00  0.00    -0.053 NA
ENDBRANCH   2  14
ENDBRANCH   1   2
BRANCH   1  18
HETATM   18  C7  UNL     1      -8.761  46.486  56.020  1.00  0.00     0.002 C 
BRANCH  18  19
HETATM   19  C8  UNL     1      -8.381  47.860  56.174  1.00  0.00    -0.039 A 
HETATM   20  C9  UNL     1      -7.483  48.471  55.342  1.00  0.00     0.011 A 
HETATM   21  C10 UNL     1      -7.015  49.753  55.495  1.00  0.00     0.001 A 
HETATM   22  C11 UNL     1      -7.470  50.510  56.567  1.00  0.00     0.000 A 
HETATM   23  C12 UNL     1      -8.374  49.928  57.423  1.00  0.00     0.001 A 
HETATM   24  C13 UNL     1      -8.834  48.644  57.260  1.00  0.00     0.011 A 
ENDBRANCH  18  19
ENDBRANCH   1  18
BRANCH   1  25
HETATM   25  C14 UNL     1      -8.871  45.219  58.022  1.00  0.00     0.270 C 
HETATM   26  O2  UNL     1      -8.182  45.423  59.037  1.00  0.00    -0.264 OA
BRANCH  25  27
HETATM   27  O3  UNL     1     -10.187  44.897  58.064  1.00  0.00    -0.316 OA
BRANCH  27  28
HETATM   28  C15 UNL     1     -11.142  45.711  58.758  1.00  0.00     0.217 C 
BRANCH  28  29
HETATM   29  C16 UNL     1     -12.300  46.027  57.908  1.00  0.00    -0.034 A 
HETATM   30  C17 UNL     1     -13.420  45.218  57.827  1.00  0.00     0.009 A 
HETATM   31  C18 UNL     1     -14.498  45.523  57.027  1.00  0.00     0.001 A 
HETATM   32  C19 UNL     1     -14.504  46.668  56.261  1.00  0.00     0.000 A 
HETATM   33  C20 UNL     1     -13.393  47.482  56.333  1.00  0.00     0.001 A 
HETATM   34  C21 UNL     1     -12.317  47.182  57.129  1.00  0.00     0.009 A 
ENDBRANCH  28  29
ENDBRANCH  27  28
ENDBRANCH  25  27
ENDBRANCH   1  25
TORSDOF 14
ENDMDL
MODEL 2
REMARK VINA RESULT: -7.430269936      1.897      3.669
REMARK  14 active torsions:
REMARK  status: ('A' for Active; 'I' for Inactive)
REMARK    1  A    between atoms: N1_1  and  O1_4 
REMARK    2  A    between atoms: O1_4  and  C1_5 
REMARK    3  A    between atoms: C1_5  and  C2_6 
REMARK    4  A    between atoms: C2_6  and  C3_7 
REMARK    5  A    between atoms: C3_7  and  N2_8 
REMARK    6  A    between atoms: C3_7  and  C4_12 
REMARK    7  A    between atoms: C4_12  and  N3_13 
REMARK    8  A    between atoms: C4_12  and  C6_17 
REMARK       I    between atoms: N3_13  and  C5_14 
REMARK    9  A    between atoms: C6_17  and  C7_18 
REMARK   10  A    between atoms: C6_17  and  C14_25 
REMARK   11  A    between atoms: C7_18  and  C8_19 
REMARK   12  A    between atoms: C14_25  and  O3_27 
REMARK   13  A    between atoms: O3_27  and  C15_28 
REMARK   14  A    between atoms: C15_28  and  C16_29 
ROOT
HETATM    1  C6  UNL     1      -9.474  45.247  56.654  1.00  0.00     0.147 C 
ENDROOT
BRANCH   1   2
HETATM    2  C4  UNL     1      -8.355  44.560  55.973  1.00  0.00     0.213 C 
BRANCH   2   3
HETATM    3  C3  UNL     1      -7.457  45.560  55.193  1.00  0.00     0.222 C 
BRANCH   3   4
HETATM    4  C2  UNL     1      -6.025  45.122  55.251  1.00  0.00     0.065 C 
BRANCH   4   5
HETATM    5  C1  UNL     1      -5.652  44.529  53.917  1.00  0.00     0.202 C 
BRANCH   5   6
HETATM    6  O1  UNL     1      -4.318  44.650  53.635  1.00  0.00    -0.287 OA
BRANCH   6   7
HETATM    7  N1  UNL     1      -3.751  43.421  53.867  1.00  0.00    -0.311 N 
ATOM      8  H12 UNL     1      -4.131  42.692  54.472  1.00  0.00     0.184 HD
ATOM      9  H11 UNL     1      -2.890  43.386  53.323  1.00  0.00     0.184 HD
ENDBRANCH   6   7
ENDBRANCH   5   6
ENDBRANCH   4   5
ENDBRANCH   3   4
BRANCH   3  10
HETATM   10  N2  UNL     1      -7.565  46.899  55.562  1.00  0.00    -0.072 N 
ATOM     11  H23 UNL     1      -7.002  47.113  56.385  1.00  0.00     0.274 HD
ATOM     12  H22 UNL     1      -7.099  47.516  54.897  1.00  0.00     0.274 HD
ATOM     13  H21 UNL     1      -8.544  47.149  55.695  1.00  0.00     0.274 HD
ENDBRANCH   3  10
ENDBRANCH   2   3
BRANCH   2  14
HETATM   14  N3  UNL     1      -8.728  43.547  55.107  1.00  0.00    -0.412 NA
HETATM   15  C5  UNL     1      -8.815  42.563  54.498  1.00  0.00     0.270 C 
HETATM   16  N4  UNL     1      -9.875  42.390  53.512  1.00  0.00    -0.053 NA
HETATM   17  N5  UNL     1      -7.962  41.424  54.603  1.00  0.00    -0.053 NA
ENDBRANCH   2  14
ENDBRANCH   1   2
BRANCH   1  18
HETATM   18  C7  UNL     1     -10.818  44.649  56.729  1.00  0.00     0.002 C 
BRANCH  18  19
HETATM   19  C8  UNL     1     -12.043  45.386  56.617  1.00  0.00    -0.039 A 
HETATM   20  C9  UNL     1     -13.203  44.978  57.217  1.00  0.00     0.011 A 
HETATM   21  C10 UNL     1     -14.423  45.591  57.071  1.00  0.00     0.001 A 
HETATM   22  C11 UNL     1     -14.517  46.712  56.256  1.00  0.00     0.000 A 
HETATM   23  C12 UNL     1     -13.371  47.150  55.636  1.00  0.00     0.001 A 
HETATM   24  C13 UNL     1     -12.157  46.528  55.790  1.00  0.00     0.011 A 
ENDBRANCH  18  19
ENDBRANCH   1  18
BRANCH   1  25
HETATM   25  C14 UNL     1      -9.043  45.315  58.153  1.00  0.00     0.270 C 
HETATM   26  O2  UNL     1      -7.811  45.350  58.329  1.00  0.00    -0.264 OA
BRANCH  25  27
HETATM   27  O3  UNL     1      -9.942  45.325  59.167  1.00  0.00    -0.316 OA
BRANCH  27  28
HETATM   28  C15 UNL     1     -10.070  46.446  60.052  1.00  0.00     0.217 C 
BRANCH  28  29
HETATM   29  C16 UNL     1     -11.128  47.366  59.606  1.00  0.00    -0.034 A 
HETATM   30  C17 UNL     1     -12.448  47.246  60.002  1.00  0.00     0.009 A 
HETATM   31  C18 UNL     1     -13.430  48.113  59.578  1.00  0.00     0.001 A 
HETATM   32  C19 UNL     1     -13.130  49.154  58.726  1.00  0.00     0.000 A 
HETATM   33  C20 UNL     1     -11.817  49.283  58.325  1.00  0.00     0.001 A 
HETATM   34  C21 UNL     1     -10.836  48.422  58.745  1.00  0.00     0.009 A 
ENDBRANCH  28  29
ENDBRANCH  27  28
ENDBRANCH  25  27
ENDBRANCH   1  25
TORSDOF 14
ENDMDL
MODEL 3
REMARK VINA RESULT: -7.423256417      1.627      2.573
REMARK  14 active torsions:
REMARK  status: ('A' for Active; 'I' for Inactive)
REMARK    1  A    between atoms: N1_1  and  O1_4 
REMARK    2  A    between atoms: O1_4  and  C1_5 
REMARK    3  A    between atoms: C1_5  and  C2_6 
REMARK    4  A    between atoms: C2_6  and  C3_7 
REMARK    5  A    between atoms: C3_7  and  N2_8 
REMARK    6  A    between atoms: C3_7  and  C4_12 
REMARK    7  A    between atoms: C4_12  and  N3_13 
REMARK    8  A    between atoms: C4_12  and  C6_17 
REMARK       I    between atoms: N3_13  and  C5_14 
REMARK    9  A    between atoms: C6_17  and  C7_18 
REMARK   10  A    between atoms: C6_17  and  C14_25 
REMARK   11  A    between atoms: C7_18  and  C8_19 
REMARK   12  A    between atoms: C14_25  and  O3_27 
REMARK   13  A    between atoms: O3_27  and  C15_28 
REMARK   14  A    between atoms: C15_28  and  C16_29 
ROOT
HETATM    1  C6  UNL     1      -7.773  45.472  56.846  1.00  0.00     0.147 C 
ENDROOT
BRANCH   1   2
HETATM    2  C4  UNL     1      -7.898  44.113  56.275  1.00  0.00     0.213 C 
BRANCH   2   3
HETATM    3  C3  UNL     1      -6.599  43.677  55.542  1.00  0.00     0.222 C 
BRANCH   3   4
HETATM    4  C2  UNL     1      -6.319  44.597  54.393  1.00  0.00     0.065 C 
BRANCH   4   5
HETATM    5  C1  UNL     1      -4.828  44.662  54.184  1.00  0.00     0.202 C 
BRANCH   5   6
HETATM    6  O1  UNL     1      -4.396  43.838  53.179  1.00  0.00    -0.287 OA
BRANCH   6   7
HETATM    7  N1  UNL     1      -3.448  43.009  53.727  1.00  0.00    -0.311 N 
ATOM      8  H12 UNL     1      -2.569  43.305  54.151  1.00  0.00     0.184 HD
ATOM      9  H11 UNL     1      -3.795  42.056  53.624  1.00  0.00     0.184 HD
ENDBRANCH   6   7
ENDBRANCH   5   6
ENDBRANCH   4   5
ENDBRANCH   3   4
BRANCH   3  10
HETATM   10  N2  UNL     1      -6.550  42.351  55.117  1.00  0.00    -0.072 N 
ATOM     11  H23 UNL     1      -7.311  42.127  54.476  1.00  0.00     0.274 HD
ATOM     12  H22 UNL     1      -5.767  42.182  54.484  1.00  0.00     0.274 HD
ATOM     13  H21 UNL     1      -6.533  41.724  55.921  1.00  0.00     0.274 HD
ENDBRANCH   3  10
ENDBRANCH   2   3
BRANCH   2  14
HETATM   14  N3  UNL     1      -8.963  43.937  55.408  1.00  0.00    -0.412 NA
HETATM   15  C5  UNL     1      -9.691  43.576  54.580  1.00  0.00     0.270 C 
HETATM   16  N4  UNL     1     -10.980  44.229  54.388  1.00  0.00    -0.053 NA
HETATM   17  N5  UNL     1      -9.471  42.500  53.669  1.00  0.00    -0.053 NA
ENDBRANCH   2  14
ENDBRANCH   1   2
BRANCH   1  18
HETATM   18  C7  UNL     1      -8.177  46.669  56.091  1.00  0.00     0.002 C 
BRANCH  18  19
HETATM   19  C8  UNL     1      -7.769  48.007  56.407  1.00  0.00    -0.039 A 
HETATM   20  C9  UNL     1      -7.205  48.338  57.608  1.00  0.00     0.011 A 
HETATM   21  C10 UNL     1      -6.879  49.613  58.000  1.00  0.00     0.001 A 
HETATM   22  C11 UNL     1      -7.132  50.667  57.131  1.00  0.00     0.000 A 
HETATM   23  C12 UNL     1      -7.698  50.371  55.915  1.00  0.00     0.001 A 
HETATM   24  C13 UNL     1      -8.020  49.091  55.535  1.00  0.00     0.011 A 
ENDBRANCH  18  19
ENDBRANCH   1  18
BRANCH   1  25
HETATM   25  C14 UNL     1      -8.754  45.481  58.060  1.00  0.00     0.270 C 
HETATM   26  O2  UNL     1      -8.212  45.251  59.156  1.00  0.00    -0.264 OA
BRANCH  25  27
HETATM   27  O3  UNL     1     -10.083  45.711  57.918  1.00  0.00    -0.316 OA
BRANCH  27  28
HETATM   28  C15 UNL     1     -10.869  46.273  58.978  1.00  0.00     0.217 C 
BRANCH  28  29
HETATM   29  C16 UNL     1     -10.588  47.706  59.155  1.00  0.00    -0.034 A 
HETATM   30  C17 UNL     1     -10.970  48.670  58.239  1.00  0.00     0.009 A 
HETATM   31  C18 UNL     1     -10.702  50.008  58.416  1.00  0.00     0.001 A 
HETATM   32  C19 UNL     1     -10.030  50.449  59.534  1.00  0.00     0.000 A 
HETATM   33  C20 UNL     1      -9.644  49.499  60.455  1.00  0.00     0.001 A 
HETATM   34  C21 UNL     1      -9.909  48.163  60.283  1.00  0.00     0.009 A 
ENDBRANCH  28  29
ENDBRANCH  27  28
ENDBRANCH  25  27
ENDBRANCH   1  25
TORSDOF 14
ENDMDL
MODEL 4
REMARK VINA RESULT: -7.297060003      2.020      3.671
REMARK  14 active torsions:
REMARK  status: ('A' for Active; 'I' for Inactive)
REMARK    1  A    between atoms: N1_1  and  O1_4 
REMARK    2  A    between atoms: O1_4  and  C1_5 
REMARK    3  A    between atoms: C1_5  and  C2_6 
REMARK    4  A    between atoms: C2_6  and  C3_7 
REMARK    5  A    between atoms: C3_7  and  N2_8 
REMARK    6  A    between atoms: C3_7  and  C4_12 
REMARK    7  A    between atoms: C4_12  and  N3_13 
REMARK    8  A    between atoms: C4_12  and  C6_17 
REMARK       I    between atoms: N3_13  and  C5_14 
REMARK    9  A    between atoms: C6_17  and  C7_18 
REMARK   10  A    between atoms: C6_17  and  C14_25 
REMARK   11  A    between atoms: C7_18  and  C8_19 
REMARK   12  A    between atoms: C14_25  and  O3_27 
REMARK   13  A    between atoms: O3_27  and  C15_28 
REMARK   14  A    between atoms: C15_28  and  C16_29 
ROOT
HETATM    1  C6  UNL     1      -9.414  45.438  56.537  1.00  0.00     0.147 C 
ENDROOT
BRANCH   1   2
HETATM    2  C4  UNL     1      -8.300  44.686  55.921  1.00  0.00     0.213 C 
BRANCH   2   3
HETATM    3  C3  UNL     1      -7.330  45.625  55.150  1.00  0.00     0.222 C 
BRANCH   3   4
HETATM    4  C2  UNL     1      -5.930  45.096  55.226  1.00  0.00     0.065 C 
BRANCH   4   5
HETATM    5  C1  UNL     1      -5.566  44.516  53.883  1.00  0.00     0.202 C 
BRANCH   5   6
HETATM    6  O1  UNL     1      -4.228  44.609  53.610  1.00  0.00    -0.287 OA
BRANCH   6   7
HETATM    7  N1  UNL     1      -3.686  43.371  53.857  1.00  0.00    -0.311 N 
ATOM      8  H12 UNL     1      -3.278  42.747  53.160  1.00  0.00     0.184 HD
ATOM      9  H11 UNL     1      -3.773  43.206  54.860  1.00  0.00     0.184 HD
ENDBRANCH   6   7
ENDBRANCH   5   6
ENDBRANCH   4   5
ENDBRANCH   3   4
BRANCH   3  10
HETATM   10  N2  UNL     1      -7.355  46.969  55.518  1.00  0.00    -0.072 N 
ATOM     11  H23 UNL     1      -6.470  47.435  55.321  1.00  0.00     0.274 HD
ATOM     12  H22 UNL     1      -7.955  47.521  54.905  1.00  0.00     0.274 HD
ATOM     13  H21 UNL     1      -7.624  47.060  56.498  1.00  0.00     0.274 HD
ENDBRANCH   3  10
ENDBRANCH   2   3
BRANCH   2  14
HETATM   14  N3  UNL     1      -8.681  43.665  55.068  1.00  0.00    -0.412 NA
HETATM   15  C5  UNL     1      -8.777  42.674  54.473  1.00  0.00     0.270 C 
HETATM   16  N4  UNL     1      -9.836  42.499  53.486  1.00  0.00    -0.053 NA
HETATM   17  N5  UNL     1      -7.937  41.527  54.596  1.00  0.00    -0.053 NA
ENDBRANCH   2  14
ENDBRANCH   1   2
BRANCH   1  18
HETATM   18  C7  UNL     1     -10.716  44.807  56.810  1.00  0.00     0.002 C 
BRANCH  18  19
HETATM   19  C8  UNL     1     -11.985  45.452  56.641  1.00  0.00    -0.039 A 
HETATM   20  C9  UNL     1     -12.100  46.787  56.365  1.00  0.00     0.011 A 
HETATM   21  C10 UNL     1     -13.285  47.475  56.282  1.00  0.00     0.001 A 
HETATM   22  C11 UNL     1     -14.474  46.789  56.491  1.00  0.00     0.000 A 
HETATM   23  C12 UNL     1     -14.397  45.446  56.771  1.00  0.00     0.001 A 
HETATM   24  C13 UNL     1     -13.205  44.769  56.851  1.00  0.00     0.011 A 
ENDBRANCH  18  19
ENDBRANCH   1  18
BRANCH   1  25
HETATM   25  C14 UNL     1      -8.902  45.805  57.965  1.00  0.00     0.270 C 
HETATM   26  O2  UNL     1      -7.911  45.150  58.336  1.00  0.00    -0.264 OA
BRANCH  25  27
HETATM   27  O3  UNL     1      -9.500  46.751  58.730  1.00  0.00    -0.316 OA
BRANCH  27  28
HETATM   28  C15 UNL     1      -9.866  46.498  60.094  1.00  0.00     0.217 C 
BRANCH  28  29
HETATM   29  C16 UNL     1     -11.278  46.104  60.208  1.00  0.00    -0.034 A 
HETATM   30  C17 UNL     1     -11.682  44.801  60.440  1.00  0.00     0.009 A 
HETATM   31  C18 UNL     1     -13.008  44.444  60.545  1.00  0.00     0.001 A 
HETATM   32  C19 UNL     1     -14.003  45.388  60.421  1.00  0.00     0.000 A 
HETATM   33  C20 UNL     1     -13.613  46.691  60.189  1.00  0.00     0.001 A 
HETATM   34  C21 UNL     1     -12.293  47.051  60.084  1.00  0.00     0.009 A 
ENDBRANCH  28  29
ENDBRANCH  27  28
ENDBRANCH  25  27
ENDBRANCH   1  25
TORSDOF 14
ENDMDL
MODEL 5
REMARK VINA RESULT: -7.289221143      1.351      4.465
REMARK  14 active torsions:
REMARK  status: ('A' for Active; 'I' for Inactive)
REMARK    1  A    between atoms: N1_1  and  O1_4 
REMARK    2  A    between atoms: O1_4  and  C1_5 
REMARK    3  A    between atoms: C1_5  and  C2_6 
REMARK    4  A    between atoms: C2_6  and  C3_7 
REMARK    5  A    between atoms: C3_7  and  N2_8 
REMARK    6  A    between atoms: C3_7  and  C4_12 
REMARK    7  A    between atoms: C4_12  and  N3_13 
REMARK    8  A    between atoms: C4_12  and  C6_17 
REMARK       I    between atoms: N3_13  and  C5_14 
REMARK    9  A    between atoms: C6_17  and  C7_18 
REMARK   10  A    between atoms: C6_17  and  C14_25 
REMARK   11  A    between atoms: C7_18  and  C8_19 
REMARK   12  A    between atoms: C14_25  and  O3_27 
REMARK   13  A    between atoms: O3_27  and  C15_28 
REMARK   14  A    between atoms: C15_28  and  C16_29 
ROOT
HETATM    1  C6  UNL     1      -9.131  45.261  56.432  1.00  0.00     0.147 C 
ENDROOT
BRANCH   1   2
HETATM    2  C4  UNL     1      -8.405  44.075  55.928  1.00  0.00     0.213 C 
BRANCH   2   3
HETATM    3  C3  UNL     1      -7.332  44.463  54.872  1.00  0.00     0.222 C 
BRANCH   3   4
HETATM    4  C2  UNL     1      -6.056  43.722  55.135  1.00  0.00     0.065 C 
BRANCH   4   5
HETATM    5  C1  UNL     1      -4.906  44.564  54.647  1.00  0.00     0.202 C 
BRANCH   5   6
HETATM    6  O1  UNL     1      -4.475  44.201  53.399  1.00  0.00    -0.287 OA
BRANCH   6   7
HETATM    7  N1  UNL     1      -3.735  43.054  53.553  1.00  0.00    -0.311 N 
ATOM      8  H12 UNL     1      -3.938  42.296  54.204  1.00  0.00     0.184 HD
ATOM      9  H11 UNL     1      -2.957  43.115  52.897  1.00  0.00     0.184 HD
ENDBRANCH   6   7
ENDBRANCH   5   6
ENDBRANCH   4   5
ENDBRANCH   3   4
BRANCH   3  10
HETATM   10  N2  UNL     1      -7.075  45.825  54.731  1.00  0.00    -0.072 N 
ATOM     11  H23 UNL     1      -7.863  46.396  55.037  1.00  0.00     0.274 HD
ATOM     12  H22 UNL     1      -6.382  46.154  55.404  1.00  0.00     0.274 HD
ATOM     13  H21 UNL     1      -6.804  46.033  53.770  1.00  0.00     0.274 HD
ENDBRANCH   3  10
ENDBRANCH   2   3
BRANCH   2  14
HETATM   14  N3  UNL     1      -9.205  43.083  55.387  1.00  0.00    -0.412 NA
HETATM   15  C5  UNL     1      -9.829  42.397  54.690  1.00  0.00     0.270 C 
HETATM   16  N4  UNL     1     -10.518  41.227  55.221  1.00  0.00    -0.053 NA
HETATM   17  N5  UNL     1     -10.014  42.562  53.284  1.00  0.00    -0.053 NA
ENDBRANCH   2  14
ENDBRANCH   1   2
BRANCH   1  18
HETATM   18  C7  UNL     1     -10.415  45.138  57.141  1.00  0.00     0.002 C 
BRANCH  18  19
HETATM   19  C8  UNL     1     -11.537  46.011  56.950  1.00  0.00    -0.039 A 
HETATM   20  C9  UNL     1     -12.401  45.875  55.898  1.00  0.00     0.011 A 
HETATM   21  C10 UNL     1     -13.436  46.732  55.614  1.00  0.00     0.001 A 
HETATM   22  C11 UNL     1     -13.643  47.830  56.440  1.00  0.00     0.000 A 
HETATM   23  C12 UNL     1     -12.794  47.997  57.507  1.00  0.00     0.001 A 
HETATM   24  C13 UNL     1     -11.762  47.133  57.780  1.00  0.00     0.011 A 
ENDBRANCH  18  19
ENDBRANCH   1  18
BRANCH   1  25
HETATM   25  C14 UNL     1      -8.190  45.866  57.522  1.00  0.00     0.270 C 
HETATM   26  O2  UNL     1      -8.089  45.173  58.550  1.00  0.00    -0.264 OA
BRANCH  25  27
HETATM   27  O3  UNL     1      -7.554  47.051  57.354  1.00  0.00    -0.316 OA
BRANCH  27  28
HETATM   28  C15 UNL     1      -8.179  48.298  57.689  1.00  0.00     0.217 C 
BRANCH  28  29
HETATM   29  C16 UNL     1      -7.872  49.338  56.694  1.00  0.00    -0.034 A 
HETATM   30  C17 UNL     1      -7.100  50.450  56.979  1.00  0.00     0.009 A 
HETATM   31  C18 UNL     1      -6.819  51.417  56.040  1.00  0.00     0.001 A 
HETATM   32  C19 UNL     1      -7.306  51.313  54.756  1.00  0.00     0.000 A 
HETATM   33  C20 UNL     1      -8.077  50.208  54.459  1.00  0.00     0.001 A 
HETATM   34  C21 UNL     1      -8.359  49.242  55.392  1.00  0.00     0.009 A 
ENDBRANCH  28  29
ENDBRANCH  27  28
ENDBRANCH  25  27
ENDBRANCH   1  25
TORSDOF 14
ENDMDL
