MODEL 1
REMARK VINA RESULT: -6.589867424      0.000      0.000
REMARK  12 active torsions:
REMARK  status: ('A' for Active; 'I' for Inactive)
REMARK    1  A    between atoms: N1_5  and  C5_6 
REMARK    2  A    between atoms: C5_6  and  C6_7 
REMARK    3  A    between atoms: C9_10  and  C10_11 
REMARK    4  A    between atoms: C10_11  and  N2_12 
REMARK    5  A    between atoms: N2_12  and  S1_14 
REMARK    6  A    between atoms: S1_14  and  N3_17 
REMARK    7  A    between atoms: N3_17  and  C11_19 
REMARK    8  A    between atoms: C11_19  and  C12_20 
REMARK    9  A    between atoms: C11_19  and  C14_26 
REMARK   10  A    between atoms: C12_20  and  C13_21 
REMARK   11  A    between atoms: C13_21  and  N4_22 
REMARK   12  A    between atoms: C14_26  and  C15_27 
ROOT
HETATM    1  N2  UNL     1      -7.502  43.863  54.053  1.00  0.00    -0.297 N 
ATOM      2  H2  UNL     1      -7.357  44.001  53.052  1.00  0.00     0.174 HD
ENDROOT
BRANCH   1   3
HETATM    3  C10 UNL     1      -8.210  42.747  54.561  1.00  0.00     0.198 C 
BRANCH   3   4
HETATM    4  C9  UNL     1      -9.627  43.056  54.774  1.00  0.00     0.071 A 
HETATM    5  C8  UNL     1     -10.672  42.167  54.530  1.00  0.00     0.037 A 
HETATM    6  C7  UNL     1     -11.860  42.807  54.844  1.00  0.00     0.037 A 
HETATM    7  C6  UNL     1     -11.475  44.060  55.266  1.00  0.00     0.071 A 
HETATM    8  O3  UNL     1     -10.189  44.160  55.209  1.00  0.00    -0.316 OA
BRANCH   7   9
HETATM    9  C5  UNL     1     -12.410  45.135  55.719  1.00  0.00     0.192 C 
BRANCH   9  10
HETATM   10  N1  UNL     1     -12.659  45.065  57.126  1.00  0.00    -0.360 N 
HETATM   11  C4  UNL     1     -11.642  45.056  58.009  1.00  0.00     0.091 A 
HETATM   12  C3  UNL     1     -11.822  44.992  59.370  1.00  0.00     0.024 A 
HETATM   13  C2  UNL     1     -13.096  44.932  59.892  1.00  0.00    -0.059 A 
HETATM   14  C1  UNL     1     -13.327  44.861  61.367  1.00  0.00     0.048 C 
HETATM   15  C17 UNL     1     -14.142  44.940  58.990  1.00  0.00     0.024 A 
HETATM   16  C16 UNL     1     -13.927  45.006  57.628  1.00  0.00     0.091 A 
ENDBRANCH   9  10
ENDBRANCH   7   9
ENDBRANCH   3   4
ENDBRANCH   1   3
BRANCH   1  17
HETATM   17  S1  UNL     1      -6.907  44.963  55.209  1.00  0.00     0.315 S 
HETATM   18  O1  UNL     1      -6.695  44.197  56.516  1.00  0.00    -0.183 OA
HETATM   19  O2  UNL     1      -5.533  45.380  54.746  1.00  0.00    -0.183 OA
BRANCH  17  20
HETATM   20  N3  UNL     1      -7.956  46.268  55.418  1.00  0.00    -0.298 N 
ATOM     21  H3  UNL     1      -8.958  46.181  55.251  1.00  0.00     0.174 HD
BRANCH  20  22
HETATM   22  C11 UNL     1      -7.362  47.515  55.846  1.00  0.00     0.097 C 
BRANCH  22  23
HETATM   23  C12 UNL     1      -7.121  47.471  57.352  1.00  0.00     0.053 C 
BRANCH  23  24
HETATM   24  C13 UNL     1      -8.395  47.108  58.053  1.00  0.00     0.231 C 
BRANCH  24  25
HETATM   25  N4  UNL     1      -8.216  45.868  58.834  1.00  0.00    -0.079 N 
ATOM     26  H43 UNL     1      -9.064  45.610  59.339  1.00  0.00     0.274 HD
ATOM     27  H42 UNL     1      -8.142  45.046  58.233  1.00  0.00     0.274 HD
ATOM     28  H41 UNL     1      -7.414  45.954  59.459  1.00  0.00     0.274 HD
ENDBRANCH  24  25
ENDBRANCH  23  24
ENDBRANCH  22  23
BRANCH  22  29
HETATM   29  C14 UNL     1      -8.128  48.736  55.458  1.00  0.00     0.037 C 
BRANCH  29  30
HETATM   30  C15 UNL     1      -7.205  49.911  55.206  1.00  0.00     0.088 C 
HETATM   31  S2  UNL     1      -7.918  51.040  53.968  1.00  0.00    -0.098 SA
ENDBRANCH  29  30
ENDBRANCH  22  29
ENDBRANCH  20  22
ENDBRANCH  17  20
ENDBRANCH   1  17
TORSDOF 12
ENDMDL
MODEL 2
REMARK VINA RESULT: -6.583077179      2.651      7.006
REMARK  12 active torsions:
REMARK  status: ('A' for Active; 'I' for Inactive)
REMARK    1  A    between atoms: N1_5  and  C5_6 
REMARK    2  A    between atoms: C5_6  and  C6_7 
REMARK    3  A    between atoms: C9_10  and  C10_11 
REMARK    4  A    between atoms: C10_11  and  N2_12 
REMARK    5  A    between atoms: N2_12  and  S1_14 
REMARK    6  A    between atoms: S1_14  and  N3_17 
REMARK    7  A    between atoms: N3_17  and  C11_19 
REMARK    8  A    between atoms: C11_19  and  C12_20 
REMARK    9  A    between atoms: C11_19  and  C14_26 
REMARK   10  A    between atoms: C12_20  and  C13_21 
REMARK   11  A    between atoms: C13_21  and  N4_22 
REMARK   12  A    between atoms: C14_26  and  C15_27 
ROOT
HETATM    1  N2  UNL     1      -6.694  43.888  56.236  1.00  0.00    -0.297 N 
ATOM      2  H2  UNL     1      -6.770  43.261  57.036  1.00  0.00     0.174 HD
ENDROOT
BRANCH   1   3
HETATM    3  C10 UNL     1      -5.879  45.045  56.264  1.00  0.00     0.198 C 
BRANCH   3   4
HETATM    4  C9  UNL     1      -6.680  46.270  56.341  1.00  0.00     0.071 A 
HETATM    5  C8  UNL     1      -7.588  46.554  57.360  1.00  0.00     0.037 A 
HETATM    6  C7  UNL     1      -8.152  47.791  57.097  1.00  0.00     0.037 A 
HETATM    7  C6  UNL     1      -7.556  48.200  55.925  1.00  0.00     0.071 A 
HETATM    8  O3  UNL     1      -6.720  47.299  55.527  1.00  0.00    -0.316 OA
BRANCH   7   9
HETATM    9  C5  UNL     1      -7.837  49.491  55.226  1.00  0.00     0.192 C 
BRANCH   9  10
HETATM   10  N1  UNL     1      -7.026  50.556  55.728  1.00  0.00    -0.360 N 
HETATM   11  C4  UNL     1      -6.045  51.092  54.975  1.00  0.00     0.091 A 
HETATM   12  C3  UNL     1      -5.236  52.118  55.405  1.00  0.00     0.024 A 
HETATM   13  C2  UNL     1      -5.410  52.647  56.665  1.00  0.00    -0.059 A 
HETATM   14  C1  UNL     1      -4.548  53.762  57.164  1.00  0.00     0.048 C 
HETATM   15  C17 UNL     1      -6.414  52.100  57.440  1.00  0.00     0.024 A 
HETATM   16  C16 UNL     1      -7.209  51.070  56.979  1.00  0.00     0.091 A 
ENDBRANCH   9  10
ENDBRANCH   7   9
ENDBRANCH   3   4
ENDBRANCH   1   3
BRANCH   1  17
HETATM   17  S1  UNL     1      -7.541  43.605  54.786  1.00  0.00     0.315 S 
HETATM   18  O1  UNL     1      -6.718  44.194  53.641  1.00  0.00    -0.183 OA
HETATM   19  O2  UNL     1      -7.543  42.111  54.568  1.00  0.00    -0.183 OA
BRANCH  17  20
HETATM   20  N3  UNL     1      -9.093  44.264  54.837  1.00  0.00    -0.298 N 
ATOM     21  H3  UNL     1      -9.348  45.076  54.274  1.00  0.00     0.174 HD
BRANCH  20  22
HETATM   22  C11 UNL     1     -10.042  43.621  55.719  1.00  0.00     0.097 C 
BRANCH  22  23
HETATM   23  C12 UNL     1     -11.218  43.095  54.902  1.00  0.00     0.053 C 
BRANCH  23  24
HETATM   24  C13 UNL     1     -11.129  41.602  54.801  1.00  0.00     0.231 C 
BRANCH  24  25
HETATM   25  N4  UNL     1     -10.402  41.212  53.577  1.00  0.00    -0.079 N 
ATOM     26  H43 UNL     1     -10.873  41.539  52.734  1.00  0.00     0.274 HD
ATOM     27  H42 UNL     1      -9.528  41.729  53.472  1.00  0.00     0.274 HD
ATOM     28  H41 UNL     1     -10.250  40.203  53.560  1.00  0.00     0.274 HD
ENDBRANCH  24  25
ENDBRANCH  23  24
ENDBRANCH  22  23
BRANCH  22  29
HETATM   29  C14 UNL     1     -10.511  44.469  56.855  1.00  0.00     0.037 C 
BRANCH  29  30
HETATM   30  C15 UNL     1     -11.906  45.004  56.606  1.00  0.00     0.088 C 
HETATM   31  S2  UNL     1     -11.868  46.799  56.304  1.00  0.00    -0.098 SA
ENDBRANCH  29  30
ENDBRANCH  22  29
ENDBRANCH  20  22
ENDBRANCH  17  20
ENDBRANCH   1  17
TORSDOF 12
ENDMDL
MODEL 3
REMARK VINA RESULT: -6.559459833      3.990      8.882
REMARK  12 active torsions:
REMARK  status: ('A' for Active; 'I' for Inactive)
REMARK    1  A    between atoms: N1_5  and  C5_6 
REMARK    2  A    between atoms: C5_6  and  C6_7 
REMARK    3  A    between atoms: C9_10  and  C10_11 
REMARK    4  A    between atoms: C10_11  and  N2_12 
REMARK    5  A    between atoms: N2_12  and  S1_14 
REMARK    6  A    between atoms: S1_14  and  N3_17 
REMARK    7  A    between atoms: N3_17  and  C11_19 
REMARK    8  A    between atoms: C11_19  and  C12_20 
REMARK    9  A    between atoms: C11_19  and  C14_26 
REMARK   10  A    between atoms: C12_20  and  C13_21 
REMARK   11  A    between atoms: C13_21  and  N4_22 
REMARK   12  A    between atoms: C14_26  and  C15_27 
ROOT
HETATM    1  N2  UNL     1      -7.634  47.359  55.591  1.00  0.00    -0.297 N 
ATOM      2  H2  UNL     1      -6.908  47.484  54.885  1.00  0.00     0.174 HD
ENDROOT
BRANCH   1   3
HETATM    3  C10 UNL     1      -7.983  48.389  56.498  1.00  0.00     0.198 C 
BRANCH   3   4
HETATM    4  C9  UNL     1      -7.503  49.696  56.044  1.00  0.00     0.071 A 
HETATM    5  C8  UNL     1      -7.723  50.217  54.770  1.00  0.00     0.037 A 
HETATM    6  C7  UNL     1      -7.123  51.464  54.708  1.00  0.00     0.037 A 
HETATM    7  C6  UNL     1      -6.567  51.641  55.955  1.00  0.00     0.071 A 
HETATM    8  O3  UNL     1      -6.807  50.604  56.688  1.00  0.00    -0.316 OA
BRANCH   7   9
HETATM    9  C5  UNL     1      -5.802  52.850  56.388  1.00  0.00     0.192 C 
BRANCH   9  10
HETATM   10  N1  UNL     1      -4.401  52.583  56.494  1.00  0.00    -0.360 N 
HETATM   11  C4  UNL     1      -3.802  52.502  57.698  1.00  0.00     0.091 A 
HETATM   12  C3  UNL     1      -2.460  52.246  57.860  1.00  0.00     0.024 A 
HETATM   13  C2  UNL     1      -1.659  52.058  56.756  1.00  0.00    -0.059 A 
HETATM   14  C1  UNL     1      -0.197  51.779  56.897  1.00  0.00     0.048 C 
HETATM   15  C17 UNL     1      -2.269  52.142  55.519  1.00  0.00     0.024 A 
HETATM   16  C16 UNL     1      -3.619  52.400  55.390  1.00  0.00     0.091 A 
ENDBRANCH   9  10
ENDBRANCH   7   9
ENDBRANCH   3   4
ENDBRANCH   1   3
BRANCH   1  17
HETATM   17  S1  UNL     1      -8.495  45.899  55.749  1.00  0.00     0.315 S 
HETATM   18  O1  UNL     1      -8.439  45.479  57.218  1.00  0.00    -0.183 OA
HETATM   19  O2  UNL     1      -9.943  46.215  55.463  1.00  0.00    -0.183 OA
BRANCH  17  20
HETATM   20  N3  UNL     1      -7.872  44.701  54.738  1.00  0.00    -0.298 N 
ATOM     21  H3  UNL     1      -7.731  44.862  53.740  1.00  0.00     0.174 HD
BRANCH  20  22
HETATM   22  C11 UNL     1      -7.548  43.434  55.356  1.00  0.00     0.097 C 
BRANCH  22  23
HETATM   23  C12 UNL     1      -6.033  43.294  55.464  1.00  0.00     0.053 C 
BRANCH  23  24
HETATM   24  C13 UNL     1      -5.381  44.036  54.337  1.00  0.00     0.231 C 
BRANCH  24  25
HETATM   25  N4  UNL     1      -4.103  43.393  53.969  1.00  0.00    -0.079 N 
ATOM     26  H43 UNL     1      -3.428  43.424  54.734  1.00  0.00     0.274 HD
ATOM     27  H42 UNL     1      -4.196  42.380  53.891  1.00  0.00     0.274 HD
ATOM     28  H41 UNL     1      -3.729  43.808  53.115  1.00  0.00     0.274 HD
ENDBRANCH  24  25
ENDBRANCH  23  24
ENDBRANCH  22  23
BRANCH  22  29
HETATM   29  C14 UNL     1      -8.154  42.242  54.689  1.00  0.00     0.037 C 
BRANCH  29  30
HETATM   30  C15 UNL     1      -9.459  42.594  54.007  1.00  0.00     0.088 C 
HETATM   31  S2  UNL     1     -10.827  41.592  54.672  1.00  0.00    -0.098 SA
ENDBRANCH  29  30
ENDBRANCH  22  29
ENDBRANCH  20  22
ENDBRANCH  17  20
ENDBRANCH   1  17
TORSDOF 12
ENDMDL
MODEL 4
REMARK VINA RESULT: -6.547257560      4.332      6.157
REMARK  12 active torsions:
REMARK  status: ('A' for Active; 'I' for Inactive)
REMARK    1  A    between atoms: N1_5  and  C5_6 
REMARK    2  A    between atoms: C5_6  and  C6_7 
REMARK    3  A    between atoms: C9_10  and  C10_11 
REMARK    4  A    between atoms: C10_11  and  N2_12 
REMARK    5  A    between atoms: N2_12  and  S1_14 
REMARK    6  A    between atoms: S1_14  and  N3_17 
REMARK    7  A    between atoms: N3_17  and  C11_19 
REMARK    8  A    between atoms: C11_19  and  C12_20 
REMARK    9  A    between atoms: C11_19  and  C14_26 
REMARK   10  A    between atoms: C12_20  and  C13_21 
REMARK   11  A    between atoms: C13_21  and  N4_22 
REMARK   12  A    between atoms: C14_26  and  C15_27 
ROOT
HETATM    1  N2  UNL     1      -9.748  46.270  55.787  1.00  0.00    -0.297 N 
ATOM      2  H2  UNL     1     -10.343  45.708  55.178  1.00  0.00     0.174 HD
ENDROOT
BRANCH   1   3
HETATM    3  C10 UNL     1     -10.287  47.162  56.745  1.00  0.00     0.198 C 
BRANCH   3   4
HETATM    4  C9  UNL     1     -11.742  47.282  56.616  1.00  0.00     0.071 A 
HETATM    5  C8  UNL     1     -12.516  46.545  55.721  1.00  0.00     0.037 A 
HETATM    6  C7  UNL     1     -13.837  46.926  55.884  1.00  0.00     0.037 A 
HETATM    7  C6  UNL     1     -13.801  47.880  56.876  1.00  0.00     0.071 A 
HETATM    8  O3  UNL     1     -12.581  48.053  57.266  1.00  0.00    -0.316 OA
BRANCH   7   9
HETATM    9  C5  UNL     1     -14.994  48.602  57.415  1.00  0.00     0.192 C 
BRANCH   9  10
HETATM   10  N1  UNL     1     -15.332  49.740  56.617  1.00  0.00    -0.360 N 
HETATM   11  C4  UNL     1     -16.113  49.613  55.527  1.00  0.00     0.091 A 
HETATM   12  C3  UNL     1     -16.471  50.671  54.725  1.00  0.00     0.024 A 
HETATM   13  C2  UNL     1     -16.026  51.940  55.023  1.00  0.00    -0.059 A 
HETATM   14  C1  UNL     1     -16.396  53.112  54.172  1.00  0.00     0.048 C 
HETATM   15  C17 UNL     1     -15.225  52.075  56.140  1.00  0.00     0.024 A 
HETATM   16  C16 UNL     1     -14.883  50.992  56.925  1.00  0.00     0.091 A 
ENDBRANCH   9  10
ENDBRANCH   7   9
ENDBRANCH   3   4
ENDBRANCH   1   3
BRANCH   1  17
HETATM   17  S1  UNL     1      -8.049  46.189  55.712  1.00  0.00     0.315 S 
HETATM   18  O1  UNL     1      -7.535  47.561  55.275  1.00  0.00    -0.183 OA
HETATM   19  O2  UNL     1      -7.560  45.995  57.126  1.00  0.00    -0.183 OA
BRANCH  17  20
HETATM   20  N3  UNL     1      -7.533  44.972  54.664  1.00  0.00    -0.298 N 
ATOM     21  H3  UNL     1      -7.393  45.147  53.668  1.00  0.00     0.174 HD
BRANCH  20  22
HETATM   22  C11 UNL     1      -7.300  43.669  55.247  1.00  0.00     0.097 C 
BRANCH  22  23
HETATM   23  C12 UNL     1      -5.798  43.428  55.367  1.00  0.00     0.053 C 
BRANCH  23  24
HETATM   24  C13 UNL     1      -5.094  44.080  54.216  1.00  0.00     0.231 C 
BRANCH  24  25
HETATM   25  N4  UNL     1      -3.881  43.317  53.858  1.00  0.00    -0.079 N 
ATOM     26  H43 UNL     1      -3.035  43.877  53.964  1.00  0.00     0.274 HD
ATOM     27  H42 UNL     1      -3.670  42.593  54.544  1.00  0.00     0.274 HD
ATOM     28  H41 UNL     1      -3.967  42.935  52.916  1.00  0.00     0.274 HD
ENDBRANCH  24  25
ENDBRANCH  23  24
ENDBRANCH  22  23
BRANCH  22  29
HETATM   29  C14 UNL     1      -7.973  42.540  54.540  1.00  0.00     0.037 C 
BRANCH  29  30
HETATM   30  C15 UNL     1      -9.342  42.942  54.033  1.00  0.00     0.088 C 
HETATM   31  S2  UNL     1     -10.438  41.493  53.908  1.00  0.00    -0.098 SA
ENDBRANCH  29  30
ENDBRANCH  22  29
ENDBRANCH  20  22
ENDBRANCH  17  20
ENDBRANCH   1  17
TORSDOF 12
ENDMDL
MODEL 5
REMARK VINA RESULT: -6.537864140      1.872      2.718
REMARK  12 active torsions:
REMARK  status: ('A' for Active; 'I' for Inactive)
REMARK    1  A    between atoms: N1_5  and  C5_6 
REMARK    2  A    between atoms: C5_6  and  C6_7 
REMARK    3  A    between atoms: C9_10  and  C10_11 
REMARK    4  A    between atoms: C10_11  and  N2_12 
REMARK    5  A    between atoms: N2_12  and  S1_14 
REMARK    6  A    between atoms: S1_14  and  N3_17 
REMARK    7  A    between atoms: N3_17  and  C11_19 
REMARK    8  A    between atoms: C11_19  and  C12_20 
REMARK    9  A    between atoms: C11_19  and  C14_26 
REMARK   10  A    between atoms: C12_20  and  C13_21 
REMARK   11  A    between atoms: C13_21  and  N4_22 
REMARK   12  A    between atoms: C14_26  and  C15_27 
ROOT
HETATM    1  N2  UNL     1      -7.405  44.640  54.446  1.00  0.00    -0.297 N 
ATOM      2  H2  UNL     1      -7.906  45.327  53.883  1.00  0.00     0.174 HD
ENDROOT
BRANCH   1   3
HETATM    3  C10 UNL     1      -7.690  43.255  54.371  1.00  0.00     0.198 C 
BRANCH   3   4
HETATM    4  C9  UNL     1      -9.101  42.978  54.651  1.00  0.00     0.071 A 
HETATM    5  C8  UNL     1      -9.624  41.706  54.879  1.00  0.00     0.037 A 
HETATM    6  C7  UNL     1     -10.984  41.836  55.105  1.00  0.00     0.037 A 
HETATM    7  C6  UNL     1     -11.222  43.189  55.005  1.00  0.00     0.071 A 
HETATM    8  O3  UNL     1     -10.117  43.804  54.743  1.00  0.00    -0.316 OA
BRANCH   7   9
HETATM    9  C5  UNL     1     -12.558  43.838  55.173  1.00  0.00     0.192 C 
BRANCH   9  10
HETATM   10  N1  UNL     1     -12.499  44.950  56.071  1.00  0.00    -0.360 N 
HETATM   11  C4  UNL     1     -12.892  46.177  55.677  1.00  0.00     0.091 A 
HETATM   12  C3  UNL     1     -12.859  47.281  56.496  1.00  0.00     0.024 A 
HETATM   13  C2  UNL     1     -12.408  47.161  57.792  1.00  0.00    -0.059 A 
HETATM   14  C1  UNL     1     -12.359  48.341  58.709  1.00  0.00     0.048 C 
HETATM   15  C17 UNL     1     -12.004  45.905  58.200  1.00  0.00     0.024 A 
HETATM   16  C16 UNL     1     -12.049  44.816  57.352  1.00  0.00     0.091 A 
ENDBRANCH   9  10
ENDBRANCH   7   9
ENDBRANCH   3   4
ENDBRANCH   1   3
BRANCH   1  17
HETATM   17  S1  UNL     1      -6.175  45.093  55.534  1.00  0.00     0.315 S 
HETATM   18  O1  UNL     1      -6.013  43.964  56.553  1.00  0.00    -0.183 OA
HETATM   19  O2  UNL     1      -4.888  45.126  54.745  1.00  0.00    -0.183 OA
BRANCH  17  20
HETATM   20  N3  UNL     1      -6.524  46.562  56.286  1.00  0.00    -0.298 N 
ATOM     21  H3  UNL     1      -6.006  46.880  57.106  1.00  0.00     0.174 HD
BRANCH  20  22
HETATM   22  C11 UNL     1      -7.593  47.347  55.710  1.00  0.00     0.097 C 
BRANCH  22  23
HETATM   23  C12 UNL     1      -7.093  48.764  55.442  1.00  0.00     0.053 C 
BRANCH  23  24
HETATM   24  C13 UNL     1      -8.240  49.624  55.003  1.00  0.00     0.231 C 
BRANCH  24  25
HETATM   25  N4  UNL     1      -7.774  50.659  54.058  1.00  0.00    -0.079 N 
ATOM     26  H43 UNL     1      -6.757  50.680  53.989  1.00  0.00     0.274 HD
ATOM     27  H42 UNL     1      -7.987  50.414  53.090  1.00  0.00     0.274 HD
ATOM     28  H41 UNL     1      -8.157  51.570  54.312  1.00  0.00     0.274 HD
ENDBRANCH  24  25
ENDBRANCH  23  24
ENDBRANCH  22  23
BRANCH  22  29
HETATM   29  C14 UNL     1      -8.855  47.362  56.507  1.00  0.00     0.037 C 
BRANCH  29  30
HETATM   30  C15 UNL     1      -8.573  47.258  57.992  1.00  0.00     0.088 C 
HETATM   31  S2  UNL     1      -8.699  48.890  58.791  1.00  0.00    -0.098 SA
ENDBRANCH  29  30
ENDBRANCH  22  29
ENDBRANCH  20  22
ENDBRANCH  17  20
ENDBRANCH   1  17
TORSDOF 12
ENDMDL
