MODEL 1
REMARK VINA RESULT: -7.355908450      0.000      0.000
REMARK  13 active torsions:
REMARK  status: ('A' for Active; 'I' for Inactive)
REMARK    1  A    between atoms: N1_2  and  C4_5 
REMARK    2  A    between atoms: C4_5  and  C5_6 
REMARK    3  A    between atoms: C5_6  and  N2_7 
REMARK    4  A    between atoms: N2_7  and  C6_9 
REMARK    5  A    between atoms: C6_9  and  C7_10 
REMARK    6  A    between atoms: C7_10  and  C8_11 
REMARK    7  A    between atoms: C8_11  and  N3_12 
REMARK    8  A    between atoms: N3_12  and  C9_14 
REMARK    9  A    between atoms: C17_26  and  O1_27 
REMARK   10  A    between atoms: O1_27  and  C18_28 
REMARK   11  A    between atoms: C18_28  and  C19_29 
REMARK   12  A    between atoms: C19_29  and  C20_30 
REMARK   13  A    between atoms: C20_30  and  O2_31 
ROOT
HETATM    1  C9  UNL     1     -11.115  45.035  55.528  1.00  0.00     0.071 A 
HETATM    2  C10 UNL     1     -10.596  43.790  55.153  1.00  0.00     0.019 A 
HETATM    3  C11 UNL     1     -11.411  42.701  54.970  1.00  0.00     0.016 A 
HETATM    4  C12 UNL     1     -10.896  41.480  54.602  1.00  0.00     0.001 A 
HETATM    5  C13 UNL     1      -9.536  41.358  54.416  1.00  0.00     0.002 A 
HETATM    6  C14 UNL     1      -8.674  42.421  54.587  1.00  0.00     0.030 A 
HETATM    7  C15 UNL     1      -9.237  43.647  54.963  1.00  0.00     0.046 A 
HETATM    8  N4  UNL     1      -8.367  44.670  55.123  1.00  0.00    -0.340 N 
ATOM      9  H4  UNL     1      -7.367  44.533  54.975  1.00  0.00     0.167 HD
HETATM   10  C16 UNL     1      -8.856  45.881  55.487  1.00  0.00     0.138 A 
HETATM   11  N5  UNL     1      -8.219  47.033  55.707  1.00  0.00    -0.306 N 
ATOM     12  H5  UNL     1      -7.214  47.188  55.632  1.00  0.00     0.171 HD
HETATM   13  C17 UNL     1      -9.170  47.980  56.055  1.00  0.00     0.225 A 
HETATM   14  N6  UNL     1     -10.358  47.343  56.028  1.00  0.00    -0.317 N 
ATOM     15  H6  UNL     1     -11.255  47.779  56.240  1.00  0.00     0.169 HD
HETATM   16  C21 UNL     1     -10.201  46.073  55.688  1.00  0.00     0.107 A 
ENDROOT
BRANCH   1  17
HETATM   17  N3  UNL     1     -12.379  45.156  55.702  1.00  0.00    -0.387 N 
ATOM     18  H3  UNL     1     -12.964  45.278  54.875  1.00  0.00     0.159 HD
BRANCH  17  19
HETATM   19  C8  UNL     1     -13.023  45.130  56.973  1.00  0.00     0.121 C 
BRANCH  19  20
HETATM   20  C7  UNL     1     -14.447  45.573  56.952  1.00  0.00     0.039 C 
BRANCH  20  21
HETATM   21  C6  UNL     1     -15.390  44.552  57.549  1.00  0.00     0.115 C 
BRANCH  21  22
HETATM   22  N2  UNL     1     -15.870  43.619  56.558  1.00  0.00    -0.419 N 
ATOM     23  H2  UNL     1     -15.420  43.502  55.650  1.00  0.00     0.153 HD
BRANCH  22  24
HETATM   24  C5  UNL     1     -17.025  42.870  56.947  1.00  0.00     0.141 C 
BRANCH  24  25
HETATM   25  C4  UNL     1     -17.345  41.883  55.864  1.00  0.00     0.255 C 
BRANCH  25  26
HETATM   26  N1  UNL     1     -18.184  40.797  56.243  1.00  0.00    -0.077 N 
HETATM   27  C1  UNL     1     -18.963  41.118  57.428  1.00  0.00     0.271 C 
HETATM   28  C2  UNL     1     -19.145  40.597  55.142  1.00  0.00     0.271 C 
HETATM   29  C3  UNL     1     -17.541  39.541  56.453  1.00  0.00     0.271 C 
ENDBRANCH  25  26
ENDBRANCH  24  25
ENDBRANCH  22  24
ENDBRANCH  21  22
ENDBRANCH  20  21
ENDBRANCH  19  20
ENDBRANCH  17  19
ENDBRANCH   1  17
BRANCH  13  30
HETATM   30  O1  UNL     1      -8.817  49.247  56.337  1.00  0.00    -0.322 OA
BRANCH  30  31
HETATM   31  C18 UNL     1      -7.826  50.126  56.220  1.00  0.00     0.181 C 
BRANCH  31  32
HETATM   32  C19 UNL     1      -7.210  50.447  54.899  1.00  0.00     0.053 C 
BRANCH  32  33
HETATM   33  C20 UNL     1      -8.007  51.276  53.945  1.00  0.00     0.166 C 
BRANCH  33  34
HETATM   34  O2  UNL     1      -8.149  50.670  52.701  1.00  0.00    -0.401 OA
ATOM     35  H2  UNL     1      -7.987  49.735  52.730  1.00  0.00     0.209 HD
ENDBRANCH  33  34
ENDBRANCH  32  33
ENDBRANCH  31  32
ENDBRANCH  30  31
ENDBRANCH  13  30
TORSDOF 13
ENDMDL
MODEL 2
REMARK VINA RESULT: -7.217604437      2.969      4.541
REMARK  13 active torsions:
REMARK  status: ('A' for Active; 'I' for Inactive)
REMARK    1  A    between atoms: N1_2  and  C4_5 
REMARK    2  A    between atoms: C4_5  and  C5_6 
REMARK    3  A    between atoms: C5_6  and  N2_7 
REMARK    4  A    between atoms: N2_7  and  C6_9 
REMARK    5  A    between atoms: C6_9  and  C7_10 
REMARK    6  A    between atoms: C7_10  and  C8_11 
REMARK    7  A    between atoms: C8_11  and  N3_12 
REMARK    8  A    between atoms: N3_12  and  C9_14 
REMARK    9  A    between atoms: C17_26  and  O1_27 
REMARK   10  A    between atoms: O1_27  and  C18_28 
REMARK   11  A    between atoms: C18_28  and  C19_29 
REMARK   12  A    between atoms: C19_29  and  C20_30 
REMARK   13  A    between atoms: C20_30  and  O2_31 
ROOT
HETATM    1  C9  UNL     1     -11.206  44.933  55.450  1.00  0.00     0.071 A 
HETATM    2  C10 UNL     1     -10.668  43.691  55.092  1.00  0.00     0.019 A 
HETATM    3  C11 UNL     1     -11.471  42.599  54.877  1.00  0.00     0.016 A 
HETATM    4  C12 UNL     1     -10.938  41.380  54.527  1.00  0.00     0.001 A 
HETATM    5  C13 UNL     1      -9.571  41.265  54.392  1.00  0.00     0.002 A 
HETATM    6  C14 UNL     1      -8.721  42.331  54.597  1.00  0.00     0.030 A 
HETATM    7  C15 UNL     1      -9.303  43.554  54.953  1.00  0.00     0.046 A 
HETATM    8  N4  UNL     1      -8.444  44.580  55.148  1.00  0.00    -0.340 N 
ATOM      9  H4  UNL     1      -7.439  44.448  55.037  1.00  0.00     0.167 HD
HETATM   10  C16 UNL     1      -8.951  45.788  55.495  1.00  0.00     0.138 A 
HETATM   11  N5  UNL     1      -8.328  46.942  55.741  1.00  0.00    -0.306 N 
ATOM     12  H5  UNL     1      -7.321  47.102  55.705  1.00  0.00     0.171 HD
HETATM   13  C17 UNL     1      -9.296  47.885  56.055  1.00  0.00     0.225 A 
HETATM   14  N6  UNL     1     -10.479  47.243  55.982  1.00  0.00    -0.317 N 
ATOM     15  H6  UNL     1     -11.385  47.675  56.161  1.00  0.00     0.169 HD
HETATM   16  C21 UNL     1     -10.303  45.975  55.646  1.00  0.00     0.107 A 
ENDROOT
BRANCH   1  17
HETATM   17  N3  UNL     1     -12.477  45.048  55.577  1.00  0.00    -0.387 N 
ATOM     18  H3  UNL     1     -13.035  45.123  54.726  1.00  0.00     0.159 HD
BRANCH  17  19
HETATM   19  C8  UNL     1     -13.162  45.077  56.825  1.00  0.00     0.121 C 
BRANCH  19  20
HETATM   20  C7  UNL     1     -14.424  45.873  56.818  1.00  0.00     0.039 C 
BRANCH  20  21
HETATM   21  C6  UNL     1     -14.295  47.172  56.055  1.00  0.00     0.115 C 
BRANCH  21  22
HETATM   22  N2  UNL     1     -13.851  48.252  56.904  1.00  0.00    -0.419 N 
ATOM     23  H2  UNL     1     -12.943  48.249  57.367  1.00  0.00     0.153 HD
BRANCH  22  24
HETATM   24  C5  UNL     1     -14.784  49.327  57.045  1.00  0.00     0.141 C 
BRANCH  24  25
HETATM   25  C4  UNL     1     -15.720  49.308  55.872  1.00  0.00     0.255 C 
BRANCH  25  26
HETATM   26  N1  UNL     1     -16.436  50.514  55.631  1.00  0.00    -0.077 N 
HETATM   27  C1  UNL     1     -17.593  50.628  56.506  1.00  0.00     0.271 C 
HETATM   28  C2  UNL     1     -15.528  51.624  55.978  1.00  0.00     0.271 C 
HETATM   29  C3  UNL     1     -16.862  50.743  54.289  1.00  0.00     0.271 C 
ENDBRANCH  25  26
ENDBRANCH  24  25
ENDBRANCH  22  24
ENDBRANCH  21  22
ENDBRANCH  20  21
ENDBRANCH  19  20
ENDBRANCH  17  19
ENDBRANCH   1  17
BRANCH  13  30
HETATM   30  O1  UNL     1      -8.959  49.153  56.352  1.00  0.00    -0.322 OA
BRANCH  30  31
HETATM   31  C18 UNL     1      -7.972  50.041  56.262  1.00  0.00     0.181 C 
BRANCH  31  32
HETATM   32  C19 UNL     1      -7.263  50.302  54.975  1.00  0.00     0.053 C 
BRANCH  32  33
HETATM   33  C20 UNL     1      -7.882  51.278  54.028  1.00  0.00     0.166 C 
BRANCH  33  34
HETATM   34  O2  UNL     1      -8.207  50.702  52.805  1.00  0.00    -0.401 OA
ATOM     35  H2  UNL     1      -7.582  50.917  52.122  1.00  0.00     0.209 HD
ENDBRANCH  33  34
ENDBRANCH  32  33
ENDBRANCH  31  32
ENDBRANCH  30  31
ENDBRANCH  13  30
TORSDOF 13
ENDMDL
MODEL 3
REMARK VINA RESULT: -7.136880705      2.904      4.062
REMARK  13 active torsions:
REMARK  status: ('A' for Active; 'I' for Inactive)
REMARK    1  A    between atoms: N1_2  and  C4_5 
REMARK    2  A    between atoms: C4_5  and  C5_6 
REMARK    3  A    between atoms: C5_6  and  N2_7 
REMARK    4  A    between atoms: N2_7  and  C6_9 
REMARK    5  A    between atoms: C6_9  and  C7_10 
REMARK    6  A    between atoms: C7_10  and  C8_11 
REMARK    7  A    between atoms: C8_11  and  N3_12 
REMARK    8  A    between atoms: N3_12  and  C9_14 
REMARK    9  A    between atoms: C17_26  and  O1_27 
REMARK   10  A    between atoms: O1_27  and  C18_28 
REMARK   11  A    between atoms: C18_28  and  C19_29 
REMARK   12  A    between atoms: C19_29  and  C20_30 
REMARK   13  A    between atoms: C20_30  and  O2_31 
ROOT
HETATM    1  C9  UNL     1     -10.088  45.396  55.953  1.00  0.00     0.071 A 
HETATM    2  C10 UNL     1      -9.844  44.111  55.453  1.00  0.00     0.019 A 
HETATM    3  C11 UNL     1     -10.817  43.145  55.460  1.00  0.00     0.016 A 
HETATM    4  C12 UNL     1     -10.572  41.883  54.969  1.00  0.00     0.001 A 
HETATM    5  C13 UNL     1      -9.323  41.596  54.463  1.00  0.00     0.002 A 
HETATM    6  C14 UNL     1      -8.311  42.532  54.432  1.00  0.00     0.030 A 
HETATM    7  C15 UNL     1      -8.600  43.804  54.943  1.00  0.00     0.046 A 
HETATM    8  N4  UNL     1      -7.587  44.699  54.901  1.00  0.00    -0.340 N 
ATOM      9  H4  UNL     1      -6.678  44.442  54.517  1.00  0.00     0.167 HD
HETATM   10  C16 UNL     1      -7.810  45.947  55.382  1.00  0.00     0.138 A 
HETATM   11  N5  UNL     1      -6.991  46.998  55.455  1.00  0.00    -0.306 N 
ATOM     12  H5  UNL     1      -6.019  47.026  55.144  1.00  0.00     0.171 HD
HETATM   13  C17 UNL     1      -7.697  48.044  56.028  1.00  0.00     0.225 A 
HETATM   14  N6  UNL     1      -8.932  47.566  56.280  1.00  0.00    -0.317 N 
ATOM     15  H6  UNL     1      -9.687  48.105  56.703  1.00  0.00     0.169 HD
HETATM   16  C21 UNL     1      -9.031  46.302  55.900  1.00  0.00     0.107 A 
ENDROOT
BRANCH   1  17
HETATM   17  N3  UNL     1     -11.248  45.671  56.425  1.00  0.00    -0.387 N 
ATOM     18  H3  UNL     1     -11.994  45.879  55.762  1.00  0.00     0.159 HD
BRANCH  17  19
HETATM   19  C8  UNL     1     -11.565  45.705  57.814  1.00  0.00     0.121 C 
BRANCH  19  20
HETATM   20  C7  UNL     1     -13.026  45.710  58.113  1.00  0.00     0.039 C 
BRANCH  20  21
HETATM   21  C6  UNL     1     -13.848  45.028  57.043  1.00  0.00     0.115 C 
BRANCH  21  22
HETATM   22  N2  UNL     1     -14.649  45.969  56.297  1.00  0.00    -0.419 N 
ATOM     23  H2  UNL     1     -15.003  45.769  55.361  1.00  0.00     0.153 HD
BRANCH  22  24
HETATM   24  C5  UNL     1     -14.909  47.204  56.971  1.00  0.00     0.141 C 
BRANCH  24  25
HETATM   25  C4  UNL     1     -15.040  48.291  55.946  1.00  0.00     0.255 C 
BRANCH  25  26
HETATM   26  N1  UNL     1     -15.837  49.408  56.327  1.00  0.00    -0.077 N 
HETATM   27  C1  UNL     1     -15.064  50.375  57.091  1.00  0.00     0.271 C 
HETATM   28  C2  UNL     1     -16.249  50.081  55.081  1.00  0.00     0.271 C 
HETATM   29  C3  UNL     1     -17.034  49.119  57.047  1.00  0.00     0.271 C 
ENDBRANCH  25  26
ENDBRANCH  24  25
ENDBRANCH  22  24
ENDBRANCH  21  22
ENDBRANCH  20  21
ENDBRANCH  19  20
ENDBRANCH  17  19
ENDBRANCH   1  17
BRANCH  13  30
HETATM   30  O1  UNL     1      -7.121  49.243  56.229  1.00  0.00    -0.322 OA
BRANCH  30  31
HETATM   31  C18 UNL     1      -7.275  50.547  56.015  1.00  0.00     0.181 C 
BRANCH  31  32
HETATM   32  C19 UNL     1      -7.248  51.127  54.640  1.00  0.00     0.053 C 
BRANCH  32  33
HETATM   33  C20 UNL     1      -8.323  50.710  53.691  1.00  0.00     0.166 C 
BRANCH  33  34
HETATM   34  O2  UNL     1      -8.696  51.732  52.824  1.00  0.00    -0.401 OA
ATOM     35  H2  UNL     1      -9.577  51.622  52.487  1.00  0.00     0.209 HD
ENDBRANCH  33  34
ENDBRANCH  32  33
ENDBRANCH  31  32
ENDBRANCH  30  31
ENDBRANCH  13  30
TORSDOF 13
ENDMDL
MODEL 4
REMARK VINA RESULT: -7.086296579      3.542      5.090
REMARK  13 active torsions:
REMARK  status: ('A' for Active; 'I' for Inactive)
REMARK    1  A    between atoms: N1_2  and  C4_5 
REMARK    2  A    between atoms: C4_5  and  C5_6 
REMARK    3  A    between atoms: C5_6  and  N2_7 
REMARK    4  A    between atoms: N2_7  and  C6_9 
REMARK    5  A    between atoms: C6_9  and  C7_10 
REMARK    6  A    between atoms: C7_10  and  C8_11 
REMARK    7  A    between atoms: C8_11  and  N3_12 
REMARK    8  A    between atoms: N3_12  and  C9_14 
REMARK    9  A    between atoms: C17_26  and  O1_27 
REMARK   10  A    between atoms: O1_27  and  C18_28 
REMARK   11  A    between atoms: C18_28  and  C19_29 
REMARK   12  A    between atoms: C19_29  and  C20_30 
REMARK   13  A    between atoms: C20_30  and  O2_31 
ROOT
HETATM    1  C9  UNL     1     -10.466  45.222  55.971  1.00  0.00     0.071 A 
HETATM    2  C10 UNL     1      -9.922  44.015  55.514  1.00  0.00     0.019 A 
HETATM    3  C11 UNL     1     -10.659  42.858  55.501  1.00  0.00     0.016 A 
HETATM    4  C12 UNL     1     -10.120  41.675  55.052  1.00  0.00     0.001 A 
HETATM    5  C13 UNL     1      -8.815  41.663  54.610  1.00  0.00     0.002 A 
HETATM    6  C14 UNL     1      -8.032  42.797  54.602  1.00  0.00     0.030 A 
HETATM    7  C15 UNL     1      -8.617  43.982  55.068  1.00  0.00     0.046 A 
HETATM    8  N4  UNL     1      -7.824  45.077  55.050  1.00  0.00    -0.340 N 
ATOM      9  H4  UNL     1      -6.863  45.020  54.713  1.00  0.00     0.167 HD
HETATM   10  C16 UNL     1      -8.338  46.252  55.490  1.00  0.00     0.138 A 
HETATM   11  N5  UNL     1      -7.774  47.458  55.573  1.00  0.00    -0.306 N 
ATOM     12  H5  UNL     1      -6.818  47.695  55.305  1.00  0.00     0.171 HD
HETATM   13  C17 UNL     1      -8.719  48.332  56.089  1.00  0.00     0.225 A 
HETATM   14  N6  UNL     1      -9.831  47.597  56.296  1.00  0.00    -0.317 N 
ATOM     15  H6  UNL     1     -10.705  47.962  56.672  1.00  0.00     0.169 HD
HETATM   16  C21 UNL     1      -9.631  46.337  55.943  1.00  0.00     0.107 A 
ENDROOT
BRANCH   1  17
HETATM   17  N3  UNL     1     -11.680  45.241  56.384  1.00  0.00    -0.387 N 
ATOM     18  H3  UNL     1     -11.870  44.876  57.317  1.00  0.00     0.159 HD
BRANCH  17  19
HETATM   19  C8  UNL     1     -12.779  45.738  55.627  1.00  0.00     0.121 C 
BRANCH  19  20
HETATM   20  C7  UNL     1     -13.410  46.968  56.190  1.00  0.00     0.039 C 
BRANCH  20  21
HETATM   21  C6  UNL     1     -13.234  47.086  57.687  1.00  0.00     0.115 C 
BRANCH  21  22
HETATM   22  N2  UNL     1     -12.798  48.407  58.075  1.00  0.00    -0.419 N 
ATOM     23  H2  UNL     1     -13.017  49.240  57.529  1.00  0.00     0.153 HD
BRANCH  22  24
HETATM   24  C5  UNL     1     -12.034  48.456  59.283  1.00  0.00     0.141 C 
BRANCH  24  25
HETATM   25  C4  UNL     1     -11.453  47.097  59.540  1.00  0.00     0.255 C 
BRANCH  25  26
HETATM   26  N1  UNL     1     -10.159  47.078  60.132  1.00  0.00    -0.077 N 
HETATM   27  C1  UNL     1      -9.333  46.023  59.566  1.00  0.00     0.271 C 
HETATM   28  C2  UNL     1      -9.513  48.358  59.783  1.00  0.00     0.271 C 
HETATM   29  C3  UNL     1     -10.111  46.975  61.554  1.00  0.00     0.271 C 
ENDBRANCH  25  26
ENDBRANCH  24  25
ENDBRANCH  22  24
ENDBRANCH  21  22
ENDBRANCH  20  21
ENDBRANCH  19  20
ENDBRANCH  17  19
ENDBRANCH   1  17
BRANCH  13  30
HETATM   30  O1  UNL     1      -8.430  49.630  56.286  1.00  0.00    -0.322 OA
BRANCH  30  31
HETATM   31  C18 UNL     1      -7.503  50.559  56.068  1.00  0.00     0.181 C 
BRANCH  31  32
HETATM   32  C19 UNL     1      -7.377  51.251  54.752  1.00  0.00     0.053 C 
BRANCH  32  33
HETATM   33  C20 UNL     1      -8.213  50.747  53.621  1.00  0.00     0.166 C 
BRANCH  33  34
HETATM   34  O2  UNL     1      -8.738  51.776  52.845  1.00  0.00    -0.401 OA
ATOM     35  H2  UNL     1      -9.682  51.719  52.755  1.00  0.00     0.209 HD
ENDBRANCH  33  34
ENDBRANCH  32  33
ENDBRANCH  31  32
ENDBRANCH  30  31
ENDBRANCH  13  30
TORSDOF 13
ENDMDL
MODEL 5
REMARK VINA RESULT: -7.077777320      3.328      4.935
REMARK  13 active torsions:
REMARK  status: ('A' for Active; 'I' for Inactive)
REMARK    1  A    between atoms: N1_2  and  C4_5 
REMARK    2  A    between atoms: C4_5  and  C5_6 
REMARK    3  A    between atoms: C5_6  and  N2_7 
REMARK    4  A    between atoms: N2_7  and  C6_9 
REMARK    5  A    between atoms: C6_9  and  C7_10 
REMARK    6  A    between atoms: C7_10  and  C8_11 
REMARK    7  A    between atoms: C8_11  and  N3_12 
REMARK    8  A    between atoms: N3_12  and  C9_14 
REMARK    9  A    between atoms: C17_26  and  O1_27 
REMARK   10  A    between atoms: O1_27  and  C18_28 
REMARK   11  A    between atoms: C18_28  and  C19_29 
REMARK   12  A    between atoms: C19_29  and  C20_30 
REMARK   13  A    between atoms: C20_30  and  O2_31 
ROOT
HETATM    1  C9  UNL     1     -11.116  45.362  55.795  1.00  0.00     0.071 A 
HETATM    2  C10 UNL     1     -10.693  44.116  55.316  1.00  0.00     0.019 A 
HETATM    3  C11 UNL     1     -11.566  43.064  55.190  1.00  0.00     0.016 A 
HETATM    4  C12 UNL     1     -11.146  41.842  54.720  1.00  0.00     0.001 A 
HETATM    5  C13 UNL     1      -9.822  41.681  54.372  1.00  0.00     0.002 A 
HETATM    6  C14 UNL     1      -8.905  42.705  54.479  1.00  0.00     0.030 A 
HETATM    7  C15 UNL     1      -9.372  43.934  54.963  1.00  0.00     0.046 A 
HETATM    8  N4  UNL     1      -8.450  44.918  55.058  1.00  0.00    -0.340 N 
ATOM      9  H4  UNL     1      -7.480  44.753  54.788  1.00  0.00     0.167 HD
HETATM   10  C16 UNL     1      -8.846  46.129  55.520  1.00  0.00     0.138 A 
HETATM   11  N5  UNL     1      -8.143  47.248  55.706  1.00  0.00    -0.306 N 
ATOM     12  H5  UNL     1      -7.147  47.372  55.520  1.00  0.00     0.171 HD
HETATM   13  C17 UNL     1      -9.009  48.213  56.198  1.00  0.00     0.225 A 
HETATM   14  N6  UNL     1     -10.216  47.619  56.287  1.00  0.00    -0.317 N 
ATOM     15  H6  UNL     1     -11.065  48.078  56.619  1.00  0.00     0.169 HD
HETATM   16  C21 UNL     1     -10.149  46.360  55.885  1.00  0.00     0.107 A 
ENDROOT
BRANCH   1  17
HETATM   17  N3  UNL     1     -12.346  45.519  56.121  1.00  0.00    -0.387 N 
ATOM     18  H3  UNL     1     -12.746  44.867  56.797  1.00  0.00     0.159 HD
BRANCH  17  19
HETATM   19  C8  UNL     1     -13.191  46.542  55.603  1.00  0.00     0.121 C 
BRANCH  19  20
HETATM   20  C7  UNL     1     -14.223  47.034  56.562  1.00  0.00     0.039 C 
BRANCH  20  21
HETATM   21  C6  UNL     1     -13.751  47.005  57.998  1.00  0.00     0.115 C 
BRANCH  21  22
HETATM   22  N2  UNL     1     -13.007  48.193  58.344  1.00  0.00    -0.419 N 
ATOM     23  H2  UNL     1     -13.029  49.039  57.775  1.00  0.00     0.153 HD
BRANCH  22  24
HETATM   24  C5  UNL     1     -12.239  48.092  59.546  1.00  0.00     0.141 C 
BRANCH  24  25
HETATM   25  C4  UNL     1     -11.525  46.772  59.549  1.00  0.00     0.255 C 
BRANCH  25  26
HETATM   26  N1  UNL     1     -10.169  46.802  59.981  1.00  0.00    -0.077 N 
HETATM   27  C1  UNL     1      -9.612  48.142  59.884  1.00  0.00     0.271 C 
HETATM   28  C2  UNL     1     -10.170  46.444  61.412  1.00  0.00     0.271 C 
HETATM   29  C3  UNL     1      -9.276  45.895  59.337  1.00  0.00     0.271 C 
ENDBRANCH  25  26
ENDBRANCH  24  25
ENDBRANCH  22  24
ENDBRANCH  21  22
ENDBRANCH  20  21
ENDBRANCH  19  20
ENDBRANCH  17  19
ENDBRANCH   1  17
BRANCH  13  30
HETATM   30  O1  UNL     1      -8.576  49.455  56.482  1.00  0.00    -0.322 OA
BRANCH  30  31
HETATM   31  C18 UNL     1      -7.595  50.321  56.243  1.00  0.00     0.181 C 
BRANCH  31  32
HETATM   32  C19 UNL     1      -7.083  50.567  54.862  1.00  0.00     0.053 C 
BRANCH  32  33
HETATM   33  C20 UNL     1      -7.950  51.350  53.931  1.00  0.00     0.166 C 
BRANCH  33  34
HETATM   34  O2  UNL     1      -8.171  50.691  52.726  1.00  0.00    -0.401 OA
ATOM     35  H2  UNL     1      -7.528  50.915  52.064  1.00  0.00     0.209 HD
ENDBRANCH  33  34
ENDBRANCH  32  33
ENDBRANCH  31  32
ENDBRANCH  30  31
ENDBRANCH  13  30
TORSDOF 13
ENDMDL
