MODEL 1
REMARK VINA RESULT: -7.573626847      0.000      0.000
REMARK  12 active torsions:
REMARK  status: ('A' for Active; 'I' for Inactive)
REMARK    1  A    between atoms: C1_2  and  C2_4 
REMARK    2  A    between atoms: C2_4  and  C3_5 
REMARK    3  A    between atoms: C8_10  and  N1_11 
REMARK    4  A    between atoms: N1_11  and  C9_13 
REMARK    5  A    between atoms: C9_13  and  C10_14 
REMARK    6  A    between atoms: C10_14  and  N2_15 
REMARK    7  A    between atoms: N2_15  and  C11_16 
REMARK    8  A    between atoms: N2_15  and  C13_22 
REMARK    9  A    between atoms: C11_16  and  C12_17 
REMARK   10  A    between atoms: N3_18  and  O3_20 
REMARK   11  A    between atoms: C13_22  and  C14_23 
REMARK   12  A    between atoms: C14_23  and  C15_24 
ROOT
HETATM    1  N1  UNL     1      -9.473  42.507  55.160  1.00  0.00    -0.373 N 
ATOM      2  H1  UNL     1      -9.410  41.564  55.544  1.00  0.00     0.161 HD
ENDROOT
BRANCH   1   3
HETATM    3  C8  UNL     1     -10.605  43.070  55.266  1.00  0.00     0.128 A 
HETATM    4  C7  UNL     1     -10.889  43.894  56.366  1.00  0.00     0.038 A 
HETATM    5  C6  UNL     1     -10.206  44.290  57.479  1.00  0.00     0.017 A 
HETATM    6  C21 UNL     1     -12.186  44.382  56.224  1.00  0.00     0.069 A 
HETATM    7  C5  UNL     1     -10.736  45.128  58.437  1.00  0.00     0.002 A 
HETATM    8  C4  UNL     1     -12.044  45.590  58.250  1.00  0.00     0.010 A 
HETATM    9  C3  UNL     1     -12.785  45.213  57.126  1.00  0.00    -0.019 A 
HETATM   10  N5  UNL     1     -12.635  43.848  55.068  1.00  0.00    -0.298 N 
HETATM   11  N4  UNL     1     -11.707  43.080  54.504  1.00  0.00    -0.284 N 
ATOM     12  H5  UNL     1     -13.563  44.013  54.679  1.00  0.00     0.187 HD
ATOM     13  H4  UNL     1     -11.818  42.574  53.626  1.00  0.00     0.188 HD
BRANCH   9  14
HETATM   14  C2  UNL     1     -14.152  45.771  56.954  1.00  0.00     0.154 C 
BRANCH  14  15
HETATM   15  C1  UNL     1     -14.052  47.070  56.183  1.00  0.00     0.177 C 
HETATM   16  O1  UNL     1     -14.768  48.031  56.592  1.00  0.00    -0.648 OA
HETATM   17  O2  UNL     1     -13.205  47.114  55.104  1.00  0.00    -0.648 OA
ENDBRANCH  14  15
ENDBRANCH   9  14
ENDBRANCH   1   3
BRANCH   1  18
HETATM   18  C9  UNL     1      -8.277  43.019  54.573  1.00  0.00     0.141 C 
BRANCH  18  19
HETATM   19  C10 UNL     1      -7.192  43.153  55.614  1.00  0.00     0.141 C 
BRANCH  19  20
HETATM   20  N2  UNL     1      -6.684  44.493  55.673  1.00  0.00    -0.387 N 
BRANCH  20  21
HETATM   21  C11 UNL     1      -5.312  44.699  55.528  1.00  0.00     0.104 C 
BRANCH  21  22
HETATM   22  C12 UNL     1      -4.803  44.342  54.194  1.00  0.00     0.130 C 
HETATM   23  N3  UNL     1      -4.210  43.241  53.920  1.00  0.00    -0.279 N 
ATOM     24  H3  UNL     1      -4.094  42.577  54.686  1.00  0.00     0.193 HD
BRANCH  23  25
HETATM   25  O3  UNL     1      -3.719  42.869  52.705  1.00  0.00    -0.290 OA
ATOM     26  H3  UNL     1      -2.804  42.847  52.451  1.00  0.00     0.244 HD
ENDBRANCH  23  25
ENDBRANCH  21  22
ENDBRANCH  20  21
BRANCH  20  27
HETATM   27  C13 UNL     1      -7.595  45.494  55.257  1.00  0.00     0.127 C 
BRANCH  27  28
HETATM   28  C14 UNL     1      -7.126  46.865  55.667  1.00  0.00     0.058 C 
BRANCH  28  29
HETATM   29  C15 UNL     1      -8.187  47.547  56.482  1.00  0.00    -0.057 A 
HETATM   30  C16 UNL     1      -7.841  47.946  57.785  1.00  0.00     0.007 A 
HETATM   31  C17 UNL     1      -8.760  48.557  58.601  1.00  0.00     0.001 A 
HETATM   32  C18 UNL     1     -10.022  48.775  58.134  1.00  0.00     0.000 A 
HETATM   33  C19 UNL     1     -10.398  48.402  56.875  1.00  0.00     0.001 A 
HETATM   34  C20 UNL     1      -9.460  47.784  56.055  1.00  0.00     0.007 A 
ENDBRANCH  28  29
ENDBRANCH  27  28
ENDBRANCH  20  27
ENDBRANCH  19  20
ENDBRANCH  18  19
ENDBRANCH   1  18
TORSDOF 12
ENDMDL
MODEL 2
REMARK VINA RESULT: -7.450668180      1.932      3.918
REMARK  12 active torsions:
REMARK  status: ('A' for Active; 'I' for Inactive)
REMARK    1  A    between atoms: C1_2  and  C2_4 
REMARK    2  A    between atoms: C2_4  and  C3_5 
REMARK    3  A    between atoms: C8_10  and  N1_11 
REMARK    4  A    between atoms: N1_11  and  C9_13 
REMARK    5  A    between atoms: C9_13  and  C10_14 
REMARK    6  A    between atoms: C10_14  and  N2_15 
REMARK    7  A    between atoms: N2_15  and  C11_16 
REMARK    8  A    between atoms: N2_15  and  C13_22 
REMARK    9  A    between atoms: C11_16  and  C12_17 
REMARK   10  A    between atoms: N3_18  and  O3_20 
REMARK   11  A    between atoms: C13_22  and  C14_23 
REMARK   12  A    between atoms: C14_23  and  C15_24 
ROOT
HETATM    1  N1  UNL     1      -7.599  47.206  57.839  1.00  0.00    -0.373 N 
ATOM      2  H1  UNL     1      -7.285  47.032  58.793  1.00  0.00     0.161 HD
ENDROOT
BRANCH   1   3
HETATM    3  C8  UNL     1      -8.827  47.494  57.706  1.00  0.00     0.128 A 
HETATM    4  C7  UNL     1      -9.818  46.584  58.105  1.00  0.00     0.038 A 
HETATM    5  C6  UNL     1      -9.819  45.333  58.648  1.00  0.00     0.017 A 
HETATM    6  C21 UNL     1     -11.063  47.156  57.854  1.00  0.00     0.069 A 
HETATM    7  C5  UNL     1     -10.970  44.636  58.948  1.00  0.00     0.002 A 
HETATM    8  C4  UNL     1     -12.197  45.252  58.676  1.00  0.00     0.010 A 
HETATM    9  C3  UNL     1     -12.249  46.534  58.120  1.00  0.00    -0.019 A 
HETATM   10  N5  UNL     1     -10.791  48.367  57.322  1.00  0.00    -0.298 N 
HETATM   11  N4  UNL     1      -9.479  48.566  57.236  1.00  0.00    -0.284 N 
ATOM     12  H5  UNL     1     -11.498  49.039  57.026  1.00  0.00     0.187 HD
ATOM     13  H4  UNL     1      -9.036  49.408  56.869  1.00  0.00     0.188 HD
BRANCH   9  14
HETATM   14  C2  UNL     1     -13.578  47.160  57.895  1.00  0.00     0.154 C 
BRANCH  14  15
HETATM   15  C1  UNL     1     -14.155  46.624  56.602  1.00  0.00     0.177 C 
HETATM   16  O1  UNL     1     -14.991  45.678  56.702  1.00  0.00    -0.648 OA
HETATM   17  O2  UNL     1     -13.734  47.192  55.426  1.00  0.00    -0.648 OA
ENDBRANCH  14  15
ENDBRANCH   9  14
ENDBRANCH   1   3
BRANCH   1  18
HETATM   18  C9  UNL     1      -6.597  47.095  56.827  1.00  0.00     0.141 C 
BRANCH  18  19
HETATM   19  C10 UNL     1      -7.143  46.374  55.618  1.00  0.00     0.141 C 
BRANCH  19  20
HETATM   20  N2  UNL     1      -6.590  45.055  55.500  1.00  0.00    -0.387 N 
BRANCH  20  21
HETATM   21  C11 UNL     1      -5.204  44.903  55.533  1.00  0.00     0.104 C 
BRANCH  21  22
HETATM   22  C12 UNL     1      -4.628  44.500  54.240  1.00  0.00     0.130 C 
HETATM   23  N3  UNL     1      -4.307  43.298  53.937  1.00  0.00    -0.279 N 
ATOM     24  H3  UNL     1      -4.473  42.584  54.647  1.00  0.00     0.193 HD
BRANCH  23  25
HETATM   25  O3  UNL     1      -3.767  42.879  52.758  1.00  0.00    -0.290 OA
ATOM     26  H3  UNL     1      -4.122  42.213  52.182  1.00  0.00     0.244 HD
ENDBRANCH  23  25
ENDBRANCH  21  22
ENDBRANCH  20  21
BRANCH  20  27
HETATM   27  C13 UNL     1      -7.426  44.014  55.972  1.00  0.00     0.127 C 
BRANCH  27  28
HETATM   28  C14 UNL     1      -8.009  43.223  54.832  1.00  0.00     0.058 C 
BRANCH  28  29
HETATM   29  C15 UNL     1      -9.509  43.240  54.912  1.00  0.00    -0.057 A 
HETATM   30  C16 UNL     1     -10.178  42.017  54.738  1.00  0.00     0.007 A 
HETATM   31  C17 UNL     1     -11.549  41.952  54.775  1.00  0.00     0.001 A 
HETATM   32  C18 UNL     1     -12.262  43.094  54.986  1.00  0.00     0.000 A 
HETATM   33  C19 UNL     1     -11.650  44.303  55.160  1.00  0.00     0.001 A 
HETATM   34  C20 UNL     1     -10.261  44.359  55.120  1.00  0.00     0.007 A 
ENDBRANCH  28  29
ENDBRANCH  27  28
ENDBRANCH  20  27
ENDBRANCH  19  20
ENDBRANCH  18  19
ENDBRANCH   1  18
TORSDOF 12
ENDMDL
MODEL 3
REMARK VINA RESULT: -7.413953698      1.041      1.491
REMARK  12 active torsions:
REMARK  status: ('A' for Active; 'I' for Inactive)
REMARK    1  A    between atoms: C1_2  and  C2_4 
REMARK    2  A    between atoms: C2_4  and  C3_5 
REMARK    3  A    between atoms: C8_10  and  N1_11 
REMARK    4  A    between atoms: N1_11  and  C9_13 
REMARK    5  A    between atoms: C9_13  and  C10_14 
REMARK    6  A    between atoms: C10_14  and  N2_15 
REMARK    7  A    between atoms: N2_15  and  C11_16 
REMARK    8  A    between atoms: N2_15  and  C13_22 
REMARK    9  A    between atoms: C11_16  and  C12_17 
REMARK   10  A    between atoms: N3_18  and  O3_20 
REMARK   11  A    between atoms: C13_22  and  C14_23 
REMARK   12  A    between atoms: C14_23  and  C15_24 
ROOT
HETATM    1  N1  UNL     1      -9.451  42.841  55.394  1.00  0.00    -0.373 N 
ATOM      2  H1  UNL     1      -9.322  41.939  55.853  1.00  0.00     0.161 HD
ENDROOT
BRANCH   1   3
HETATM    3  C8  UNL     1     -10.624  43.323  55.444  1.00  0.00     0.128 A 
HETATM    4  C7  UNL     1     -11.015  44.132  56.522  1.00  0.00     0.038 A 
HETATM    5  C6  UNL     1     -10.413  44.583  57.660  1.00  0.00     0.017 A 
HETATM    6  C21 UNL     1     -12.336  44.524  56.317  1.00  0.00     0.069 A 
HETATM    7  C5  UNL     1     -11.045  45.387  58.585  1.00  0.00     0.002 A 
HETATM    8  C4  UNL     1     -12.372  45.753  58.335  1.00  0.00     0.010 A 
HETATM    9  C3  UNL     1     -13.033  45.316  57.183  1.00  0.00    -0.019 A 
HETATM   10  N5  UNL     1     -12.693  43.951  55.148  1.00  0.00    -0.298 N 
HETATM   11  N4  UNL     1     -11.689  43.247  54.634  1.00  0.00    -0.284 N 
ATOM     12  H5  UNL     1     -13.612  44.046  54.716  1.00  0.00     0.187 HD
ATOM     13  H4  UNL     1     -11.724  42.729  53.756  1.00  0.00     0.188 HD
BRANCH   9  14
HETATM   14  C2  UNL     1     -14.427  45.773  56.945  1.00  0.00     0.154 C 
BRANCH  14  15
HETATM   15  C1  UNL     1     -14.388  47.029  56.101  1.00  0.00     0.177 C 
HETATM   16  O1  UNL     1     -15.264  47.910  56.351  1.00  0.00    -0.648 OA
HETATM   17  O2  UNL     1     -13.420  47.125  55.134  1.00  0.00    -0.648 OA
ENDBRANCH  14  15
ENDBRANCH   9  14
ENDBRANCH   1   3
BRANCH   1  18
HETATM   18  C9  UNL     1      -8.288  43.395  54.779  1.00  0.00     0.141 C 
BRANCH  18  19
HETATM   19  C10 UNL     1      -7.106  43.317  55.715  1.00  0.00     0.141 C 
BRANCH  19  20
HETATM   20  N2  UNL     1      -6.478  44.597  55.875  1.00  0.00    -0.387 N 
BRANCH  20  21
HETATM   21  C11 UNL     1      -5.143  44.742  55.500  1.00  0.00     0.104 C 
BRANCH  21  22
HETATM   22  C12 UNL     1      -4.859  44.252  54.142  1.00  0.00     0.130 C 
HETATM   23  N3  UNL     1      -4.028  43.315  53.873  1.00  0.00    -0.279 N 
ATOM     24  H3  UNL     1      -3.543  42.889  54.663  1.00  0.00     0.193 HD
BRANCH  23  25
HETATM   25  O3  UNL     1      -3.728  42.832  52.635  1.00  0.00    -0.290 OA
ATOM     26  H3  UNL     1      -4.294  42.849  51.872  1.00  0.00     0.244 HD
ENDBRANCH  23  25
ENDBRANCH  21  22
ENDBRANCH  20  21
BRANCH  20  27
HETATM   27  C13 UNL     1      -7.357  45.705  55.799  1.00  0.00     0.127 C 
BRANCH  27  28
HETATM   28  C14 UNL     1      -7.430  46.435  57.113  1.00  0.00     0.058 C 
BRANCH  28  29
HETATM   29  C15 UNL     1      -7.351  47.917  56.881  1.00  0.00    -0.057 A 
HETATM   30  C16 UNL     1      -7.369  48.361  55.548  1.00  0.00     0.007 A 
HETATM   31  C17 UNL     1      -7.279  49.698  55.250  1.00  0.00     0.001 A 
HETATM   32  C18 UNL     1      -7.173  50.600  56.267  1.00  0.00     0.000 A 
HETATM   33  C19 UNL     1      -7.153  50.209  57.575  1.00  0.00     0.001 A 
HETATM   34  C20 UNL     1      -7.244  48.852  57.867  1.00  0.00     0.007 A 
ENDBRANCH  28  29
ENDBRANCH  27  28
ENDBRANCH  20  27
ENDBRANCH  19  20
ENDBRANCH  18  19
ENDBRANCH   1  18
TORSDOF 12
ENDMDL
MODEL 4
REMARK VINA RESULT: -7.406336993      4.090      7.180
REMARK  12 active torsions:
REMARK  status: ('A' for Active; 'I' for Inactive)
REMARK    1  A    between atoms: C1_2  and  C2_4 
REMARK    2  A    between atoms: C2_4  and  C3_5 
REMARK    3  A    between atoms: C8_10  and  N1_11 
REMARK    4  A    between atoms: N1_11  and  C9_13 
REMARK    5  A    between atoms: C9_13  and  C10_14 
REMARK    6  A    between atoms: C10_14  and  N2_15 
REMARK    7  A    between atoms: N2_15  and  C11_16 
REMARK    8  A    between atoms: N2_15  and  C13_22 
REMARK    9  A    between atoms: C11_16  and  C12_17 
REMARK   10  A    between atoms: N3_18  and  O3_20 
REMARK   11  A    between atoms: C13_22  and  C14_23 
REMARK   12  A    between atoms: C14_23  and  C15_24 
ROOT
HETATM    1  N1  UNL     1      -8.596  48.544  55.515  1.00  0.00    -0.373 N 
ATOM      2  H1  UNL     1      -9.579  48.697  55.291  1.00  0.00     0.161 HD
ENDROOT
BRANCH   1   3
HETATM    3  C8  UNL     1      -7.838  49.553  55.389  1.00  0.00     0.128 A 
HETATM    4  C7  UNL     1      -7.304  50.188  56.520  1.00  0.00     0.038 A 
HETATM    5  C6  UNL     1      -7.396  50.000  57.868  1.00  0.00     0.017 A 
HETATM    6  C21 UNL     1      -6.510  51.250  56.091  1.00  0.00     0.069 A 
HETATM    7  C5  UNL     1      -6.753  50.797  58.791  1.00  0.00     0.002 A 
HETATM    8  C4  UNL     1      -5.969  51.852  58.312  1.00  0.00     0.010 A 
HETATM    9  C3  UNL     1      -5.843  52.086  56.939  1.00  0.00    -0.019 A 
HETATM   10  N5  UNL     1      -6.589  51.223  54.744  1.00  0.00    -0.298 N 
HETATM   11  N4  UNL     1      -7.367  50.227  54.330  1.00  0.00    -0.284 N 
ATOM     12  H5  UNL     1      -6.115  51.881  54.125  1.00  0.00     0.187 HD
ATOM     13  H4  UNL     1      -7.573  50.008  53.356  1.00  0.00     0.188 HD
BRANCH   9  14
HETATM   14  C2  UNL     1      -4.960  53.191  56.483  1.00  0.00     0.154 C 
BRANCH  14  15
HETATM   15  C1  UNL     1      -3.593  52.622  56.166  1.00  0.00     0.177 C 
HETATM   16  O1  UNL     1      -2.718  52.701  57.078  1.00  0.00    -0.648 OA
HETATM   17  O2  UNL     1      -3.400  52.068  54.926  1.00  0.00    -0.648 OA
ENDBRANCH  14  15
ENDBRANCH   9  14
ENDBRANCH   1   3
BRANCH   1  18
HETATM   18  C9  UNL     1      -8.253  47.221  55.931  1.00  0.00     0.141 C 
BRANCH  18  19
HETATM   19  C10 UNL     1      -6.885  46.842  55.416  1.00  0.00     0.141 C 
BRANCH  19  20
HETATM   20  N2  UNL     1      -6.674  45.425  55.483  1.00  0.00    -0.387 N 
BRANCH  20  21
HETATM   21  C11 UNL     1      -5.367  44.941  55.524  1.00  0.00     0.104 C 
BRANCH  21  22
HETATM   22  C12 UNL     1      -4.863  44.499  54.214  1.00  0.00     0.130 C 
HETATM   23  N3  UNL     1      -4.275  43.380  54.008  1.00  0.00    -0.279 N 
ATOM     24  H3  UNL     1      -4.160  42.765  54.815  1.00  0.00     0.193 HD
BRANCH  23  25
HETATM   25  O3  UNL     1      -3.789  42.930  52.818  1.00  0.00    -0.290 OA
ATOM     26  H3  UNL     1      -2.919  42.584  52.660  1.00  0.00     0.244 HD
ENDBRANCH  23  25
ENDBRANCH  21  22
ENDBRANCH  20  21
BRANCH  20  27
HETATM   27  C13 UNL     1      -7.716  44.696  56.107  1.00  0.00     0.127 C 
BRANCH  27  28
HETATM   28  C14 UNL     1      -7.819  43.302  55.548  1.00  0.00     0.058 C 
BRANCH  28  29
HETATM   29  C15 UNL     1      -9.254  42.977  55.244  1.00  0.00    -0.057 A 
HETATM   30  C16 UNL     1     -10.177  44.036  55.289  1.00  0.00     0.007 A 
HETATM   31  C17 UNL     1     -11.510  43.818  55.045  1.00  0.00     0.001 A 
HETATM   32  C18 UNL     1     -11.935  42.555  54.756  1.00  0.00     0.000 A 
HETATM   33  C19 UNL     1     -11.070  41.500  54.703  1.00  0.00     0.001 A 
HETATM   34  C20 UNL     1      -9.721  41.730  54.952  1.00  0.00     0.007 A 
ENDBRANCH  28  29
ENDBRANCH  27  28
ENDBRANCH  20  27
ENDBRANCH  19  20
ENDBRANCH  18  19
ENDBRANCH   1  18
TORSDOF 12
ENDMDL
MODEL 5
REMARK VINA RESULT: -7.296869101      2.947      5.282
REMARK  12 active torsions:
REMARK  status: ('A' for Active; 'I' for Inactive)
REMARK    1  A    between atoms: C1_2  and  C2_4 
REMARK    2  A    between atoms: C2_4  and  C3_5 
REMARK    3  A    between atoms: C8_10  and  N1_11 
REMARK    4  A    between atoms: N1_11  and  C9_13 
REMARK    5  A    between atoms: C9_13  and  C10_14 
REMARK    6  A    between atoms: C10_14  and  N2_15 
REMARK    7  A    between atoms: N2_15  and  C11_16 
REMARK    8  A    between atoms: N2_15  and  C13_22 
REMARK    9  A    between atoms: C11_16  and  C12_17 
REMARK   10  A    between atoms: N3_18  and  O3_20 
REMARK   11  A    between atoms: C13_22  and  C14_23 
REMARK   12  A    between atoms: C14_23  and  C15_24 
ROOT
HETATM    1  N1  UNL     1      -7.155  46.059  56.497  1.00  0.00    -0.373 N 
ATOM      2  H1  UNL     1      -6.731  45.595  57.300  1.00  0.00     0.161 HD
ENDROOT
BRANCH   1   3
HETATM    3  C8  UNL     1      -8.016  45.381  55.858  1.00  0.00     0.128 A 
HETATM    4  C7  UNL     1      -7.783  44.027  55.568  1.00  0.00     0.038 A 
HETATM    5  C6  UNL     1      -6.767  43.150  55.805  1.00  0.00     0.017 A 
HETATM    6  C21 UNL     1      -8.885  43.533  54.872  1.00  0.00     0.069 A 
HETATM    7  C5  UNL     1      -6.789  41.834  55.394  1.00  0.00     0.002 A 
HETATM    8  C4  UNL     1      -7.916  41.385  54.697  1.00  0.00     0.010 A 
HETATM    9  C3  UNL     1      -8.984  42.246  54.430  1.00  0.00    -0.019 A 
HETATM   10  N5  UNL     1      -9.729  44.581  54.766  1.00  0.00    -0.298 N 
HETATM   11  N4  UNL     1      -9.221  45.666  55.345  1.00  0.00    -0.284 N 
ATOM     12  H5  UNL     1     -10.637  44.546  54.302  1.00  0.00     0.187 HD
ATOM     13  H4  UNL     1      -9.679  46.576  55.392  1.00  0.00     0.188 HD
BRANCH   9  14
HETATM   14  C2  UNL     1     -10.177  41.705  53.727  1.00  0.00     0.154 C 
BRANCH  14  15
HETATM   15  C1  UNL     1     -11.312  41.584  54.722  1.00  0.00     0.177 C 
HETATM   16  O1  UNL     1     -11.368  40.511  55.393  1.00  0.00    -0.648 OA
HETATM   17  O2  UNL     1     -12.194  42.630  54.823  1.00  0.00    -0.648 OA
ENDBRANCH  14  15
ENDBRANCH   9  14
ENDBRANCH   1   3
BRANCH   1  18
HETATM   18  C9  UNL     1      -6.702  47.389  56.239  1.00  0.00     0.141 C 
BRANCH  18  19
HETATM   19  C10 UNL     1      -7.040  48.297  57.397  1.00  0.00     0.141 C 
BRANCH  19  20
HETATM   20  N2  UNL     1      -7.867  49.393  56.979  1.00  0.00    -0.387 N 
BRANCH  20  21
HETATM   21  C11 UNL     1      -7.352  50.312  56.066  1.00  0.00     0.104 C 
BRANCH  21  22
HETATM   22  C12 UNL     1      -8.019  50.273  54.755  1.00  0.00     0.130 C 
HETATM   23  N3  UNL     1      -7.732  51.049  53.777  1.00  0.00    -0.279 N 
ATOM     24  H3  UNL     1      -6.989  51.730  53.932  1.00  0.00     0.193 HD
BRANCH  23  25
HETATM   25  O3  UNL     1      -8.324  51.054  52.550  1.00  0.00    -0.290 OA
ATOM     26  H3  UNL     1      -8.986  51.664  52.247  1.00  0.00     0.244 HD
ENDBRANCH  23  25
ENDBRANCH  21  22
ENDBRANCH  20  21
BRANCH  20  27
HETATM   27  C13 UNL     1      -9.259  49.135  57.012  1.00  0.00     0.127 C 
BRANCH  27  28
HETATM   28  C14 UNL     1      -9.686  48.614  58.359  1.00  0.00     0.058 C 
BRANCH  28  29
HETATM   29  C15 UNL     1     -10.462  47.339  58.192  1.00  0.00    -0.057 A 
HETATM   30  C16 UNL     1      -9.957  46.191  58.825  1.00  0.00     0.007 A 
HETATM   31  C17 UNL     1     -10.596  44.981  58.704  1.00  0.00     0.001 A 
HETATM   32  C18 UNL     1     -11.734  44.903  57.958  1.00  0.00     0.000 A 
HETATM   33  C19 UNL     1     -12.257  45.996  57.327  1.00  0.00     0.001 A 
HETATM   34  C20 UNL     1     -11.603  47.216  57.455  1.00  0.00     0.007 A 
ENDBRANCH  28  29
ENDBRANCH  27  28
ENDBRANCH  20  27
ENDBRANCH  19  20
ENDBRANCH  18  19
ENDBRANCH   1  18
TORSDOF 12
ENDMDL
