MODEL 1
REMARK VINA RESULT: -7.286177317      0.000      0.000
REMARK  12 active torsions:
REMARK  status: ('A' for Active; 'I' for Inactive)
REMARK    1  A    between atoms: N3_4  and  C2_6 
REMARK    2  A    between atoms: C2_6  and  C3_7 
REMARK    3  A    between atoms: C3_7  and  C4_8 
REMARK    4  A    between atoms: C4_8  and  N4_9 
REMARK    5  A    between atoms: N4_9  and  C5_11 
REMARK    6  A    between atoms: C7_15  and  C8_16 
REMARK    7  A    between atoms: C8_16  and  C9_17 
REMARK       I    between atoms: C9_17  and  N6_19 
REMARK    8  A    between atoms: N6_19  and  C10_21 
REMARK    9  A    between atoms: C10_21  and  C11_22 
REMARK   10  A    between atoms: C11_22  and  C12_23 
REMARK   11  A    between atoms: C12_23  and  N7_24 
REMARK   12  A    between atoms: C13_26  and  C14_27 
ROOT
HETATM    1  C8  UNL     1     -13.040  45.730  56.186  1.00  0.00     0.150 C 
ENDROOT
BRANCH   1   2
HETATM    2  C7  UNL     1     -11.722  45.173  55.704  1.00  0.00     0.010 A 
HETATM    3  C6  UNL     1     -10.486  45.762  55.734  1.00  0.00     0.105 A 
HETATM    4  N5  UNL     1      -9.480  45.092  55.261  1.00  0.00    -0.346 N 
HETATM    5  C5  UNL     1      -9.695  43.872  54.772  1.00  0.00     0.144 A 
ATOM      6  H5  UNL     1      -8.542  45.493  55.263  1.00  0.00     0.167 HD
HETATM    7  S1  UNL     1     -11.376  43.664  54.987  1.00  0.00    -0.057 SA
BRANCH   5   8
HETATM    8  N4  UNL     1      -8.805  43.051  54.254  1.00  0.00    -0.370 N 
ATOM      9  H4  UNL     1      -8.218  43.335  53.469  1.00  0.00     0.161 HD
BRANCH   8  10
HETATM   10  C4  UNL     1      -8.687  41.714  54.846  1.00  0.00     0.123 C 
BRANCH  10  11
HETATM   11  C3  UNL     1      -7.197  41.498  55.087  1.00  0.00     0.039 C 
BRANCH  11  12
HETATM   12  C2  UNL     1      -6.562  42.782  55.525  1.00  0.00     0.123 C 
BRANCH  12  13
HETATM   13  N3  UNL     1      -5.420  43.162  54.755  1.00  0.00    -0.367 N 
HETATM   14  C1  UNL     1      -5.327  44.348  54.281  1.00  0.00     0.196 C 
HETATM   15  N1  UNL     1      -6.356  45.278  54.524  1.00  0.00    -0.067 NA
HETATM   16  N2  UNL     1      -4.183  44.698  53.519  1.00  0.00    -0.067 NA
ATOM     17  H3  UNL     1      -4.677  42.486  54.581  1.00  0.00     0.161 HD
ENDBRANCH  12  13
ENDBRANCH  11  12
ENDBRANCH  10  11
ENDBRANCH   8  10
ENDBRANCH   5   8
ENDBRANCH   1   2
BRANCH   1  18
HETATM   18  C9  UNL     1     -12.817  46.384  57.498  1.00  0.00     0.222 C 
HETATM   19  O1  UNL     1     -12.791  45.711  58.556  1.00  0.00    -0.273 OA
HETATM   20  N6  UNL     1     -12.626  47.791  57.583  1.00  0.00    -0.361 N 
ATOM     21  H6  UNL     1     -12.643  48.353  56.731  1.00  0.00     0.162 HD
BRANCH  20  22
HETATM   22  C10 UNL     1     -12.410  48.430  58.849  1.00  0.00     0.124 C 
BRANCH  22  23
HETATM   23  C11 UNL     1     -13.081  49.777  58.843  1.00  0.00     0.039 C 
BRANCH  23  24
HETATM   24  C12 UNL     1     -14.571  49.529  59.111  1.00  0.00     0.120 C 
BRANCH  24  25
HETATM   25  N7  UNL     1     -15.286  49.981  57.935  1.00  0.00    -0.398 N 
HETATM   26  C13 UNL     1     -14.811  50.879  57.166  1.00  0.00     0.094 C 
ATOM     27  H7  UNL     1     -16.194  49.569  57.716  1.00  0.00     0.158 HD
BRANCH  26  28
HETATM   28  C14 UNL     1     -15.568  51.297  56.000  1.00  0.00    -0.021 A 
HETATM   29  C15 UNL     1     -15.548  52.623  55.640  1.00  0.00     0.013 A 
HETATM   30  C16 UNL     1     -16.247  53.072  54.544  1.00  0.00     0.001 A 
HETATM   31  C17 UNL     1     -16.981  52.180  53.794  1.00  0.00     0.000 A 
HETATM   32  C18 UNL     1     -17.003  50.867  54.148  1.00  0.00     0.001 A 
HETATM   33  C19 UNL     1     -16.299  50.433  55.247  1.00  0.00     0.013 A 
ENDBRANCH  26  28
ENDBRANCH  24  25
ENDBRANCH  23  24
ENDBRANCH  22  23
ENDBRANCH  20  22
ENDBRANCH   1  18
TORSDOF 12
ENDMDL
MODEL 2
REMARK VINA RESULT: -7.276941270      3.888      5.233
REMARK  12 active torsions:
REMARK  status: ('A' for Active; 'I' for Inactive)
REMARK    1  A    between atoms: N3_4  and  C2_6 
REMARK    2  A    between atoms: C2_6  and  C3_7 
REMARK    3  A    between atoms: C3_7  and  C4_8 
REMARK    4  A    between atoms: C4_8  and  N4_9 
REMARK    5  A    between atoms: N4_9  and  C5_11 
REMARK    6  A    between atoms: C7_15  and  C8_16 
REMARK    7  A    between atoms: C8_16  and  C9_17 
REMARK       I    between atoms: C9_17  and  N6_19 
REMARK    8  A    between atoms: N6_19  and  C10_21 
REMARK    9  A    between atoms: C10_21  and  C11_22 
REMARK   10  A    between atoms: C11_22  and  C12_23 
REMARK   11  A    between atoms: C12_23  and  N7_24 
REMARK   12  A    between atoms: C13_26  and  C14_27 
ROOT
HETATM    1  C8  UNL     1     -12.786  45.603  56.716  1.00  0.00     0.150 C 
ENDROOT
BRANCH   1   2
HETATM    2  C7  UNL     1     -11.554  45.081  56.017  1.00  0.00     0.010 A 
HETATM    3  C6  UNL     1     -10.392  45.747  55.727  1.00  0.00     0.105 A 
HETATM    4  N5  UNL     1      -9.454  45.094  55.112  1.00  0.00    -0.346 N 
HETATM    5  C5  UNL     1      -9.662  43.818  54.795  1.00  0.00     0.144 A 
ATOM      6  H5  UNL     1      -8.573  45.551  54.877  1.00  0.00     0.167 HD
HETATM    7  S1  UNL     1     -11.238  43.529  55.384  1.00  0.00    -0.057 SA
BRANCH   5   8
HETATM    8  N4  UNL     1      -8.832  43.003  54.175  1.00  0.00    -0.370 N 
ATOM      9  H4  UNL     1      -8.305  43.309  53.357  1.00  0.00     0.161 HD
BRANCH   8  10
HETATM   10  C4  UNL     1      -8.693  41.642  54.704  1.00  0.00     0.123 C 
BRANCH  10  11
HETATM   11  C3  UNL     1      -7.204  41.452  54.970  1.00  0.00     0.039 C 
BRANCH  11  12
HETATM   12  C2  UNL     1      -6.604  42.740  55.443  1.00  0.00     0.123 C 
BRANCH  12  13
HETATM   13  N3  UNL     1      -5.439  43.141  54.720  1.00  0.00    -0.367 N 
HETATM   14  C1  UNL     1      -5.335  44.340  54.280  1.00  0.00     0.196 C 
HETATM   15  N1  UNL     1      -6.373  45.260  54.514  1.00  0.00    -0.067 NA
HETATM   16  N2  UNL     1      -4.168  44.711  53.564  1.00  0.00    -0.067 NA
ATOM     17  H3  UNL     1      -4.688  42.471  54.552  1.00  0.00     0.161 HD
ENDBRANCH  12  13
ENDBRANCH  11  12
ENDBRANCH  10  11
ENDBRANCH   8  10
ENDBRANCH   5   8
ENDBRANCH   1   2
BRANCH   1  18
HETATM   18  C9  UNL     1     -12.351  46.443  57.860  1.00  0.00     0.222 C 
HETATM   19  O1  UNL     1     -12.624  47.666  57.899  1.00  0.00    -0.273 OA
HETATM   20  N6  UNL     1     -11.615  45.875  58.936  1.00  0.00    -0.361 N 
ATOM     21  H6  UNL     1     -11.386  44.881  58.919  1.00  0.00     0.162 HD
BRANCH  20  22
HETATM   22  C10 UNL     1     -11.191  46.682  60.044  1.00  0.00     0.124 C 
BRANCH  22  23
HETATM   23  C11 UNL     1      -9.847  46.200  60.519  1.00  0.00     0.039 C 
BRANCH  23  24
HETATM   24  C12 UNL     1      -9.025  45.879  59.265  1.00  0.00     0.120 C 
BRANCH  24  25
HETATM   25  N7  UNL     1      -8.652  47.149  58.675  1.00  0.00    -0.398 N 
HETATM   26  C13 UNL     1      -7.814  47.224  57.720  1.00  0.00     0.094 C 
ATOM     27  H7  UNL     1      -9.074  48.006  59.035  1.00  0.00     0.158 HD
BRANCH  26  28
HETATM   28  C14 UNL     1      -7.474  48.521  57.164  1.00  0.00    -0.021 A 
HETATM   29  C15 UNL     1      -7.416  48.660  55.798  1.00  0.00     0.013 A 
HETATM   30  C16 UNL     1      -7.099  49.867  55.220  1.00  0.00     0.001 A 
HETATM   31  C17 UNL     1      -6.835  50.956  56.021  1.00  0.00     0.000 A 
HETATM   32  C18 UNL     1      -6.891  50.821  57.374  1.00  0.00     0.001 A 
HETATM   33  C19 UNL     1      -7.209  49.608  57.937  1.00  0.00     0.013 A 
ENDBRANCH  26  28
ENDBRANCH  24  25
ENDBRANCH  23  24
ENDBRANCH  22  23
ENDBRANCH  20  22
ENDBRANCH   1  18
TORSDOF 12
ENDMDL
MODEL 3
REMARK VINA RESULT: -7.142798870      1.077      1.414
REMARK  12 active torsions:
REMARK  status: ('A' for Active; 'I' for Inactive)
REMARK    1  A    between atoms: N3_4  and  C2_6 
REMARK    2  A    between atoms: C2_6  and  C3_7 
REMARK    3  A    between atoms: C3_7  and  C4_8 
REMARK    4  A    between atoms: C4_8  and  N4_9 
REMARK    5  A    between atoms: N4_9  and  C5_11 
REMARK    6  A    between atoms: C7_15  and  C8_16 
REMARK    7  A    between atoms: C8_16  and  C9_17 
REMARK       I    between atoms: C9_17  and  N6_19 
REMARK    8  A    between atoms: N6_19  and  C10_21 
REMARK    9  A    between atoms: C10_21  and  C11_22 
REMARK   10  A    between atoms: C11_22  and  C12_23 
REMARK   11  A    between atoms: C12_23  and  N7_24 
REMARK   12  A    between atoms: C13_26  and  C14_27 
ROOT
HETATM    1  C8  UNL     1     -13.128  44.975  56.076  1.00  0.00     0.150 C 
ENDROOT
BRANCH   1   2
HETATM    2  C7  UNL     1     -11.745  44.599  55.605  1.00  0.00     0.010 A 
HETATM    3  C6  UNL     1     -10.603  45.355  55.626  1.00  0.00     0.105 A 
HETATM    4  N5  UNL     1      -9.512  44.824  55.165  1.00  0.00    -0.346 N 
HETATM    5  C5  UNL     1      -9.553  43.578  54.698  1.00  0.00     0.144 A 
ATOM      6  H5  UNL     1      -8.639  45.351  55.160  1.00  0.00     0.167 HD
HETATM    7  S1  UNL     1     -11.189  43.140  54.916  1.00  0.00    -0.057 SA
BRANCH   5   8
HETATM    8  N4  UNL     1      -8.555  42.879  54.195  1.00  0.00    -0.370 N 
ATOM      9  H4  UNL     1      -7.921  43.285  53.507  1.00  0.00     0.161 HD
BRANCH   8  10
HETATM   10  C4  UNL     1      -8.389  41.498  54.659  1.00  0.00     0.123 C 
BRANCH  10  11
HETATM   11  C3  UNL     1      -6.988  41.427  55.257  1.00  0.00     0.039 C 
BRANCH  11  12
HETATM   12  C2  UNL     1      -6.499  42.808  55.568  1.00  0.00     0.123 C 
BRANCH  12  13
HETATM   13  N3  UNL     1      -5.347  43.202  54.821  1.00  0.00    -0.367 N 
HETATM   14  C1  UNL     1      -5.286  44.370  54.298  1.00  0.00     0.196 C 
HETATM   15  N1  UNL     1      -6.360  45.264  54.464  1.00  0.00    -0.067 NA
HETATM   16  N2  UNL     1      -4.130  44.734  53.560  1.00  0.00    -0.067 NA
ATOM     17  H3  UNL     1      -4.570  42.551  54.702  1.00  0.00     0.161 HD
ENDBRANCH  12  13
ENDBRANCH  11  12
ENDBRANCH  10  11
ENDBRANCH   8  10
ENDBRANCH   5   8
ENDBRANCH   1   2
BRANCH   1  18
HETATM   18  C9  UNL     1     -13.182  46.450  56.232  1.00  0.00     0.222 C 
HETATM   19  O1  UNL     1     -13.385  47.193  55.243  1.00  0.00    -0.273 OA
HETATM   20  N6  UNL     1     -13.004  47.049  57.510  1.00  0.00    -0.361 N 
ATOM     21  H6  UNL     1     -12.839  46.457  58.324  1.00  0.00     0.162 HD
BRANCH  20  22
HETATM   22  C10 UNL     1     -13.054  48.474  57.667  1.00  0.00     0.124 C 
BRANCH  22  23
HETATM   23  C11 UNL     1     -13.961  48.811  58.820  1.00  0.00     0.039 C 
BRANCH  23  24
HETATM   24  C12 UNL     1     -15.385  48.452  58.380  1.00  0.00     0.120 C 
BRANCH  24  25
HETATM   25  N7  UNL     1     -15.837  49.525  57.518  1.00  0.00    -0.398 N 
HETATM   26  C13 UNL     1     -16.198  49.312  56.316  1.00  0.00     0.094 C 
ATOM     27  H7  UNL     1     -15.867  50.478  57.884  1.00  0.00     0.158 HD
BRANCH  26  28
HETATM   28  C14 UNL     1     -16.643  50.421  55.494  1.00  0.00    -0.021 A 
HETATM   29  C15 UNL     1     -17.845  50.317  54.836  1.00  0.00     0.013 A 
HETATM   30  C16 UNL     1     -18.313  51.340  54.044  1.00  0.00     0.001 A 
HETATM   31  C17 UNL     1     -17.565  52.489  53.905  1.00  0.00     0.000 A 
HETATM   32  C18 UNL     1     -16.375  52.594  54.554  1.00  0.00     0.001 A 
HETATM   33  C19 UNL     1     -15.920  51.563  55.342  1.00  0.00     0.013 A 
ENDBRANCH  26  28
ENDBRANCH  24  25
ENDBRANCH  23  24
ENDBRANCH  22  23
ENDBRANCH  20  22
ENDBRANCH   1  18
TORSDOF 12
ENDMDL
MODEL 4
REMARK VINA RESULT: -7.091422512      3.683      6.691
REMARK  12 active torsions:
REMARK  status: ('A' for Active; 'I' for Inactive)
REMARK    1  A    between atoms: N3_4  and  C2_6 
REMARK    2  A    between atoms: C2_6  and  C3_7 
REMARK    3  A    between atoms: C3_7  and  C4_8 
REMARK    4  A    between atoms: C4_8  and  N4_9 
REMARK    5  A    between atoms: N4_9  and  C5_11 
REMARK    6  A    between atoms: C7_15  and  C8_16 
REMARK    7  A    between atoms: C8_16  and  C9_17 
REMARK       I    between atoms: C9_17  and  N6_19 
REMARK    8  A    between atoms: N6_19  and  C10_21 
REMARK    9  A    between atoms: C10_21  and  C11_22 
REMARK   10  A    between atoms: C11_22  and  C12_23 
REMARK   11  A    between atoms: C12_23  and  N7_24 
REMARK   12  A    between atoms: C13_26  and  C14_27 
ROOT
HETATM    1  C8  UNL     1      -6.147  43.304  55.481  1.00  0.00     0.150 C 
ENDROOT
BRANCH   1   2
HETATM    2  C7  UNL     1      -6.857  44.614  55.720  1.00  0.00     0.010 A 
HETATM    3  C6  UNL     1      -6.695  45.804  55.060  1.00  0.00     0.105 A 
HETATM    4  N5  UNL     1      -7.419  46.813  55.437  1.00  0.00    -0.346 N 
HETATM    5  C5  UNL     1      -8.280  46.646  56.439  1.00  0.00     0.144 A 
ATOM      6  H5  UNL     1      -7.330  47.717  54.974  1.00  0.00     0.167 HD
HETATM    7  S1  UNL     1      -8.059  45.007  56.866  1.00  0.00    -0.057 SA
BRANCH   5   8
HETATM    8  N4  UNL     1      -9.091  47.548  56.954  1.00  0.00    -0.370 N 
ATOM      9  H4  UNL     1      -9.817  47.989  56.389  1.00  0.00     0.161 HD
BRANCH   8  10
HETATM   10  C4  UNL     1      -8.914  47.894  58.368  1.00  0.00     0.123 C 
BRANCH  10  11
HETATM   11  C3  UNL     1      -7.835  48.971  58.399  1.00  0.00     0.039 C 
BRANCH  11  12
HETATM   12  C2  UNL     1      -8.232  50.113  57.515  1.00  0.00     0.123 C 
BRANCH  12  13
HETATM   13  N3  UNL     1      -7.161  50.651  56.738  1.00  0.00    -0.367 N 
HETATM   14  C1  UNL     1      -7.168  50.535  55.463  1.00  0.00     0.196 C 
HETATM   15  N1  UNL     1      -8.238  49.876  54.829  1.00  0.00    -0.067 NA
HETATM   16  N2  UNL     1      -6.091  51.078  54.716  1.00  0.00    -0.067 NA
ATOM     17  H3  UNL     1      -6.387  51.128  57.201  1.00  0.00     0.161 HD
ENDBRANCH  12  13
ENDBRANCH  11  12
ENDBRANCH  10  11
ENDBRANCH   8  10
ENDBRANCH   5   8
ENDBRANCH   1   2
BRANCH   1  18
HETATM   18  C9  UNL     1      -7.171  42.243  55.315  1.00  0.00     0.222 C 
HETATM   19  O1  UNL     1      -7.061  41.146  55.912  1.00  0.00    -0.273 OA
HETATM   20  N6  UNL     1      -8.299  42.451  54.475  1.00  0.00    -0.361 N 
ATOM     21  H6  UNL     1      -8.403  43.339  53.984  1.00  0.00     0.162 HD
BRANCH  20  22
HETATM   22  C10 UNL     1      -9.293  41.429  54.311  1.00  0.00     0.124 C 
BRANCH  22  23
HETATM   23  C11 UNL     1     -10.643  41.991  54.668  1.00  0.00     0.039 C 
BRANCH  23  24
HETATM   24  C12 UNL     1     -10.589  43.493  54.364  1.00  0.00     0.120 C 
BRANCH  24  25
HETATM   25  N7  UNL     1     -11.785  44.076  54.938  1.00  0.00    -0.398 N 
HETATM   26  C13 UNL     1     -11.768  45.215  55.507  1.00  0.00     0.094 C 
ATOM     27  H7  UNL     1     -12.664  43.561  54.883  1.00  0.00     0.158 HD
BRANCH  26  28
HETATM   28  C14 UNL     1     -12.994  45.755  56.066  1.00  0.00    -0.021 A 
HETATM   29  C15 UNL     1     -13.429  46.986  55.639  1.00  0.00     0.013 A 
HETATM   30  C16 UNL     1     -14.584  47.544  56.136  1.00  0.00     0.001 A 
HETATM   31  C17 UNL     1     -15.319  46.858  57.079  1.00  0.00     0.000 A 
HETATM   32  C18 UNL     1     -14.890  45.639  57.504  1.00  0.00     0.001 A 
HETATM   33  C19 UNL     1     -13.733  45.095  56.998  1.00  0.00     0.013 A 
ENDBRANCH  26  28
ENDBRANCH  24  25
ENDBRANCH  23  24
ENDBRANCH  22  23
ENDBRANCH  20  22
ENDBRANCH   1  18
TORSDOF 12
ENDMDL
MODEL 5
REMARK VINA RESULT: -7.082830357      3.810      7.517
REMARK  12 active torsions:
REMARK  status: ('A' for Active; 'I' for Inactive)
REMARK    1  A    between atoms: N3_4  and  C2_6 
REMARK    2  A    between atoms: C2_6  and  C3_7 
REMARK    3  A    between atoms: C3_7  and  C4_8 
REMARK    4  A    between atoms: C4_8  and  N4_9 
REMARK    5  A    between atoms: N4_9  and  C5_11 
REMARK    6  A    between atoms: C7_15  and  C8_16 
REMARK    7  A    between atoms: C8_16  and  C9_17 
REMARK       I    between atoms: C9_17  and  N6_19 
REMARK    8  A    between atoms: N6_19  and  C10_21 
REMARK    9  A    between atoms: C10_21  and  C11_22 
REMARK   10  A    between atoms: C11_22  and  C12_23 
REMARK   11  A    between atoms: C12_23  and  N7_24 
REMARK   12  A    between atoms: C13_26  and  C14_27 
ROOT
HETATM    1  C8  UNL     1      -7.646  42.138  54.750  1.00  0.00     0.150 C 
ENDROOT
BRANCH   1   2
HETATM    2  C7  UNL     1      -9.128  42.415  54.697  1.00  0.00     0.010 A 
HETATM    3  C6  UNL     1     -10.097  41.740  54.003  1.00  0.00     0.105 A 
HETATM    4  N5  UNL     1     -11.322  42.158  54.104  1.00  0.00    -0.346 N 
HETATM    5  C5  UNL     1     -11.578  43.215  54.872  1.00  0.00     0.144 A 
ATOM      6  H5  UNL     1     -12.075  41.685  53.604  1.00  0.00     0.167 HD
HETATM    7  S1  UNL     1     -10.035  43.635  55.472  1.00  0.00    -0.057 SA
BRANCH   5   8
HETATM    8  N4  UNL     1     -12.749  43.777  55.094  1.00  0.00    -0.370 N 
ATOM      9  H4  UNL     1     -13.526  43.649  54.447  1.00  0.00     0.161 HD
BRANCH   8  10
HETATM   10  C4  UNL     1     -12.893  44.593  56.304  1.00  0.00     0.123 C 
BRANCH  10  11
HETATM   11  C3  UNL     1     -12.962  46.038  55.823  1.00  0.00     0.039 C 
BRANCH  11  12
HETATM   12  C2  UNL     1     -12.695  46.967  56.967  1.00  0.00     0.123 C 
BRANCH  12  13
HETATM   13  N3  UNL     1     -11.466  47.689  56.859  1.00  0.00    -0.367 N 
HETATM   14  C1  UNL     1     -11.127  48.523  57.768  1.00  0.00     0.196 C 
HETATM   15  N1  UNL     1     -11.969  48.727  58.877  1.00  0.00    -0.067 NA
HETATM   16  N2  UNL     1      -9.902  49.227  57.635  1.00  0.00    -0.067 NA
ATOM     17  H3  UNL     1     -10.858  47.539  56.054  1.00  0.00     0.161 HD
ENDBRANCH  12  13
ENDBRANCH  11  12
ENDBRANCH  10  11
ENDBRANCH   8  10
ENDBRANCH   5   8
ENDBRANCH   1   2
BRANCH   1  18
HETATM   18  C9  UNL     1      -6.966  43.338  55.297  1.00  0.00     0.222 C 
HETATM   19  O1  UNL     1      -6.375  43.294  56.402  1.00  0.00    -0.273 OA
HETATM   20  N6  UNL     1      -6.972  44.564  54.576  1.00  0.00    -0.361 N 
ATOM     21  H6  UNL     1      -7.448  44.616  53.676  1.00  0.00     0.162 HD
BRANCH  20  22
HETATM   22  C10 UNL     1      -6.318  45.729  55.100  1.00  0.00     0.124 C 
BRANCH  22  23
HETATM   23  C11 UNL     1      -7.345  46.634  55.724  1.00  0.00     0.039 C 
BRANCH  23  24
HETATM   24  C12 UNL     1      -6.804  47.032  57.103  1.00  0.00     0.120 C 
BRANCH  24  25
HETATM   25  N7  UNL     1      -7.899  46.878  58.040  1.00  0.00    -0.398 N 
HETATM   26  C13 UNL     1      -8.433  45.744  58.265  1.00  0.00     0.094 C 
ATOM     27  H7  UNL     1      -8.250  47.700  58.532  1.00  0.00     0.158 HD
BRANCH  26  28
HETATM   28  C14 UNL     1      -9.528  45.644  59.212  1.00  0.00    -0.021 A 
HETATM   29  C15 UNL     1      -9.478  46.398  60.361  1.00  0.00     0.013 A 
HETATM   30  C16 UNL     1     -10.489  46.340  61.292  1.00  0.00     0.001 A 
HETATM   31  C17 UNL     1     -11.569  45.514  61.073  1.00  0.00     0.000 A 
HETATM   32  C18 UNL     1     -11.620  44.767  59.937  1.00  0.00     0.001 A 
HETATM   33  C19 UNL     1     -10.602  44.834  59.016  1.00  0.00     0.013 A 
ENDBRANCH  26  28
ENDBRANCH  24  25
ENDBRANCH  23  24
ENDBRANCH  22  23
ENDBRANCH  20  22
ENDBRANCH   1  18
TORSDOF 12
ENDMDL
