MODEL 1
REMARK VINA RESULT: -4.748764679      0.000      0.000
REMARK  3 active torsions:
REMARK  status: ('A' for Active; 'I' for Inactive)
REMARK       I    between atoms: C1_2  and  N2_4 
REMARK    1  A    between atoms: N2_4  and  N3_6 
REMARK    2  A    between atoms: C2_8  and  C3_9 
REMARK    3  A    between atoms: N6_14  and  N7_15 
ROOT
HETATM    1  C3  UNL     1      50.491  55.998  67.781  1.00  0.00     0.137 A 
HETATM    2  N4  UNL     1      49.409  55.322  68.208  1.00  0.00    -0.278 N 
ATOM      3  H4  UNL     1      48.556  55.749  68.569  1.00  0.00     0.189 HD
HETATM    4  N5  UNL     1      49.615  54.025  68.090  1.00  0.00    -0.218 N 
ATOM      5  H5  UNL     1      48.941  53.305  68.348  1.00  0.00     0.210 HD
HETATM    6  N6  UNL     1      50.816  53.785  67.592  1.00  0.00    -0.147 N 
HETATM    7  C4  UNL     1      51.386  55.003  67.390  1.00  0.00     0.311 A 
HETATM    8  O2  UNL     1      52.532  55.194  66.925  1.00  0.00    -0.262 OA
ENDROOT
BRANCH   1   9
HETATM    9  C2  UNL     1      50.700  57.441  67.734  1.00  0.00     0.144 C 
HETATM   10  N3  UNL     1      50.323  58.195  68.701  1.00  0.00    -0.306 N 
ATOM     11  H3  UNL     1      49.874  57.747  69.500  1.00  0.00     0.186 HD
BRANCH  10  12
HETATM   12  N2  UNL     1      50.479  59.561  68.743  1.00  0.00    -0.254 N 
HETATM   13  C1  UNL     1      50.047  60.310  69.868  1.00  0.00     0.347 C 
HETATM   14  N1  UNL     1      50.189  61.716  69.951  1.00  0.00    -0.038 NA
HETATM   15  O1  UNL     1      49.512  59.645  70.821  1.00  0.00    -0.249 OA
ATOM     16  H2  UNL     1      50.912  60.043  67.955  1.00  0.00     0.191 HD
ENDBRANCH  10  12
ENDBRANCH   1   9
BRANCH   6  17
HETATM   17  N7  UNL     1      51.384  52.534  67.326  1.00  0.00    -0.320 N 
ATOM     18  H72 UNL     1      51.352  51.706  67.920  1.00  0.00     0.179 HD
ATOM     19  H71 UNL     1      51.916  52.263  66.499  1.00  0.00     0.179 HD
ENDBRANCH   6  17
TORSDOF 3
ENDMDL
MODEL 2
REMARK VINA RESULT: -4.610995074      2.726      6.487
REMARK  3 active torsions:
REMARK  status: ('A' for Active; 'I' for Inactive)
REMARK       I    between atoms: C1_2  and  N2_4 
REMARK    1  A    between atoms: N2_4  and  N3_6 
REMARK    2  A    between atoms: C2_8  and  C3_9 
REMARK    3  A    between atoms: N6_14  and  N7_15 
ROOT
HETATM    1  C3  UNL     1      50.403  54.278  67.755  1.00  0.00     0.137 A 
HETATM    2  N4  UNL     1      49.178  54.540  68.244  1.00  0.00    -0.278 N 
ATOM      3  H4  UNL     1      48.473  53.837  68.467  1.00  0.00     0.189 HD
HETATM    4  N5  UNL     1      49.023  55.841  68.394  1.00  0.00    -0.218 N 
ATOM      5  H5  UNL     1      48.178  56.287  68.750  1.00  0.00     0.210 HD
HETATM    6  N6  UNL     1      50.114  56.488  68.019  1.00  0.00    -0.147 N 
HETATM    7  C4  UNL     1      50.993  55.533  67.614  1.00  0.00     0.311 A 
HETATM    8  O2  UNL     1      52.148  55.752  67.185  1.00  0.00    -0.262 OA
ENDROOT
BRANCH   1   9
HETATM    9  C2  UNL     1      50.996  52.983  67.436  1.00  0.00     0.144 C 
HETATM   10  N3  UNL     1      52.267  52.850  67.319  1.00  0.00    -0.306 N 
ATOM     11  H3  UNL     1      52.842  53.681  67.455  1.00  0.00     0.186 HD
BRANCH  10  12
HETATM   12  N2  UNL     1      52.911  51.671  67.022  1.00  0.00    -0.254 N 
HETATM   13  C1  UNL     1      53.604  51.509  65.794  1.00  0.00     0.347 C 
HETATM   14  N1  UNL     1      54.280  50.314  65.450  1.00  0.00    -0.038 NA
HETATM   15  O1  UNL     1      53.589  52.510  64.997  1.00  0.00    -0.249 OA
ATOM     16  H2  UNL     1      52.892  50.904  67.693  1.00  0.00     0.191 HD
ENDBRANCH  10  12
ENDBRANCH   1   9
BRANCH   6  17
HETATM   17  N7  UNL     1      50.321  57.872  68.036  1.00  0.00    -0.320 N 
ATOM     18  H72 UNL     1      50.534  58.471  67.239  1.00  0.00     0.179 HD
ATOM     19  H71 UNL     1      50.289  58.488  68.848  1.00  0.00     0.179 HD
ENDBRANCH   6  17
TORSDOF 3
ENDMDL
MODEL 3
REMARK VINA RESULT: -4.596265535      2.016      6.341
REMARK  3 active torsions:
REMARK  status: ('A' for Active; 'I' for Inactive)
REMARK       I    between atoms: C1_2  and  N2_4 
REMARK    1  A    between atoms: N2_4  and  N3_6 
REMARK    2  A    between atoms: C2_8  and  C3_9 
REMARK    3  A    between atoms: N6_14  and  N7_15 
ROOT
HETATM    1  C3  UNL     1      50.961  59.989  69.294  1.00  0.00     0.137 A 
HETATM    2  N4  UNL     1      51.131  60.144  70.619  1.00  0.00    -0.278 N 
ATOM      3  H4  UNL     1      51.496  59.431  71.251  1.00  0.00     0.189 HD
HETATM    4  N5  UNL     1      50.757  61.356  70.981  1.00  0.00    -0.218 N 
ATOM      5  H5  UNL     1      50.791  61.713  71.936  1.00  0.00     0.210 HD
HETATM    6  N6  UNL     1      50.329  62.045  69.937  1.00  0.00    -0.147 N 
HETATM    7  C4  UNL     1      50.446  61.213  68.868  1.00  0.00     0.311 A 
HETATM    8  O2  UNL     1      50.140  61.505  67.690  1.00  0.00    -0.262 OA
ENDROOT
BRANCH   1   9
HETATM    9  C2  UNL     1      51.243  58.816  68.473  1.00  0.00     0.144 C 
HETATM   10  N3  UNL     1      50.322  57.965  68.199  1.00  0.00    -0.306 N 
ATOM     11  H3  UNL     1      49.390  58.141  68.577  1.00  0.00     0.186 HD
BRANCH  10  12
HETATM   12  N2  UNL     1      50.495  56.835  67.435  1.00  0.00    -0.254 N 
HETATM   13  C1  UNL     1      49.765  55.650  67.712  1.00  0.00     0.347 C 
HETATM   14  N1  UNL     1      49.914  54.465  66.950  1.00  0.00    -0.038 NA
HETATM   15  O1  UNL     1      48.953  55.700  68.698  1.00  0.00    -0.249 OA
ATOM     16  H2  UNL     1      51.158  56.848  66.660  1.00  0.00     0.191 HD
ENDBRANCH  10  12
ENDBRANCH   1   9
BRANCH   6  17
HETATM   17  N7  UNL     1      49.855  63.361  69.932  1.00  0.00    -0.320 N 
ATOM     18  H72 UNL     1      50.368  64.200  70.202  1.00  0.00     0.179 HD
ATOM     19  H71 UNL     1      48.925  63.679  69.659  1.00  0.00     0.179 HD
ENDBRANCH   6  17
TORSDOF 3
ENDMDL
MODEL 4
REMARK VINA RESULT: -4.533626460      2.670      6.333
REMARK  3 active torsions:
REMARK  status: ('A' for Active; 'I' for Inactive)
REMARK       I    between atoms: C1_2  and  N2_4 
REMARK    1  A    between atoms: N2_4  and  N3_6 
REMARK    2  A    between atoms: C2_8  and  C3_9 
REMARK    3  A    between atoms: N6_14  and  N7_15 
ROOT
HETATM    1  C3  UNL     1      50.302  54.407  67.801  1.00  0.00     0.137 A 
HETATM    2  N4  UNL     1      49.113  54.730  68.341  1.00  0.00    -0.278 N 
ATOM      3  H4  UNL     1      48.385  54.064  68.596  1.00  0.00     0.189 HD
HETATM    4  N5  UNL     1      49.030  56.037  68.492  1.00  0.00    -0.218 N 
ATOM      5  H5  UNL     1      48.224  56.526  68.883  1.00  0.00     0.210 HD
HETATM    6  N6  UNL     1      50.134  56.630  68.069  1.00  0.00    -0.147 N 
HETATM    7  C4  UNL     1      50.947  55.631  67.630  1.00  0.00     0.311 A 
HETATM    8  O2  UNL     1      52.092  55.793  67.151  1.00  0.00    -0.262 OA
ENDROOT
BRANCH   1   9
HETATM    9  C2  UNL     1      50.816  53.084  67.462  1.00  0.00     0.144 C 
HETATM   10  N3  UNL     1      52.079  52.858  67.417  1.00  0.00    -0.306 N 
ATOM     11  H3  UNL     1      52.705  53.636  67.626  1.00  0.00     0.186 HD
BRANCH  10  12
HETATM   12  N2  UNL     1      52.651  51.646  67.108  1.00  0.00    -0.254 N 
HETATM   13  C1  UNL     1      53.780  51.170  67.825  1.00  0.00     0.347 C 
HETATM   14  N1  UNL     1      54.399  49.929  67.539  1.00  0.00    -0.038 NA
HETATM   15  O1  UNL     1      54.221  51.926  68.757  1.00  0.00    -0.249 OA
ATOM     16  H2  UNL     1      52.260  51.082  66.354  1.00  0.00     0.191 HD
ENDBRANCH  10  12
ENDBRANCH   1   9
BRANCH   6  17
HETATM   17  N7  UNL     1      50.410  58.001  68.072  1.00  0.00    -0.320 N 
ATOM     18  H72 UNL     1      50.244  58.659  68.833  1.00  0.00     0.179 HD
ATOM     19  H71 UNL     1      50.817  58.548  67.314  1.00  0.00     0.179 HD
ENDBRANCH   6  17
TORSDOF 3
ENDMDL
MODEL 5
REMARK VINA RESULT: -4.513956358      3.551      6.560
REMARK  3 active torsions:
REMARK  status: ('A' for Active; 'I' for Inactive)
REMARK       I    between atoms: C1_2  and  N2_4 
REMARK    1  A    between atoms: N2_4  and  N3_6 
REMARK    2  A    between atoms: C2_8  and  C3_9 
REMARK    3  A    between atoms: N6_14  and  N7_15 
ROOT
HETATM    1  C3  UNL     1      50.755  54.966  66.544  1.00  0.00     0.137 A 
HETATM    2  N4  UNL     1      50.499  56.265  66.305  1.00  0.00    -0.278 N 
ATOM      3  H4  UNL     1      50.951  56.829  65.586  1.00  0.00     0.189 HD
HETATM    4  N5  UNL     1      49.575  56.700  67.139  1.00  0.00    -0.218 N 
ATOM      5  H5  UNL     1      49.211  57.653  67.156  1.00  0.00     0.210 HD
HETATM    6  N6  UNL     1      49.184  55.733  67.952  1.00  0.00    -0.147 N 
HETATM    7  C4  UNL     1      49.908  54.637  67.601  1.00  0.00     0.311 A 
HETATM    8  O2  UNL     1      49.822  53.512  68.144  1.00  0.00    -0.262 OA
ENDROOT
BRANCH   1   9
HETATM    9  C2  UNL     1      51.702  54.087  65.864  1.00  0.00     0.144 C 
HETATM   10  N3  UNL     1      52.250  53.105  66.480  1.00  0.00    -0.306 N 
ATOM     11  H3  UNL     1      51.999  52.964  67.459  1.00  0.00     0.186 HD
BRANCH  10  12
HETATM   12  N2  UNL     1      53.149  52.227  65.921  1.00  0.00    -0.254 N 
HETATM   13  C1  UNL     1      53.415  50.972  66.527  1.00  0.00     0.347 C 
HETATM   14  N1  UNL     1      54.333  50.040  65.984  1.00  0.00    -0.038 NA
HETATM   15  O1  UNL     1      52.777  50.715  67.605  1.00  0.00    -0.249 OA
ATOM     16  H2  UNL     1      53.632  52.482  65.059  1.00  0.00     0.191 HD
ENDBRANCH  10  12
ENDBRANCH   1   9
BRANCH   6  17
HETATM   17  N7  UNL     1      48.223  55.820  68.965  1.00  0.00    -0.320 N 
ATOM     18  H72 UNL     1      47.336  56.321  68.929  1.00  0.00     0.179 HD
ATOM     19  H71 UNL     1      48.267  55.395  69.891  1.00  0.00     0.179 HD
ENDBRANCH   6  17
TORSDOF 3
ENDMDL
