MODEL 1
REMARK VINA RESULT: -5.348187632      0.000      0.000
REMARK  3 active torsions:
REMARK  status: ('A' for Active; 'I' for Inactive)
REMARK    1  A    between atoms: N1_1  and  C1_4 
REMARK    2  A    between atoms: C2_7  and  N3_8 
REMARK    3  A    between atoms: C3_11  and  C4_12 
ROOT
HETATM    1  C1  UNL     1      48.907  55.497  68.009  1.00  0.00     0.680 A 
HETATM    2  N2  UNL     1      49.485  54.310  67.948  1.00  0.00    -0.170 N 
ATOM      3  H2  UNL     1      48.934  53.509  68.256  1.00  0.00     0.186 HD
HETATM    4  C2  UNL     1      50.755  54.058  67.509  1.00  0.00     0.209 A 
HETATM    5  C3  UNL     1      51.470  55.150  67.098  1.00  0.00     0.148 A 
HETATM    6  C5  UNL     1      50.838  56.415  67.171  1.00  0.00     0.279 A 
HETATM    7  O4  UNL     1      51.502  57.404  66.794  1.00  0.00    -0.266 OA
HETATM    8  N5  UNL     1      49.589  56.587  67.613  1.00  0.00    -0.155 N 
ATOM      9  H5  UNL     1      49.167  57.515  67.650  1.00  0.00     0.187 HD
ENDROOT
BRANCH   1  10
HETATM   10  N1  UNL     1      47.703  55.687  68.432  1.00  0.00    -0.234 N 
ATOM     11  H12 UNL     1      47.552  55.613  69.438  1.00  0.00     0.174 HD
ATOM     12  H11 UNL     1      46.914  55.902  67.822  1.00  0.00     0.174 HD
ENDBRANCH   1  10
BRANCH   4  13
HETATM   13  N3  UNL     1      51.243  52.728  67.539  1.00  0.00    -0.096 N 
HETATM   14  O1  UNL     1      50.724  52.003  68.453  1.00  0.00    -0.530 OA
HETATM   15  O2  UNL     1      52.146  52.096  66.787  1.00  0.00    -0.530 OA
ENDBRANCH   4  13
BRANCH   5  16
HETATM   16  C4  UNL     1      52.797  55.107  66.538  1.00  0.00     0.274 C 
HETATM   17  N4  UNL     1      52.952  54.977  65.095  1.00  0.00    -0.057 NA
HETATM   18  O3  UNL     1      53.839  55.171  67.164  1.00  0.00    -0.271 OA
ENDBRANCH   5  16
TORSDOF 3
ENDMDL
MODEL 2
REMARK VINA RESULT: -5.256965547      2.324      3.343
REMARK  3 active torsions:
REMARK  status: ('A' for Active; 'I' for Inactive)
REMARK    1  A    between atoms: N1_1  and  C1_4 
REMARK    2  A    between atoms: C2_7  and  N3_8 
REMARK    3  A    between atoms: C3_11  and  C4_12 
ROOT
HETATM    1  C1  UNL     1      51.143  58.251  68.234  1.00  0.00     0.680 A 
HETATM    2  N2  UNL     1      50.067  57.489  68.317  1.00  0.00    -0.170 N 
ATOM      3  H2  UNL     1      49.270  57.866  68.829  1.00  0.00     0.186 HD
HETATM    4  C2  UNL     1      49.923  56.241  67.778  1.00  0.00     0.209 A 
HETATM    5  C3  UNL     1      51.006  55.761  67.092  1.00  0.00     0.148 A 
HETATM    6  C5  UNL     1      52.153  56.588  67.014  1.00  0.00     0.279 A 
HETATM    7  O4  UNL     1      53.136  56.138  66.387  1.00  0.00    -0.266 OA
HETATM    8  N5  UNL     1      52.223  57.801  67.568  1.00  0.00    -0.155 N 
ATOM      9  H5  UNL     1      53.067  58.368  67.489  1.00  0.00     0.187 HD
ENDROOT
BRANCH   1  10
HETATM   10  N1  UNL     1      51.233  59.426  68.761  1.00  0.00    -0.234 N 
ATOM     11  H12 UNL     1      50.590  60.137  68.410  1.00  0.00     0.174 HD
ATOM     12  H11 UNL     1      51.899  59.670  69.493  1.00  0.00     0.174 HD
ENDBRANCH   1  10
BRANCH   4  13
HETATM   13  N3  UNL     1      48.712  55.535  67.987  1.00  0.00    -0.096 N 
HETATM   14  O1  UNL     1      48.735  54.748  68.992  1.00  0.00    -0.530 OA
HETATM   15  O2  UNL     1      47.553  55.544  67.325  1.00  0.00    -0.530 OA
ENDBRANCH   4  13
BRANCH   5  16
HETATM   16  C4  UNL     1      51.049  54.504  66.391  1.00  0.00     0.274 C 
HETATM   17  N4  UNL     1      51.520  53.317  67.093  1.00  0.00    -0.057 NA
HETATM   18  O3  UNL     1      50.721  54.321  65.232  1.00  0.00    -0.271 OA
ENDBRANCH   5  16
TORSDOF 3
ENDMDL
MODEL 3
REMARK VINA RESULT: -5.241652630      1.048      3.181
REMARK  3 active torsions:
REMARK  status: ('A' for Active; 'I' for Inactive)
REMARK    1  A    between atoms: N1_1  and  C1_4 
REMARK    2  A    between atoms: C2_7  and  N3_8 
REMARK    3  A    between atoms: C3_11  and  C4_12 
ROOT
HETATM    1  C1  UNL     1      49.136  55.477  68.313  1.00  0.00     0.680 A 
HETATM    2  N2  UNL     1      49.956  56.402  67.846  1.00  0.00    -0.170 N 
ATOM      3  H2  UNL     1      49.667  57.374  67.951  1.00  0.00     0.186 HD
HETATM    4  C2  UNL     1      51.157  56.176  67.234  1.00  0.00     0.209 A 
HETATM    5  C3  UNL     1      51.523  54.862  67.109  1.00  0.00     0.148 A 
HETATM    6  C5  UNL     1      50.634  53.882  67.613  1.00  0.00     0.279 A 
HETATM    7  O4  UNL     1      50.978  52.687  67.492  1.00  0.00    -0.266 OA
HETATM    8  N5  UNL     1      49.471  54.178  68.201  1.00  0.00    -0.155 N 
ATOM      9  H5  UNL     1      48.858  53.444  68.552  1.00  0.00     0.187 HD
ENDROOT
BRANCH   1  10
HETATM   10  N1  UNL     1      48.010  55.739  68.885  1.00  0.00    -0.234 N 
ATOM     11  H12 UNL     1      47.689  56.707  68.846  1.00  0.00     0.174 HD
ATOM     12  H11 UNL     1      47.440  55.041  69.362  1.00  0.00     0.174 HD
ENDBRANCH   1  10
BRANCH   4  13
HETATM   13  N3  UNL     1      51.905  57.279  66.753  1.00  0.00    -0.096 N 
HETATM   14  O1  UNL     1      52.057  58.217  67.607  1.00  0.00    -0.530 OA
HETATM   15  O2  UNL     1      52.480  57.516  65.573  1.00  0.00    -0.530 OA
ENDBRANCH   4  13
BRANCH   5  16
HETATM   16  C4  UNL     1      52.772  54.401  66.560  1.00  0.00     0.274 C 
HETATM   17  N4  UNL     1      52.845  54.077  65.141  1.00  0.00    -0.057 NA
HETATM   18  O3  UNL     1      53.810  54.249  67.177  1.00  0.00    -0.271 OA
ENDBRANCH   5  16
TORSDOF 3
ENDMDL
MODEL 4
REMARK VINA RESULT: -5.201401022      1.991      3.613
REMARK  3 active torsions:
REMARK  status: ('A' for Active; 'I' for Inactive)
REMARK    1  A    between atoms: N1_1  and  C1_4 
REMARK    2  A    between atoms: C2_7  and  N3_8 
REMARK    3  A    between atoms: C3_11  and  C4_12 
ROOT
HETATM    1  C1  UNL     1      51.028  52.533  68.086  1.00  0.00     0.680 A 
HETATM    2  N2  UNL     1      49.952  53.280  68.262  1.00  0.00    -0.170 N 
ATOM      3  H2  UNL     1      49.169  52.856  68.759  1.00  0.00     0.186 HD
HETATM    4  C2  UNL     1      49.792  54.570  67.840  1.00  0.00     0.209 A 
HETATM    5  C3  UNL     1      50.860  55.116  67.179  1.00  0.00     0.148 A 
HETATM    6  C5  UNL     1      52.005  54.303  66.996  1.00  0.00     0.279 A 
HETATM    7  O4  UNL     1      52.972  54.812  66.390  1.00  0.00    -0.266 OA
HETATM    8  N5  UNL     1      52.090  53.045  67.437  1.00  0.00    -0.155 N 
ATOM      9  H5  UNL     1      52.932  52.490  67.287  1.00  0.00     0.187 HD
ENDROOT
BRANCH   1  10
HETATM   10  N1  UNL     1      51.132  51.317  68.504  1.00  0.00    -0.234 N 
ATOM     11  H12 UNL     1      50.265  50.836  68.742  1.00  0.00     0.174 HD
ATOM     12  H11 UNL     1      52.021  50.826  68.604  1.00  0.00     0.174 HD
ENDBRANCH   1  10
BRANCH   4  13
HETATM   13  N3  UNL     1      48.559  55.225  68.076  1.00  0.00    -0.096 N 
HETATM   14  O1  UNL     1      48.303  55.426  69.311  1.00  0.00    -0.530 OA
HETATM   15  O2  UNL     1      47.616  55.671  67.243  1.00  0.00    -0.530 OA
ENDBRANCH   4  13
BRANCH   5  16
HETATM   16  C4  UNL     1      50.934  56.475  66.708  1.00  0.00     0.274 C 
HETATM   17  N4  UNL     1      51.111  57.550  67.674  1.00  0.00    -0.057 NA
HETATM   18  O3  UNL     1      50.863  56.833  65.546  1.00  0.00    -0.271 OA
ENDBRANCH   5  16
TORSDOF 3
ENDMDL
MODEL 5
REMARK VINA RESULT: -5.080244815      2.173      2.878
REMARK  3 active torsions:
REMARK  status: ('A' for Active; 'I' for Inactive)
REMARK    1  A    between atoms: N1_1  and  C1_4 
REMARK    2  A    between atoms: C2_7  and  N3_8 
REMARK    3  A    between atoms: C3_11  and  C4_12 
ROOT
HETATM    1  C1  UNL     1      50.800  58.293  68.360  1.00  0.00     0.680 A 
HETATM    2  N2  UNL     1      50.010  57.234  68.324  1.00  0.00    -0.170 N 
ATOM      3  H2  UNL     1      49.089  57.328  68.754  1.00  0.00     0.186 HD
HETATM    4  C2  UNL     1      50.312  56.025  67.763  1.00  0.00     0.209 A 
HETATM    5  C3  UNL     1      51.552  55.929  67.191  1.00  0.00     0.148 A 
HETATM    6  C5  UNL     1      52.388  57.070  67.239  1.00  0.00     0.279 A 
HETATM    7  O4  UNL     1      53.518  56.969  66.714  1.00  0.00    -0.266 OA
HETATM    8  N5  UNL     1      52.025  58.223  67.807  1.00  0.00    -0.155 N 
ATOM      9  H5  UNL     1      52.655  59.025  67.821  1.00  0.00     0.187 HD
ENDROOT
BRANCH   1  10
HETATM   10  N1  UNL     1      50.470  59.416  68.902  1.00  0.00    -0.234 N 
ATOM     11  H12 UNL     1      50.422  60.228  68.286  1.00  0.00     0.174 HD
ATOM     12  H11 UNL     1      50.260  59.528  69.894  1.00  0.00     0.174 HD
ENDBRANCH   1  10
BRANCH   4  13
HETATM   13  N3  UNL     1      49.366  54.974  67.839  1.00  0.00    -0.096 N 
HETATM   14  O1  UNL     1      48.205  55.285  67.407  1.00  0.00    -0.530 OA
HETATM   15  O2  UNL     1      49.467  53.718  68.279  1.00  0.00    -0.530 OA
ENDBRANCH   4  13
BRANCH   5  16
HETATM   16  C4  UNL     1      52.050  54.774  66.488  1.00  0.00     0.274 C 
HETATM   17  N4  UNL     1      52.873  53.810  67.205  1.00  0.00    -0.057 NA
HETATM   18  O3  UNL     1      51.848  54.509  65.317  1.00  0.00    -0.271 OA
ENDBRANCH   5  16
TORSDOF 3
ENDMDL
