MODEL 1
REMARK VINA RESULT: -4.829030470      0.000      0.000
REMARK  2 active torsions:
REMARK  status: ('A' for Active; 'I' for Inactive)
REMARK    1  A    between atoms: C1_2  and  C2_4 
REMARK    2  A    between atoms: N2_5  and  C3_7 
ROOT
HETATM    1  C3  UNL     1      51.312  55.194  67.404  1.00  0.00     0.142 A 
HETATM    2  C4  UNL     1      50.673  56.416  67.303  1.00  0.00     0.152 A 
HETATM    3  N3  UNL     1      51.451  57.572  67.056  1.00  0.00    -0.080 NA
HETATM    4  N4  UNL     1      49.323  56.512  67.437  1.00  0.00    -0.295 N 
ATOM      5  H4  UNL     1      48.850  57.413  67.363  1.00  0.00     0.172 HD
HETATM    6  C5  UNL     1      48.630  55.381  67.672  1.00  0.00     0.328 A 
HETATM    7  O2  UNL     1      47.361  55.465  67.798  1.00  0.00    -0.247 OA
HETATM    8  N5  UNL     1      49.203  54.175  67.778  1.00  0.00    -0.273 N 
ATOM      9  H5  UNL     1      48.634  53.347  67.956  1.00  0.00     0.173 HD
HETATM   10  C6  UNL     1      50.543  54.067  67.645  1.00  0.00     0.279 A 
HETATM   11  O3  UNL     1      51.136  52.967  67.735  1.00  0.00    -0.265 OA
ENDROOT
BRANCH   1  12
HETATM   12  N2  UNL     1      52.720  55.056  67.269  1.00  0.00    -0.354 N 
HETATM   13  C2  UNL     1      53.262  54.860  66.107  1.00  0.00     0.159 C 
ATOM     14  H2  UNL     1      53.312  55.112  68.097  1.00  0.00     0.165 HD
BRANCH  13  15
HETATM   15  C1  UNL     1      54.693  54.716  65.933  1.00  0.00     0.270 C 
HETATM   16  N1  UNL     1      55.572  54.553  67.051  1.00  0.00    -0.057 NA
HETATM   17  O1  UNL     1      55.176  54.733  64.777  1.00  0.00    -0.270 OA
ENDBRANCH  13  15
ENDBRANCH   1  12
TORSDOF 2
ENDMDL
MODEL 2
REMARK VINA RESULT: -4.820360216      1.379      2.174
REMARK  2 active torsions:
REMARK  status: ('A' for Active; 'I' for Inactive)
REMARK    1  A    between atoms: C1_2  and  C2_4 
REMARK    2  A    between atoms: N2_5  and  C3_7 
ROOT
HETATM    1  C3  UNL     1      51.322  55.245  67.376  1.00  0.00     0.142 A 
HETATM    2  C4  UNL     1      50.569  54.110  67.615  1.00  0.00     0.152 A 
HETATM    3  N3  UNL     1      51.229  52.864  67.720  1.00  0.00    -0.080 NA
HETATM    4  N4  UNL     1      49.216  54.184  67.748  1.00  0.00    -0.295 N 
ATOM      5  H4  UNL     1      48.659  53.348  67.925  1.00  0.00     0.172 HD
HETATM    6  C5  UNL     1      48.637  55.396  67.639  1.00  0.00     0.328 A 
HETATM    7  O2  UNL     1      47.367  55.471  67.764  1.00  0.00    -0.247 OA
HETATM    8  N5  UNL     1      49.324  56.522  67.409  1.00  0.00    -0.273 N 
ATOM      9  H5  UNL     1      48.838  57.416  67.334  1.00  0.00     0.173 HD
HETATM   10  C6  UNL     1      50.666  56.461  67.276  1.00  0.00     0.279 A 
HETATM   11  O3  UNL     1      51.363  57.480  67.059  1.00  0.00    -0.265 OA
ENDROOT
BRANCH   1  12
HETATM   12  N2  UNL     1      52.735  55.205  67.233  1.00  0.00    -0.354 N 
HETATM   13  C2  UNL     1      53.281  54.937  66.087  1.00  0.00     0.159 C 
ATOM     14  H2  UNL     1      53.328  55.390  68.041  1.00  0.00     0.165 HD
BRANCH  13  15
HETATM   15  C1  UNL     1      54.717  54.888  65.904  1.00  0.00     0.270 C 
HETATM   16  N1  UNL     1      55.610  54.757  67.015  1.00  0.00    -0.057 NA
HETATM   17  O1  UNL     1      55.192  54.962  64.748  1.00  0.00    -0.270 OA
ENDBRANCH  13  15
ENDBRANCH   1  12
TORSDOF 2
ENDMDL
MODEL 3
REMARK VINA RESULT: -4.778053785      2.654      4.706
REMARK  2 active torsions:
REMARK  status: ('A' for Active; 'I' for Inactive)
REMARK    1  A    between atoms: C1_2  and  C2_4 
REMARK    2  A    between atoms: N2_5  and  C3_7 
ROOT
HETATM    1  C3  UNL     1      50.656  56.544  67.520  1.00  0.00     0.142 A 
HETATM    2  C4  UNL     1      51.746  56.281  66.711  1.00  0.00     0.152 A 
HETATM    3  N3  UNL     1      52.473  57.369  66.174  1.00  0.00    -0.080 NA
HETATM    4  N4  UNL     1      52.118  55.002  66.433  1.00  0.00    -0.295 N 
ATOM      5  H4  UNL     1      52.922  54.805  65.837  1.00  0.00     0.172 HD
HETATM    6  C5  UNL     1      51.391  54.003  66.970  1.00  0.00     0.328 A 
HETATM    7  O2  UNL     1      51.735  52.799  66.713  1.00  0.00    -0.247 OA
HETATM    8  N5  UNL     1      50.328  54.208  67.759  1.00  0.00    -0.273 N 
ATOM      9  H5  UNL     1      49.809  53.417  68.141  1.00  0.00     0.173 HD
HETATM   10  C6  UNL     1      49.950  55.473  68.043  1.00  0.00     0.279 A 
HETATM   11  O3  UNL     1      48.965  55.728  68.774  1.00  0.00    -0.265 OA
ENDROOT
BRANCH   1  12
HETATM   12  N2  UNL     1      50.240  57.867  67.832  1.00  0.00    -0.354 N 
HETATM   13  C2  UNL     1      50.915  58.600  68.663  1.00  0.00     0.159 C 
ATOM     14  H2  UNL     1      49.400  58.245  67.396  1.00  0.00     0.165 HD
BRANCH  13  15
HETATM   15  C1  UNL     1      50.520  59.951  69.003  1.00  0.00     0.270 C 
HETATM   16  N1  UNL     1      49.918  60.261  70.263  1.00  0.00    -0.057 NA
HETATM   17  O1  UNL     1      50.709  60.873  68.176  1.00  0.00    -0.270 OA
ENDBRANCH  13  15
ENDBRANCH   1  12
TORSDOF 2
ENDMDL
MODEL 4
REMARK VINA RESULT: -4.680698284      2.866      4.984
REMARK  2 active torsions:
REMARK  status: ('A' for Active; 'I' for Inactive)
REMARK    1  A    between atoms: C1_2  and  C2_4 
REMARK    2  A    between atoms: N2_5  and  C3_7 
ROOT
HETATM    1  C3  UNL     1      50.608  56.590  67.473  1.00  0.00     0.142 A 
HETATM    2  C4  UNL     1      49.943  55.470  67.939  1.00  0.00     0.152 A 
HETATM    3  N3  UNL     1      48.811  55.647  68.768  1.00  0.00    -0.080 NA
HETATM    4  N4  UNL     1      50.366  54.219  67.609  1.00  0.00    -0.295 N 
ATOM      5  H4  UNL     1      49.877  53.392  67.952  1.00  0.00     0.172 HD
HETATM    6  C5  UNL     1      51.449  54.107  66.817  1.00  0.00     0.328 A 
HETATM    7  O2  UNL     1      51.850  52.935  66.504  1.00  0.00    -0.247 OA
HETATM    8  N5  UNL     1      52.126  55.161  66.341  1.00  0.00    -0.273 N 
ATOM      9  H5  UNL     1      52.941  55.024  65.744  1.00  0.00     0.173 HD
HETATM   10  C6  UNL     1      51.716  56.408  66.661  1.00  0.00     0.279 A 
HETATM   11  O3  UNL     1      52.307  57.432  66.247  1.00  0.00    -0.265 OA
ENDROOT
BRANCH   1  12
HETATM   12  N2  UNL     1      50.195  57.911  67.797  1.00  0.00    -0.354 N 
HETATM   13  C2  UNL     1      50.853  58.622  68.658  1.00  0.00     0.159 C 
ATOM     14  H2  UNL     1      49.370  58.304  67.345  1.00  0.00     0.165 HD
BRANCH  13  15
HETATM   15  C1  UNL     1      50.462  59.971  69.012  1.00  0.00     0.270 C 
HETATM   16  N1  UNL     1      49.900  60.278  70.291  1.00  0.00    -0.057 NA
HETATM   17  O1  UNL     1      50.617  60.894  68.179  1.00  0.00    -0.270 OA
ENDBRANCH  13  15
ENDBRANCH   1  12
TORSDOF 2
ENDMDL
MODEL 5
REMARK VINA RESULT: -4.578489492      1.468      1.468
REMARK  2 active torsions:
REMARK  status: ('A' for Active; 'I' for Inactive)
REMARK    1  A    between atoms: C1_2  and  C2_4 
REMARK    2  A    between atoms: N2_5  and  C3_7 
ROOT
HETATM    1  C3  UNL     1      51.372  55.225  67.064  1.00  0.00     0.142 A 
HETATM    2  C4  UNL     1      50.839  56.451  67.415  1.00  0.00     0.152 A 
HETATM    3  N3  UNL     1      51.535  57.626  67.046  1.00  0.00    -0.080 NA
HETATM    4  N4  UNL     1      49.669  56.534  68.105  1.00  0.00    -0.295 N 
ATOM      5  H4  UNL     1      49.274  57.438  68.365  1.00  0.00     0.172 HD
HETATM    6  C5  UNL     1      49.047  55.384  68.433  1.00  0.00     0.328 A 
HETATM    7  O2  UNL     1      47.948  55.456  69.080  1.00  0.00    -0.247 OA
HETATM    8  N5  UNL     1      49.523  54.173  68.114  1.00  0.00    -0.273 N 
ATOM      9  H5  UNL     1      49.015  53.332  68.386  1.00  0.00     0.173 HD
HETATM   10  C6  UNL     1      50.684  54.079  67.430  1.00  0.00     0.279 A 
HETATM   11  O3  UNL     1      51.179  52.975  67.104  1.00  0.00    -0.265 OA
ENDROOT
BRANCH   1  12
HETATM   12  N2  UNL     1      52.591  55.101  66.345  1.00  0.00    -0.354 N 
HETATM   13  C2  UNL     1      52.596  55.025  65.050  1.00  0.00     0.159 C 
ATOM     14  H2  UNL     1      53.474  55.072  66.854  1.00  0.00     0.165 HD
BRANCH  13  15
HETATM   15  C1  UNL     1      53.820  54.899  64.285  1.00  0.00     0.270 C 
HETATM   16  N1  UNL     1      53.834  54.293  62.989  1.00  0.00    -0.057 NA
HETATM   17  O1  UNL     1      54.893  55.330  64.766  1.00  0.00    -0.270 OA
ENDBRANCH  13  15
ENDBRANCH   1  12
TORSDOF 2
ENDMDL
