MODEL 1
REMARK VINA RESULT: -4.881067056      0.000      0.000
REMARK  4 active torsions:
REMARK  status: ('A' for Active; 'I' for Inactive)
REMARK    1  A    between atoms: C1_4  and  N2_5 
REMARK    2  A    between atoms: C1_4  and  C3_16 
REMARK    3  A    between atoms: N2_5  and  C2_7 
REMARK    4  A    between atoms: C3_16  and  C4_18 
ROOT
HETATM    1  N1  UNL     1      49.370  54.694  68.435  1.00  0.00    -0.382 N 
ATOM      2  H11 UNL     1      49.520  53.696  68.583  1.00  0.00     0.157 HD
ATOM      3  H12 UNL     1      48.795  55.246  69.071  1.00  0.00     0.157 HD
HETATM    4  C1  UNL     1      49.925  55.247  67.419  1.00  0.00     0.167 C 
ENDROOT
BRANCH   4   5
HETATM    5  N2  UNL     1      49.717  56.633  67.213  1.00  0.00    -0.170 N 
ATOM      6  H2  UNL     1      48.887  56.977  66.731  1.00  0.00     0.186 HD
BRANCH   5   7
HETATM    7  C2  UNL     1      50.632  57.457  67.666  1.00  0.00     0.715 A 
HETATM    8  N3  UNL     1      51.944  57.447  67.376  1.00  0.00    -0.115 N 
HETATM    9  N4  UNL     1      52.518  58.433  68.030  1.00  0.00    -0.213 N 
ATOM     10  H3  UNL     1      52.414  56.788  66.755  1.00  0.00     0.207 HD
HETATM   11  N5  UNL     1      51.605  59.077  68.735  1.00  0.00    -0.213 N 
ATOM     12  H4  UNL     1      53.511  58.664  67.997  1.00  0.00     0.210 HD
HETATM   13  N6  UNL     1      50.448  58.482  68.515  1.00  0.00    -0.115 N 
ATOM     14  H5  UNL     1      51.764  59.885  69.338  1.00  0.00     0.210 HD
ATOM     15  H6  UNL     1      49.555  58.758  68.924  1.00  0.00     0.207 HD
ENDBRANCH   5   7
ENDBRANCH   4   5
BRANCH   4  16
HETATM   16  C3  UNL     1      50.741  54.464  66.516  1.00  0.00     0.244 C 
HETATM   17  O1  UNL     1      50.521  54.542  65.283  1.00  0.00    -0.282 OA
BRANCH  16  18
HETATM   18  C4  UNL     1      51.816  53.584  67.019  1.00  0.00     0.116 A 
HETATM   19  C5  UNL     1      51.702  52.279  67.428  1.00  0.00     0.139 A 
HETATM   20  N7  UNL     1      52.929  51.855  67.810  1.00  0.00    -0.293 N 
HETATM   21  N8  UNL     1      53.765  52.877  67.638  1.00  0.00    -0.022 NA
ATOM     22  H7  UNL     1      53.168  50.929  68.164  1.00  0.00     0.183 HD
HETATM   23  N9  UNL     1      53.106  53.928  67.160  1.00  0.00    -0.279 N 
ATOM     24  H9  UNL     1      53.511  54.837  66.938  1.00  0.00     0.184 HD
ENDBRANCH  16  18
ENDBRANCH   4  16
TORSDOF 4
ENDMDL
MODEL 2
REMARK VINA RESULT: -4.854682071      2.541      4.002
REMARK  4 active torsions:
REMARK  status: ('A' for Active; 'I' for Inactive)
REMARK    1  A    between atoms: C1_4  and  N2_5 
REMARK    2  A    between atoms: C1_4  and  C3_16 
REMARK    3  A    between atoms: N2_5  and  C2_7 
REMARK    4  A    between atoms: C3_16  and  C4_18 
ROOT
HETATM    1  N1  UNL     1      52.586  58.828  68.311  1.00  0.00    -0.382 N 
ATOM      2  H11 UNL     1      53.341  58.448  67.740  1.00  0.00     0.157 HD
ATOM      3  H12 UNL     1      52.751  59.580  68.980  1.00  0.00     0.157 HD
HETATM    4  C1  UNL     1      51.410  58.334  68.170  1.00  0.00     0.167 C 
ENDROOT
BRANCH   4   5
HETATM    5  N2  UNL     1      50.362  58.861  68.963  1.00  0.00    -0.170 N 
ATOM      6  H2  UNL     1      49.545  58.299  69.202  1.00  0.00     0.186 HD
BRANCH   5   7
HETATM    7  C2  UNL     1      50.481  60.100  69.378  1.00  0.00     0.715 A 
HETATM    8  N3  UNL     1      50.773  60.511  70.624  1.00  0.00    -0.115 N 
HETATM    9  N4  UNL     1      50.800  61.826  70.628  1.00  0.00    -0.213 N 
ATOM     10  H3  UNL     1      50.945  59.908  71.427  1.00  0.00     0.207 HD
HETATM   11  N5  UNL     1      50.530  62.271  69.413  1.00  0.00    -0.213 N 
ATOM     12  H4  UNL     1      50.997  62.410  71.440  1.00  0.00     0.210 HD
HETATM   13  N6  UNL     1      50.335  61.217  68.645  1.00  0.00    -0.115 N 
ATOM     14  H5  UNL     1      50.482  63.248  69.123  1.00  0.00     0.210 HD
ATOM     15  H6  UNL     1      50.108  61.245  67.650  1.00  0.00     0.207 HD
ENDBRANCH   5   7
ENDBRANCH   4   5
BRANCH   4  16
HETATM   16  C3  UNL     1      51.176  57.266  67.221  1.00  0.00     0.244 C 
HETATM   17  O1  UNL     1      51.878  57.219  66.182  1.00  0.00    -0.282 OA
BRANCH  16  18
HETATM   18  C4  UNL     1      50.134  56.246  67.455  1.00  0.00     0.116 A 
HETATM   19  C5  UNL     1      50.304  54.983  67.965  1.00  0.00     0.139 A 
HETATM   20  N7  UNL     1      49.090  54.387  68.010  1.00  0.00    -0.293 N 
HETATM   21  N8  UNL     1      48.207  55.266  67.540  1.00  0.00    -0.022 NA
ATOM     22  H7  UNL     1      48.889  53.444  68.342  1.00  0.00     0.183 HD
HETATM   23  N9  UNL     1      48.824  56.394  67.201  1.00  0.00    -0.279 N 
ATOM     24  H9  UNL     1      48.379  57.226  66.815  1.00  0.00     0.184 HD
ENDBRANCH  16  18
ENDBRANCH   4  16
TORSDOF 4
ENDMDL
MODEL 3
REMARK VINA RESULT: -4.825048278      3.054      6.008
REMARK  4 active torsions:
REMARK  status: ('A' for Active; 'I' for Inactive)
REMARK    1  A    between atoms: C1_4  and  N2_5 
REMARK    2  A    between atoms: C1_4  and  C3_16 
REMARK    3  A    between atoms: N2_5  and  C2_7 
REMARK    4  A    between atoms: C3_16  and  C4_18 
ROOT
HETATM    1  N1  UNL     1      52.231  58.212  68.265  1.00  0.00    -0.382 N 
ATOM      2  H11 UNL     1      52.870  58.767  68.834  1.00  0.00     0.157 HD
ATOM      3  H12 UNL     1      52.549  57.386  67.759  1.00  0.00     0.157 HD
HETATM    4  C1  UNL     1      51.003  58.579  68.197  1.00  0.00     0.167 C 
ENDROOT
BRANCH   4   5
HETATM    5  N2  UNL     1      50.116  57.808  67.407  1.00  0.00    -0.170 N 
ATOM      6  H2  UNL     1      49.607  58.222  66.626  1.00  0.00     0.186 HD
BRANCH   5   7
HETATM    7  C2  UNL     1      49.973  56.542  67.716  1.00  0.00     0.715 A 
HETATM    8  N3  UNL     1      50.785  55.528  67.368  1.00  0.00    -0.115 N 
HETATM    9  N4  UNL     1      50.296  54.417  67.875  1.00  0.00    -0.213 N 
ATOM     10  H3  UNL     1      51.633  55.606  66.808  1.00  0.00     0.207 HD
HETATM   11  N5  UNL     1      49.188  54.692  68.541  1.00  0.00    -0.213 N 
ATOM     12  H4  UNL     1      50.707  53.489  67.771  1.00  0.00     0.210 HD
HETATM   13  N6  UNL     1      48.988  55.993  68.446  1.00  0.00    -0.115 N 
ATOM     14  H5  UNL     1      48.597  54.024  69.036  1.00  0.00     0.210 HD
ATOM     15  H6  UNL     1      48.207  56.502  68.862  1.00  0.00     0.207 HD
ENDBRANCH   5   7
ENDBRANCH   4   5
BRANCH   4  16
HETATM   16  C3  UNL     1      50.550  59.752  68.915  1.00  0.00     0.244 C 
HETATM   17  O1  UNL     1      50.388  60.822  68.280  1.00  0.00    -0.282 OA
BRANCH  16  18
HETATM   18  C4  UNL     1      50.281  59.707  70.367  1.00  0.00     0.116 A 
HETATM   19  C5  UNL     1      51.097  60.145  71.380  1.00  0.00     0.139 A 
HETATM   20  N7  UNL     1      50.462  59.913  72.553  1.00  0.00    -0.293 N 
HETATM   21  N8  UNL     1      49.292  59.350  72.258  1.00  0.00    -0.022 NA
ATOM     22  H7  UNL     1      50.814  60.130  73.485  1.00  0.00     0.183 HD
HETATM   23  N9  UNL     1      49.169  59.220  70.941  1.00  0.00    -0.279 N 
ATOM     24  H9  UNL     1      48.369  58.819  70.452  1.00  0.00     0.184 HD
ENDBRANCH  16  18
ENDBRANCH   4  16
TORSDOF 4
ENDMDL
MODEL 4
REMARK VINA RESULT: -4.801264830      1.421      1.717
REMARK  4 active torsions:
REMARK  status: ('A' for Active; 'I' for Inactive)
REMARK    1  A    between atoms: C1_4  and  N2_5 
REMARK    2  A    between atoms: C1_4  and  C3_16 
REMARK    3  A    between atoms: N2_5  and  C2_7 
REMARK    4  A    between atoms: C3_16  and  C4_18 
ROOT
HETATM    1  N1  UNL     1      48.537  55.747  68.750  1.00  0.00    -0.382 N 
ATOM      2  H11 UNL     1      48.294  54.898  69.262  1.00  0.00     0.157 HD
ATOM      3  H12 UNL     1      48.036  56.622  68.900  1.00  0.00     0.157 HD
HETATM    4  C1  UNL     1      49.499  55.690  67.903  1.00  0.00     0.167 C 
ENDROOT
BRANCH   4   5
HETATM    5  N2  UNL     1      49.838  56.867  67.193  1.00  0.00    -0.170 N 
ATOM      6  H2  UNL     1      49.433  57.069  66.279  1.00  0.00     0.186 HD
BRANCH   5   7
HETATM    7  C2  UNL     1      50.692  57.690  67.755  1.00  0.00     0.715 A 
HETATM    8  N3  UNL     1      52.019  57.743  67.549  1.00  0.00    -0.115 N 
HETATM    9  N4  UNL     1      52.514  58.702  68.299  1.00  0.00    -0.213 N 
ATOM     10  H3  UNL     1      52.550  57.142  66.919  1.00  0.00     0.207 HD
HETATM   11  N5  UNL     1      51.536  59.268  68.986  1.00  0.00    -0.213 N 
ATOM     12  H4  UNL     1      53.498  58.968  68.345  1.00  0.00     0.210 HD
HETATM   13  N6  UNL     1      50.418  58.650  68.654  1.00  0.00    -0.115 N 
ATOM     14  H5  UNL     1      51.628  60.038  69.648  1.00  0.00     0.210 HD
ATOM     15  H6  UNL     1      49.492  58.868  69.022  1.00  0.00     0.207 HD
ENDBRANCH   5   7
ENDBRANCH   4   5
BRANCH   4  16
HETATM   16  C3  UNL     1      50.212  54.448  67.690  1.00  0.00     0.244 C 
HETATM   17  O1  UNL     1      49.832  53.422  68.304  1.00  0.00    -0.282 OA
BRANCH  16  18
HETATM   18  C4  UNL     1      51.367  54.373  66.772  1.00  0.00     0.116 A 
HETATM   19  C5  UNL     1      51.344  54.397  65.400  1.00  0.00     0.139 A 
HETATM   20  N7  UNL     1      52.621  54.306  64.962  1.00  0.00    -0.293 N 
HETATM   21  N8  UNL     1      53.398  54.229  66.040  1.00  0.00    -0.022 NA
ATOM     22  H7  UNL     1      52.930  54.298  63.990  1.00  0.00     0.183 HD
HETATM   23  N9  UNL     1      52.654  54.269  67.141  1.00  0.00    -0.279 N 
ATOM     24  H9  UNL     1      53.000  54.227  68.099  1.00  0.00     0.184 HD
ENDBRANCH  16  18
ENDBRANCH   4  16
TORSDOF 4
ENDMDL
MODEL 5
REMARK VINA RESULT: -4.750772888      2.613      4.757
REMARK  4 active torsions:
REMARK  status: ('A' for Active; 'I' for Inactive)
REMARK    1  A    between atoms: C1_4  and  N2_5 
REMARK    2  A    between atoms: C1_4  and  C3_16 
REMARK    3  A    between atoms: N2_5  and  C2_7 
REMARK    4  A    between atoms: C3_16  and  C4_18 
ROOT
HETATM    1  N1  UNL     1      53.572  56.503  67.361  1.00  0.00    -0.382 N 
ATOM      2  H11 UNL     1      53.527  56.563  68.378  1.00  0.00     0.157 HD
ATOM      3  H12 UNL     1      54.434  56.245  66.880  1.00  0.00     0.157 HD
HETATM    4  C1  UNL     1      52.510  56.763  66.690  1.00  0.00     0.167 C 
ENDROOT
BRANCH   4   5
HETATM    5  N2  UNL     1      52.573  56.679  65.278  1.00  0.00    -0.170 N 
ATOM      6  H2  UNL     1      52.388  57.492  64.690  1.00  0.00     0.186 HD
BRANCH   5   7
HETATM    7  C2  UNL     1      52.877  55.516  64.752  1.00  0.00     0.715 A 
HETATM    8  N3  UNL     1      53.904  55.245  63.928  1.00  0.00    -0.115 N 
HETATM    9  N4  UNL     1      53.863  53.966  63.627  1.00  0.00    -0.213 N 
ATOM     10  H3  UNL     1      54.595  55.917  63.593  1.00  0.00     0.207 HD
HETATM   11  N5  UNL     1      52.834  53.406  64.238  1.00  0.00    -0.213 N 
ATOM     12  H4  UNL     1      54.523  53.481  63.018  1.00  0.00     0.210 HD
HETATM   13  N6  UNL     1      52.228  54.353  64.929  1.00  0.00    -0.115 N 
ATOM     14  H5  UNL     1      52.558  52.426  64.186  1.00  0.00     0.210 HD
ATOM     15  H6  UNL     1      51.397  54.222  65.507  1.00  0.00     0.207 HD
ENDBRANCH   5   7
ENDBRANCH   4   5
BRANCH   4  16
HETATM   16  C3  UNL     1      51.286  57.129  67.371  1.00  0.00     0.244 C 
HETATM   17  O1  UNL     1      51.174  58.295  67.822  1.00  0.00    -0.282 OA
BRANCH  16  18
HETATM   18  C4  UNL     1      50.183  56.162  67.542  1.00  0.00     0.116 A 
HETATM   19  C5  UNL     1      50.270  54.871  67.998  1.00  0.00     0.139 A 
HETATM   20  N7  UNL     1      49.023  54.345  67.997  1.00  0.00    -0.293 N 
HETATM   21  N8  UNL     1      48.201  55.293  67.552  1.00  0.00    -0.022 NA
ATOM     22  H7  UNL     1      48.762  53.402  68.283  1.00  0.00     0.183 HD
HETATM   23  N9  UNL     1      48.889  56.397  67.273  1.00  0.00    -0.279 N 
ATOM     24  H9  UNL     1      48.500  57.270  66.918  1.00  0.00     0.184 HD
ENDBRANCH  16  18
ENDBRANCH   4  16
TORSDOF 4
ENDMDL
