MODEL 1
REMARK VINA RESULT: -4.686359835      0.000      0.000
REMARK  2 active torsions:
REMARK  status: ('A' for Active; 'I' for Inactive)
REMARK       I    between atoms: N1_1  and  C1_5 
REMARK       I    between atoms: C1_5  and  N2_6 
REMARK       I    between atoms: C1_5  and  N3_10 
REMARK    1  A    between atoms: N3_10  and  C2_12 
REMARK    2  A    between atoms: C4_21  and  N7_22 
ROOT
HETATM    1  C2  UNL     1      50.954  54.527  67.224  1.00  0.00     0.160 A 
HETATM    2  N4  UNL     1      51.037  53.236  67.592  1.00  0.00    -0.290 N 
ATOM      3  H4  UNL     1      50.187  52.695  67.748  1.00  0.00     0.172 HD
HETATM    4  C3  UNL     1      52.242  52.656  67.756  1.00  0.00     0.340 A 
HETATM    5  O1  UNL     1      52.249  51.447  68.100  1.00  0.00    -0.245 OA
HETATM    6  N5  UNL     1      53.408  53.298  67.572  1.00  0.00    -0.249 N 
ATOM      7  H5  UNL     1      54.302  52.826  67.706  1.00  0.00     0.192 HD
HETATM    8  N6  UNL     1      53.345  54.568  67.210  1.00  0.00    -0.274 N 
ATOM      9  H6  UNL     1      54.212  55.085  67.060  1.00  0.00     0.189 HD
HETATM   10  C4  UNL     1      52.169  55.195  67.033  1.00  0.00     0.232 A 
ENDROOT
BRANCH   1  11
HETATM   11  N3  UNL     1      49.848  55.157  67.047  1.00  0.00    -0.324 N 
HETATM   12  C1  UNL     1      48.993  55.496  68.163  1.00  0.00     0.481 C 
HETATM   13  N1  UNL     1      49.568  56.586  68.942  1.00  0.00    -0.033 N 
HETATM   14  N2  UNL     1      47.675  55.840  67.667  1.00  0.00    -0.033 N 
ATOM     15  H13 UNL     1      49.583  57.457  68.413  1.00  0.00     0.278 HD
ATOM     16  H12 UNL     1      48.947  56.873  69.699  1.00  0.00     0.278 HD
ATOM     17  H11 UNL     1      50.495  56.344  69.290  1.00  0.00     0.278 HD
ATOM     18  H23 UNL     1      47.054  56.127  68.424  1.00  0.00     0.278 HD
ATOM     19  H22 UNL     1      47.690  56.712  67.138  1.00  0.00     0.278 HD
ATOM     20  H21 UNL     1      47.273  55.078  67.122  1.00  0.00     0.278 HD
ATOM     21  H3  UNL     1      49.568  55.423  66.103  1.00  0.00     0.165 HD
ENDBRANCH   1  11
BRANCH  10  22
HETATM   22  N7  UNL     1      52.089  56.567  66.643  1.00  0.00    -0.092 N 
HETATM   23  O2  UNL     1      52.160  56.853  65.433  1.00  0.00    -0.530 OA
HETATM   24  O3  UNL     1      51.937  57.598  67.535  1.00  0.00    -0.530 OA
ENDBRANCH  10  22
TORSDOF 2
ENDMDL
MODEL 2
REMARK VINA RESULT: -4.661745873      2.140      4.671
REMARK  2 active torsions:
REMARK  status: ('A' for Active; 'I' for Inactive)
REMARK       I    between atoms: N1_1  and  C1_5 
REMARK       I    between atoms: C1_5  and  N2_6 
REMARK       I    between atoms: C1_5  and  N3_10 
REMARK    1  A    between atoms: N3_10  and  C2_12 
REMARK    2  A    between atoms: C4_21  and  N7_22 
ROOT
HETATM    1  C2  UNL     1      51.319  56.040  67.097  1.00  0.00     0.160 A 
HETATM    2  N4  UNL     1      52.123  57.118  67.112  1.00  0.00    -0.290 N 
ATOM      3  H4  UNL     1      52.945  57.149  66.508  1.00  0.00     0.172 HD
HETATM    4  C3  UNL     1      51.844  58.158  67.921  1.00  0.00     0.340 A 
HETATM    5  O1  UNL     1      52.635  59.134  67.885  1.00  0.00    -0.245 OA
HETATM    6  N5  UNL     1      50.783  58.196  68.744  1.00  0.00    -0.249 N 
ATOM      7  H5  UNL     1      50.604  59.002  69.344  1.00  0.00     0.192 HD
HETATM    8  N6  UNL     1      49.982  57.145  68.743  1.00  0.00    -0.274 N 
ATOM      9  H6  UNL     1      49.167  57.141  69.356  1.00  0.00     0.189 HD
HETATM   10  C4  UNL     1      50.215  56.081  67.955  1.00  0.00     0.232 A 
ENDROOT
BRANCH   1  11
HETATM   11  N3  UNL     1      51.512  55.006  66.358  1.00  0.00    -0.324 N 
HETATM   12  C1  UNL     1      52.755  54.270  66.411  1.00  0.00     0.481 C 
HETATM   13  N1  UNL     1      52.843  53.491  67.640  1.00  0.00    -0.033 N 
HETATM   14  N2  UNL     1      52.858  53.421  65.240  1.00  0.00    -0.033 N 
ATOM     15  H13 UNL     1      52.151  52.743  67.659  1.00  0.00     0.278 HD
ATOM     16  H12 UNL     1      53.690  52.923  67.663  1.00  0.00     0.278 HD
ATOM     17  H11 UNL     1      52.771  54.088  68.463  1.00  0.00     0.278 HD
ATOM     18  H23 UNL     1      53.704  52.852  65.264  1.00  0.00     0.278 HD
ATOM     19  H22 UNL     1      52.165  52.672  65.259  1.00  0.00     0.278 HD
ATOM     20  H21 UNL     1      52.796  53.966  64.381  1.00  0.00     0.278 HD
ATOM     21  H3  UNL     1      50.776  54.700  65.722  1.00  0.00     0.165 HD
ENDBRANCH   1  11
BRANCH  10  22
HETATM   22  N7  UNL     1      49.358  54.938  67.947  1.00  0.00    -0.092 N 
HETATM   23  O2  UNL     1      48.168  55.082  67.606  1.00  0.00    -0.530 OA
HETATM   24  O3  UNL     1      49.773  53.678  68.295  1.00  0.00    -0.530 OA
ENDBRANCH  10  22
TORSDOF 2
ENDMDL
MODEL 3
REMARK VINA RESULT: -4.517075012      2.001      3.929
REMARK  2 active torsions:
REMARK  status: ('A' for Active; 'I' for Inactive)
REMARK       I    between atoms: N1_1  and  C1_5 
REMARK       I    between atoms: C1_5  and  N2_6 
REMARK       I    between atoms: C1_5  and  N3_10 
REMARK    1  A    between atoms: N3_10  and  C2_12 
REMARK    2  A    between atoms: C4_21  and  N7_22 
ROOT
HETATM    1  C2  UNL     1      51.423  54.719  67.576  1.00  0.00     0.160 A 
HETATM    2  N4  UNL     1      50.106  54.493  67.725  1.00  0.00    -0.290 N 
ATOM      3  H4  UNL     1      49.772  53.555  67.947  1.00  0.00     0.172 HD
HETATM    4  C3  UNL     1      49.226  55.503  67.582  1.00  0.00     0.340 A 
HETATM    5  O1  UNL     1      48.010  55.224  67.736  1.00  0.00    -0.245 OA
HETATM    6  N5  UNL     1      49.583  56.765  67.290  1.00  0.00    -0.249 N 
ATOM      7  H5  UNL     1      48.888  57.505  67.189  1.00  0.00     0.192 HD
HETATM    8  N6  UNL     1      50.874  57.006  67.140  1.00  0.00    -0.274 N 
ATOM      9  H6  UNL     1      51.181  57.953  66.919  1.00  0.00     0.189 HD
HETATM   10  C4  UNL     1      51.794  56.034  67.272  1.00  0.00     0.232 A 
ENDROOT
BRANCH   1  11
HETATM   11  N3  UNL     1      52.328  53.814  67.694  1.00  0.00    -0.324 N 
HETATM   12  C1  UNL     1      52.453  52.750  66.724  1.00  0.00     0.481 C 
HETATM   13  N1  UNL     1      53.019  53.250  65.477  1.00  0.00    -0.033 N 
HETATM   14  N2  UNL     1      53.265  51.687  67.282  1.00  0.00    -0.033 N 
ATOM     15  H13 UNL     1      53.988  53.543  65.597  1.00  0.00     0.278 HD
ATOM     16  H12 UNL     1      53.165  52.497  64.804  1.00  0.00     0.278 HD
ATOM     17  H11 UNL     1      52.448  53.998  65.084  1.00  0.00     0.278 HD
ATOM     18  H23 UNL     1      53.411  50.935  66.609  1.00  0.00     0.278 HD
ATOM     19  H22 UNL     1      54.234  51.980  67.403  1.00  0.00     0.278 HD
ATOM     20  H21 UNL     1      52.869  51.337  68.154  1.00  0.00     0.278 HD
ATOM     21  H3  UNL     1      52.970  53.848  68.486  1.00  0.00     0.165 HD
ENDBRANCH   1  11
BRANCH  10  22
HETATM   22  N7  UNL     1      53.192  56.281  67.110  1.00  0.00    -0.092 N 
HETATM   23  O2  UNL     1      53.677  56.254  65.963  1.00  0.00    -0.530 OA
HETATM   24  O3  UNL     1      54.038  56.549  68.155  1.00  0.00    -0.530 OA
ENDBRANCH  10  22
TORSDOF 2
ENDMDL
MODEL 4
REMARK VINA RESULT: -4.498431200      2.539      3.323
REMARK  2 active torsions:
REMARK  status: ('A' for Active; 'I' for Inactive)
REMARK       I    between atoms: N1_1  and  C1_5 
REMARK       I    between atoms: C1_5  and  N2_6 
REMARK       I    between atoms: C1_5  and  N3_10 
REMARK    1  A    between atoms: N3_10  and  C2_12 
REMARK    2  A    between atoms: C4_21  and  N7_22 
ROOT
HETATM    1  C2  UNL     1      50.837  55.935  67.748  1.00  0.00     0.160 A 
HETATM    2  N4  UNL     1      52.089  55.537  67.460  1.00  0.00    -0.290 N 
ATOM      3  H4  UNL     1      52.811  56.230  67.263  1.00  0.00     0.172 HD
HETATM    4  C3  UNL     1      52.391  54.225  67.430  1.00  0.00     0.340 A 
HETATM    5  O1  UNL     1      53.579  53.921  67.154  1.00  0.00    -0.245 OA
HETATM    6  N5  UNL     1      51.499  53.250  67.676  1.00  0.00    -0.249 N 
ATOM      7  H5  UNL     1      51.765  52.266  67.644  1.00  0.00     0.192 HD
HETATM    8  N6  UNL     1      50.264  53.623  67.962  1.00  0.00    -0.274 N 
ATOM      9  H6  UNL     1      49.562  52.909  68.155  1.00  0.00     0.189 HD
HETATM   10  C4  UNL     1      49.909  54.919  68.005  1.00  0.00     0.232 A 
ENDROOT
BRANCH   1  11
HETATM   11  N3  UNL     1      50.464  57.164  67.797  1.00  0.00    -0.324 N 
HETATM   12  C1  UNL     1      51.144  58.119  68.643  1.00  0.00     0.481 C 
HETATM   13  N1  UNL     1      52.447  58.465  68.088  1.00  0.00    -0.033 N 
HETATM   14  N2  UNL     1      50.311  59.294  68.803  1.00  0.00    -0.033 N 
ATOM     15  H13 UNL     1      52.356  58.981  67.213  1.00  0.00     0.278 HD
ATOM     16  H12 UNL     1      52.913  59.181  68.645  1.00  0.00     0.278 HD
ATOM     17  H11 UNL     1      53.034  57.638  67.975  1.00  0.00     0.278 HD
ATOM     18  H23 UNL     1      50.777  60.010  69.361  1.00  0.00     0.278 HD
ATOM     19  H22 UNL     1      50.220  59.810  67.928  1.00  0.00     0.278 HD
ATOM     20  H21 UNL     1      49.400  59.052  69.191  1.00  0.00     0.278 HD
ATOM     21  H3  UNL     1      49.674  57.471  67.229  1.00  0.00     0.165 HD
ENDBRANCH   1  11
BRANCH  10  22
HETATM   22  N7  UNL     1      48.577  55.334  68.310  1.00  0.00    -0.092 N 
HETATM   23  O2  UNL     1      47.778  55.527  67.374  1.00  0.00    -0.530 OA
HETATM   24  O3  UNL     1      48.122  55.534  69.589  1.00  0.00    -0.530 OA
ENDBRANCH  10  22
TORSDOF 2
ENDMDL
MODEL 5
REMARK VINA RESULT: -4.468786388      5.548      7.211
REMARK  2 active torsions:
REMARK  status: ('A' for Active; 'I' for Inactive)
REMARK       I    between atoms: N1_1  and  C1_5 
REMARK       I    between atoms: C1_5  and  N2_6 
REMARK       I    between atoms: C1_5  and  N3_10 
REMARK    1  A    between atoms: N3_10  and  C2_12 
REMARK    2  A    between atoms: C4_21  and  N7_22 
ROOT
HETATM    1  C2  UNL     1      51.444  60.287  71.173  1.00  0.00     0.160 A 
HETATM    2  N4  UNL     1      51.204  60.109  72.484  1.00  0.00    -0.290 N 
ATOM      3  H4  UNL     1      51.882  60.433  73.174  1.00  0.00     0.172 HD
HETATM    4  C3  UNL     1      50.071  59.503  72.888  1.00  0.00     0.340 A 
HETATM    5  O1  UNL     1      49.909  59.368  74.127  1.00  0.00    -0.245 OA
HETATM    6  N5  UNL     1      49.130  59.047  72.044  1.00  0.00    -0.249 N 
ATOM      7  H5  UNL     1      48.284  58.593  72.387  1.00  0.00     0.192 HD
HETATM    8  N6  UNL     1      49.349  59.215  70.752  1.00  0.00    -0.274 N 
ATOM      9  H6  UNL     1      48.653  58.882  70.083  1.00  0.00     0.189 HD
HETATM   10  C4  UNL     1      50.463  59.813  70.295  1.00  0.00     0.232 A 
ENDROOT
BRANCH   1  11
HETATM   11  N3  UNL     1      52.497  60.854  70.703  1.00  0.00    -0.324 N 
HETATM   12  C1  UNL     1      53.802  60.248  70.850  1.00  0.00     0.481 C 
HETATM   13  N1  UNL     1      53.941  59.099  69.964  1.00  0.00    -0.033 N 
HETATM   14  N2  UNL     1      54.823  61.243  70.588  1.00  0.00    -0.033 N 
ATOM     15  H13 UNL     1      53.946  59.381  68.983  1.00  0.00     0.278 HD
ATOM     16  H12 UNL     1      54.877  58.697  70.016  1.00  0.00     0.278 HD
ATOM     17  H11 UNL     1      53.222  58.399  70.148  1.00  0.00     0.278 HD
ATOM     18  H23 UNL     1      55.759  60.840  70.640  1.00  0.00     0.278 HD
ATOM     19  H22 UNL     1      54.828  61.524  69.608  1.00  0.00     0.278 HD
ATOM     20  H21 UNL     1      54.725  62.046  71.208  1.00  0.00     0.278 HD
ATOM     21  H3  UNL     1      52.412  61.747  70.217  1.00  0.00     0.165 HD
ENDBRANCH   1  11
BRANCH  10  22
HETATM   22  N7  UNL     1      50.711  59.998  68.901  1.00  0.00    -0.092 N 
HETATM   23  O2  UNL     1      51.266  59.083  68.263  1.00  0.00    -0.530 OA
HETATM   24  O3  UNL     1      50.370  61.136  68.216  1.00  0.00    -0.530 OA
ENDBRANCH  10  22
TORSDOF 2
ENDMDL
