MODEL 1
REMARK VINA RESULT: -4.862731809      0.000      0.000
REMARK  3 active torsions:
REMARK  status: ('A' for Active; 'I' for Inactive)
REMARK    1  A    between atoms: N1_1  and  N2_4 
REMARK       I    between atoms: N2_4  and  C1_6 
REMARK    2  A    between atoms: C1_6  and  C2_8 
REMARK    3  A    between atoms: C4_12  and  C5_13 
ROOT
HETATM    1  C2  UNL     1      51.112  57.955  68.334  1.00  0.00     0.177 A 
HETATM    2  N3  UNL     1      52.331  57.532  67.893  1.00  0.00    -0.347 N 
ATOM      3  H3  UNL     1      53.123  58.168  67.983  1.00  0.00     0.167 HD
HETATM    4  C3  UNL     1      52.548  56.328  67.348  1.00  0.00     0.110 A 
HETATM    5  C4  UNL     1      51.457  55.486  67.237  1.00  0.00     0.085 A 
HETATM    6  C6  UNL     1      50.187  55.869  67.674  1.00  0.00     0.134 A 
HETATM    7  N5  UNL     1      49.075  54.999  67.558  1.00  0.00    -0.082 NA
HETATM    8  N6  UNL     1      50.087  57.099  68.205  1.00  0.00    -0.325 N 
ATOM      9  H6  UNL     1      49.169  57.402  68.531  1.00  0.00     0.169 HD
ENDROOT
BRANCH   1  10
HETATM   10  C1  UNL     1      50.955  59.282  68.917  1.00  0.00     0.303 C 
HETATM   11  N2  UNL     1      50.151  59.468  70.055  1.00  0.00    -0.270 N 
ATOM     12  H2  UNL     1      49.677  58.666  70.470  1.00  0.00     0.189 HD
HETATM   13  O1  UNL     1      51.540  60.256  68.402  1.00  0.00    -0.263 OA
BRANCH  11  14
HETATM   14  N1  UNL     1      49.991  60.720  70.621  1.00  0.00    -0.342 N 
ATOM     15  H12 UNL     1      50.089  60.812  71.632  1.00  0.00     0.176 HD
ATOM     16  H11 UNL     1      49.780  61.536  70.046  1.00  0.00     0.176 HD
ENDBRANCH  11  14
ENDBRANCH   1  10
BRANCH   5  17
HETATM   17  C5  UNL     1      51.606  54.167  66.659  1.00  0.00     0.269 C 
HETATM   18  N4  UNL     1      51.701  53.014  67.482  1.00  0.00    -0.057 NA
HETATM   19  O2  UNL     1      51.654  54.003  65.421  1.00  0.00    -0.271 OA
ENDBRANCH   5  17
TORSDOF 3
ENDMDL
MODEL 2
REMARK VINA RESULT: -4.805562431      1.201      1.201
REMARK  3 active torsions:
REMARK  status: ('A' for Active; 'I' for Inactive)
REMARK    1  A    between atoms: N1_1  and  N2_4 
REMARK       I    between atoms: N2_4  and  C1_6 
REMARK    2  A    between atoms: C1_6  and  C2_8 
REMARK    3  A    between atoms: C4_12  and  C5_13 
ROOT
HETATM    1  C2  UNL     1      51.087  58.066  68.528  1.00  0.00     0.177 A 
HETATM    2  N3  UNL     1      52.243  57.688  67.909  1.00  0.00    -0.347 N 
ATOM      3  H3  UNL     1      53.051  58.305  67.981  1.00  0.00     0.167 HD
HETATM    4  C3  UNL     1      52.375  56.553  67.212  1.00  0.00     0.110 A 
HETATM    5  C4  UNL     1      51.264  55.735  67.128  1.00  0.00     0.085 A 
HETATM    6  C6  UNL     1      50.057  56.075  67.744  1.00  0.00     0.134 A 
HETATM    7  N5  UNL     1      48.923  55.230  67.654  1.00  0.00    -0.082 NA
HETATM    8  N6  UNL     1      50.038  57.236  68.417  1.00  0.00    -0.325 N 
ATOM      9  H6  UNL     1      49.168  57.506  68.876  1.00  0.00     0.169 HD
ENDROOT
BRANCH   1  10
HETATM   10  C1  UNL     1      51.020  59.319  69.270  1.00  0.00     0.303 C 
HETATM   11  N2  UNL     1      50.119  60.326  68.883  1.00  0.00    -0.270 N 
ATOM     12  H2  UNL     1      49.512  60.174  68.077  1.00  0.00     0.189 HD
HETATM   13  O1  UNL     1      51.766  59.495  70.253  1.00  0.00    -0.263 OA
BRANCH  11  14
HETATM   14  N1  UNL     1      50.041  61.521  69.575  1.00  0.00    -0.342 N 
ATOM     15  H12 UNL     1      49.950  61.489  70.591  1.00  0.00     0.176 HD
ATOM     16  H11 UNL     1      50.075  62.416  69.088  1.00  0.00     0.176 HD
ENDBRANCH  11  14
ENDBRANCH   1  10
BRANCH   5  17
HETATM   17  C5  UNL     1      51.324  54.490  66.392  1.00  0.00     0.269 C 
HETATM   18  N4  UNL     1      51.104  54.458  64.991  1.00  0.00    -0.057 NA
HETATM   19  O2  UNL     1      51.571  53.408  66.968  1.00  0.00    -0.271 OA
ENDBRANCH   5  17
TORSDOF 3
ENDMDL
MODEL 3
REMARK VINA RESULT: -4.681099060      3.163      6.182
REMARK  3 active torsions:
REMARK  status: ('A' for Active; 'I' for Inactive)
REMARK    1  A    between atoms: N1_1  and  N2_4 
REMARK       I    between atoms: N2_4  and  C1_6 
REMARK    2  A    between atoms: C1_6  and  C2_8 
REMARK    3  A    between atoms: C4_12  and  C5_13 
ROOT
HETATM    1  C2  UNL     1      52.407  53.066  66.691  1.00  0.00     0.177 A 
HETATM    2  N3  UNL     1      51.529  52.601  67.626  1.00  0.00    -0.347 N 
ATOM      3  H3  UNL     1      51.657  51.652  67.976  1.00  0.00     0.167 HD
HETATM    4  C3  UNL     1      50.510  53.321  68.110  1.00  0.00     0.110 A 
HETATM    5  C4  UNL     1      50.359  54.604  67.618  1.00  0.00     0.085 A 
HETATM    6  C6  UNL     1      51.230  55.129  66.661  1.00  0.00     0.134 A 
HETATM    7  N5  UNL     1      51.069  56.445  66.162  1.00  0.00    -0.082 NA
HETATM    8  N6  UNL     1      52.217  54.318  66.247  1.00  0.00    -0.325 N 
ATOM      9  H6  UNL     1      52.866  54.678  65.547  1.00  0.00     0.169 HD
ENDROOT
BRANCH   1  10
HETATM   10  C1  UNL     1      53.494  52.221  66.211  1.00  0.00     0.303 C 
HETATM   11  N2  UNL     1      53.661  50.920  66.719  1.00  0.00    -0.270 N 
ATOM     12  H2  UNL     1      53.015  50.573  67.428  1.00  0.00     0.189 HD
HETATM   13  O1  UNL     1      54.277  52.655  65.344  1.00  0.00    -0.263 OA
BRANCH  11  14
HETATM   14  N1  UNL     1      54.685  50.105  66.275  1.00  0.00    -0.342 N 
ATOM     15  H12 UNL     1      55.629  50.489  66.236  1.00  0.00     0.176 HD
ATOM     16  H11 UNL     1      54.508  49.141  65.993  1.00  0.00     0.176 HD
ENDBRANCH  11  14
ENDBRANCH   1  10
BRANCH   5  17
HETATM   17  C5  UNL     1      49.282  55.448  68.090  1.00  0.00     0.269 C 
HETATM   18  N4  UNL     1      47.956  55.274  67.616  1.00  0.00    -0.057 NA
HETATM   19  O2  UNL     1      49.486  56.352  68.929  1.00  0.00    -0.271 OA
ENDBRANCH   5  17
TORSDOF 3
ENDMDL
MODEL 4
REMARK VINA RESULT: -4.666058269      2.426      6.036
REMARK  3 active torsions:
REMARK  status: ('A' for Active; 'I' for Inactive)
REMARK    1  A    between atoms: N1_1  and  N2_4 
REMARK       I    between atoms: N2_4  and  C1_6 
REMARK    2  A    between atoms: C1_6  and  C2_8 
REMARK    3  A    between atoms: C4_12  and  C5_13 
ROOT
HETATM    1  C2  UNL     1      52.083  52.813  67.696  1.00  0.00     0.177 A 
HETATM    2  N3  UNL     1      52.896  53.852  67.349  1.00  0.00    -0.347 N 
ATOM      3  H3  UNL     1      53.876  53.651  67.153  1.00  0.00     0.167 HD
HETATM    4  C3  UNL     1      52.480  55.121  67.252  1.00  0.00     0.110 A 
HETATM    5  C4  UNL     1      51.146  55.365  67.524  1.00  0.00     0.085 A 
HETATM    6  C6  UNL     1      50.271  54.337  67.882  1.00  0.00     0.134 A 
HETATM    7  N5  UNL     1      48.906  54.597  68.159  1.00  0.00    -0.082 NA
HETATM    8  N6  UNL     1      50.798  53.104  67.949  1.00  0.00    -0.325 N 
ATOM      9  H6  UNL     1      50.179  52.336  68.209  1.00  0.00     0.169 HD
ENDROOT
BRANCH   1  10
HETATM   10  C1  UNL     1      52.611  51.457  67.781  1.00  0.00     0.303 C 
HETATM   11  N2  UNL     1      53.552  51.000  66.842  1.00  0.00    -0.270 N 
ATOM     12  H2  UNL     1      53.862  51.626  66.098  1.00  0.00     0.189 HD
HETATM   13  O1  UNL     1      52.226  50.701  68.695  1.00  0.00    -0.263 OA
BRANCH  11  14
HETATM   14  N1  UNL     1      54.064  49.717  66.908  1.00  0.00    -0.342 N 
ATOM     15  H12 UNL     1      54.824  49.464  66.277  1.00  0.00     0.176 HD
ATOM     16  H11 UNL     1      53.694  49.036  67.571  1.00  0.00     0.176 HD
ENDBRANCH  11  14
ENDBRANCH   1  10
BRANCH   5  17
HETATM   17  C5  UNL     1      50.616  56.710  67.441  1.00  0.00     0.269 C 
HETATM   18  N4  UNL     1      50.875  57.661  68.462  1.00  0.00    -0.057 NA
HETATM   19  O2  UNL     1      49.917  57.073  66.470  1.00  0.00    -0.271 OA
ENDBRANCH   5  17
TORSDOF 3
ENDMDL
MODEL 5
REMARK VINA RESULT: -4.633183901      2.903      5.742
REMARK  3 active torsions:
REMARK  status: ('A' for Active; 'I' for Inactive)
REMARK    1  A    between atoms: N1_1  and  N2_4 
REMARK       I    between atoms: N2_4  and  C1_6 
REMARK    2  A    between atoms: C1_6  and  C2_8 
REMARK    3  A    between atoms: C4_12  and  C5_13 
ROOT
HETATM    1  C2  UNL     1      52.377  53.750  67.324  1.00  0.00     0.177 A 
HETATM    2  N3  UNL     1      51.381  52.933  67.772  1.00  0.00    -0.347 N 
ATOM      3  H3  UNL     1      51.571  51.933  67.834  1.00  0.00     0.167 HD
HETATM    4  C3  UNL     1      50.168  53.368  68.135  1.00  0.00     0.110 A 
HETATM    5  C4  UNL     1      49.937  54.728  68.040  1.00  0.00     0.085 A 
HETATM    6  C6  UNL     1      50.922  55.609  67.589  1.00  0.00     0.134 A 
HETATM    7  N5  UNL     1      50.677  57.002  67.496  1.00  0.00    -0.082 NA
HETATM    8  N6  UNL     1      52.101  55.062  67.252  1.00  0.00    -0.325 N 
ATOM      9  H6  UNL     1      52.837  55.685  66.919  1.00  0.00     0.169 HD
ENDROOT
BRANCH   1  10
HETATM   10  C1  UNL     1      53.673  53.200  66.947  1.00  0.00     0.303 C 
HETATM   11  N2  UNL     1      53.760  52.193  65.970  1.00  0.00    -0.270 N 
ATOM     12  H2  UNL     1      52.908  51.849  65.527  1.00  0.00     0.189 HD
HETATM   13  O1  UNL     1      54.708  53.628  67.494  1.00  0.00    -0.263 OA
BRANCH  11  14
HETATM   14  N1  UNL     1      54.981  51.660  65.599  1.00  0.00    -0.342 N 
ATOM     15  H12 UNL     1      55.231  50.733  65.943  1.00  0.00     0.176 HD
ATOM     16  H11 UNL     1      55.621  52.177  64.996  1.00  0.00     0.176 HD
ENDBRANCH  11  14
ENDBRANCH   1  10
BRANCH   5  17
HETATM   17  C5  UNL     1      48.651  55.281  68.413  1.00  0.00     0.269 C 
HETATM   18  N4  UNL     1      47.665  55.562  67.432  1.00  0.00    -0.057 NA
HETATM   19  O2  UNL     1      48.372  55.524  69.607  1.00  0.00    -0.271 OA
ENDBRANCH   5  17
TORSDOF 3
ENDMDL
