MODEL 1
REMARK VINA RESULT: -5.485999347      0.000      0.000
REMARK  4 active torsions:
REMARK  status: ('A' for Active; 'I' for Inactive)
REMARK    1  A    between atoms: N3_8  and  N4_9 
REMARK    2  A    between atoms: N5_11  and  N6_13 
REMARK    3  A    between atoms: N6_13  and  C3_15 
REMARK    4  A    between atoms: N10_21  and  O1_22 
ROOT
HETATM    1  N4  UNL     1      50.700  59.692  69.036  1.00  0.00    -0.221 N 
ATOM      2  H4  UNL     1      50.905  60.583  68.583  1.00  0.00     0.210 HD
HETATM    3  N5  UNL     1      50.484  58.699  68.286  1.00  0.00    -0.213 N 
ATOM      4  H5  UNL     1      50.528  58.850  67.279  1.00  0.00     0.210 HD
ENDROOT
BRANCH   3   5
HETATM    5  N6  UNL     1      50.191  57.418  68.730  1.00  0.00    -0.112 N 
ATOM      6  H6  UNL     1      49.820  57.296  69.672  1.00  0.00     0.207 HD
BRANCH   5   7
HETATM    7  C3  UNL     1      50.391  56.268  67.915  1.00  0.00     0.753 A 
HETATM    8  N7  UNL     1      51.579  55.753  67.560  1.00  0.00    -0.114 N 
HETATM    9  N8  UNL     1      51.350  54.708  66.815  1.00  0.00    -0.209 N 
ATOM     10  H7  UNL     1      52.494  56.115  67.825  1.00  0.00     0.207 HD
HETATM   11  N9  UNL     1      50.037  54.526  66.676  1.00  0.00     0.039 NA
ATOM     12  H8  UNL     1      52.070  54.115  66.401  1.00  0.00     0.206 HD
HETATM   13  N10 UNL     1      49.450  55.500  67.363  1.00  0.00     0.035 N 
BRANCH  13  14
HETATM   14  O1  UNL     1      48.088  55.634  67.445  1.00  0.00    -0.256 OA
ATOM     15  H1  UNL     1      47.478  55.878  66.759  1.00  0.00     0.247 HD
ENDBRANCH  13  14
ENDBRANCH   5   7
ENDBRANCH   3   5
BRANCH   1  16
HETATM   16  N3  UNL     1      50.684  59.674  70.415  1.00  0.00    -0.229 N 
HETATM   17  C1  UNL     1      49.676  59.454  71.379  1.00  0.00     0.194 C 
HETATM   18  N1  UNL     1      48.515  58.847  71.409  1.00  0.00    -0.370 N 
HETATM   19  N2  UNL     1      50.466  60.179  72.301  1.00  0.00    -0.343 N 
ATOM     20  H12 UNL     1      47.786  58.688  72.106  1.00  0.00     0.159 HD
ATOM     21  H11 UNL     1      47.944  58.324  70.744  1.00  0.00     0.159 HD
HETATM   22  C2  UNL     1      51.615  59.857  71.492  1.00  0.00     0.278 C 
ATOM     23  H2  UNL     1      50.298  60.701  73.160  1.00  0.00     0.164 HD
ENDBRANCH   1  16
TORSDOF 4
ENDMDL
MODEL 2
REMARK VINA RESULT: -5.264557914      1.398      1.858
REMARK  4 active torsions:
REMARK  status: ('A' for Active; 'I' for Inactive)
REMARK    1  A    between atoms: N3_8  and  N4_9 
REMARK    2  A    between atoms: N5_11  and  N6_13 
REMARK    3  A    between atoms: N6_13  and  C3_15 
REMARK    4  A    between atoms: N10_21  and  O1_22 
ROOT
HETATM    1  N4  UNL     1      51.831  58.962  68.831  1.00  0.00    -0.221 N 
ATOM      2  H4  UNL     1      52.809  59.243  68.909  1.00  0.00     0.210 HD
HETATM    3  N5  UNL     1      51.579  57.929  68.150  1.00  0.00    -0.213 N 
ATOM      4  H5  UNL     1      52.367  57.441  67.724  1.00  0.00     0.210 HD
ENDROOT
BRANCH   3   5
HETATM    5  N6  UNL     1      50.312  57.407  67.940  1.00  0.00    -0.112 N 
ATOM      6  H6  UNL     1      49.533  58.049  67.792  1.00  0.00     0.207 HD
BRANCH   5   7
HETATM    7  C3  UNL     1      50.060  56.006  67.924  1.00  0.00     0.753 A 
HETATM    8  N7  UNL     1      50.978  55.041  68.088  1.00  0.00    -0.114 N 
HETATM    9  N8  UNL     1      50.365  53.893  68.009  1.00  0.00    -0.209 N 
ATOM     10  H7  UNL     1      51.976  55.180  68.247  1.00  0.00     0.207 HD
HETATM   11  N9  UNL     1      49.064  54.086  67.795  1.00  0.00     0.039 NA
ATOM     12  H8  UNL     1      50.814  52.981  68.096  1.00  0.00     0.206 HD
HETATM   13  N10 UNL     1      48.884  55.401  67.744  1.00  0.00     0.035 N 
BRANCH  13  14
HETATM   14  O1  UNL     1      47.656  55.976  67.536  1.00  0.00    -0.256 OA
ATOM     15  H1  UNL     1      46.958  55.681  66.964  1.00  0.00     0.247 HD
ENDBRANCH  13  14
ENDBRANCH   5   7
ENDBRANCH   3   5
BRANCH   1  16
HETATM   16  N3  UNL     1      50.897  59.744  69.478  1.00  0.00    -0.229 N 
HETATM   17  C1  UNL     1      50.260  60.965  69.169  1.00  0.00     0.194 C 
HETATM   18  N1  UNL     1      49.993  61.641  68.078  1.00  0.00    -0.370 N 
HETATM   19  N2  UNL     1      50.035  61.143  70.554  1.00  0.00    -0.343 N 
ATOM     20  H12 UNL     1      49.532  62.524  67.855  1.00  0.00     0.159 HD
ATOM     21  H11 UNL     1      50.155  61.513  67.078  1.00  0.00     0.159 HD
HETATM   22  C2  UNL     1      50.152  59.715  70.705  1.00  0.00     0.278 C 
ATOM     23  H2  UNL     1      49.865  61.935  71.173  1.00  0.00     0.164 HD
ENDBRANCH   1  16
TORSDOF 4
ENDMDL
MODEL 3
REMARK VINA RESULT: -5.173148930      1.157      1.298
REMARK  4 active torsions:
REMARK  status: ('A' for Active; 'I' for Inactive)
REMARK    1  A    between atoms: N3_8  and  N4_9 
REMARK    2  A    between atoms: N5_11  and  N6_13 
REMARK    3  A    between atoms: N6_13  and  C3_15 
REMARK    4  A    between atoms: N10_21  and  O1_22 
ROOT
HETATM    1  N4  UNL     1      50.735  59.410  68.860  1.00  0.00    -0.221 N 
ATOM      2  H4  UNL     1      51.013  60.245  68.345  1.00  0.00     0.210 HD
HETATM    3  N5  UNL     1      50.444  58.383  68.184  1.00  0.00    -0.213 N 
ATOM      4  H5  UNL     1      50.507  58.455  67.169  1.00  0.00     0.210 HD
ENDROOT
BRANCH   3   5
HETATM    5  N6  UNL     1      50.048  57.167  68.719  1.00  0.00    -0.112 N 
ATOM      6  H6  UNL     1      49.631  57.151  69.650  1.00  0.00     0.207 HD
BRANCH   5   7
HETATM    7  C3  UNL     1      50.202  55.941  68.012  1.00  0.00     0.753 A 
HETATM    8  N7  UNL     1      49.870  54.724  68.470  1.00  0.00    -0.114 N 
HETATM    9  N8  UNL     1      50.160  53.858  67.539  1.00  0.00    -0.209 N 
ATOM     10  H7  UNL     1      49.464  54.514  69.381  1.00  0.00     0.207 HD
HETATM   11  N9  UNL     1      50.675  54.483  66.480  1.00  0.00     0.039 NA
ATOM     12  H8  UNL     1      50.015  52.851  67.609  1.00  0.00     0.206 HD
HETATM   13  N10 UNL     1      50.697  55.777  66.784  1.00  0.00     0.035 N 
BRANCH  13  14
HETATM   14  O1  UNL     1      51.169  56.734  65.923  1.00  0.00    -0.256 OA
ATOM     15  H1  UNL     1      51.392  56.641  65.005  1.00  0.00     0.247 HD
ENDBRANCH  13  14
ENDBRANCH   5   7
ENDBRANCH   3   5
BRANCH   1  16
HETATM   16  N3  UNL     1      50.707  59.497  70.236  1.00  0.00    -0.229 N 
HETATM   17  C1  UNL     1      49.681  59.418  71.202  1.00  0.00     0.194 C 
HETATM   18  N1  UNL     1      48.482  58.892  71.265  1.00  0.00    -0.370 N 
HETATM   19  N2  UNL     1      50.512  60.157  72.076  1.00  0.00    -0.343 N 
ATOM     20  H12 UNL     1      47.740  58.835  71.963  1.00  0.00     0.159 HD
ATOM     21  H11 UNL     1      47.882  58.359  70.634  1.00  0.00     0.159 HD
HETATM   22  C2  UNL     1      51.642  59.699  71.308  1.00  0.00     0.278 C 
ATOM     23  H2  UNL     1      50.373  60.753  72.892  1.00  0.00     0.164 HD
ENDBRANCH   1  16
TORSDOF 4
ENDMDL
MODEL 4
REMARK VINA RESULT: -5.109250372      2.149      5.379
REMARK  4 active torsions:
REMARK  status: ('A' for Active; 'I' for Inactive)
REMARK    1  A    between atoms: N3_8  and  N4_9 
REMARK    2  A    between atoms: N5_11  and  N6_13 
REMARK    3  A    between atoms: N6_13  and  C3_15 
REMARK    4  A    between atoms: N10_21  and  O1_22 
ROOT
HETATM    1  N4  UNL     1      50.094  57.122  67.048  1.00  0.00    -0.221 N 
ATOM      2  H4  UNL     1      50.134  57.218  66.033  1.00  0.00     0.210 HD
HETATM    3  N5  UNL     1      50.389  58.139  67.737  1.00  0.00    -0.213 N 
ATOM      4  H5  UNL     1      50.647  58.989  67.236  1.00  0.00     0.210 HD
ENDROOT
BRANCH   3   5
HETATM    5  N6  UNL     1      50.387  58.186  69.122  1.00  0.00    -0.112 N 
ATOM      6  H6  UNL     1      50.307  57.314  69.645  1.00  0.00     0.207 HD
BRANCH   5   7
HETATM    7  C3  UNL     1      50.492  59.411  69.840  1.00  0.00     0.753 A 
HETATM    8  N7  UNL     1      50.696  59.532  71.161  1.00  0.00    -0.114 N 
HETATM    9  N8  UNL     1      50.734  60.805  71.442  1.00  0.00    -0.209 N 
ATOM     10  H7  UNL     1      50.803  58.766  71.826  1.00  0.00     0.207 HD
HETATM   11  N9  UNL     1      50.558  61.521  70.331  1.00  0.00     0.039 NA
ATOM     12  H8  UNL     1      50.876  61.196  72.373  1.00  0.00     0.206 HD
HETATM   13  N10 UNL     1      50.410  60.646  69.341  1.00  0.00     0.035 N 
BRANCH  13  14
HETATM   14  O1  UNL     1      50.205  61.025  68.040  1.00  0.00    -0.256 OA
ATOM     15  H1  UNL     1      49.937  61.873  67.709  1.00  0.00     0.247 HD
ENDBRANCH  13  14
ENDBRANCH   5   7
ENDBRANCH   3   5
BRANCH   1  16
HETATM   16  N3  UNL     1      49.722  55.893  67.551  1.00  0.00    -0.229 N 
HETATM   17  C1  UNL     1      48.549  55.400  68.162  1.00  0.00     0.194 C 
HETATM   18  N1  UNL     1      47.280  55.729  68.172  1.00  0.00    -0.370 N 
HETATM   19  N2  UNL     1      49.341  54.393  68.760  1.00  0.00    -0.343 N 
ATOM     20  H12 UNL     1      46.432  55.372  68.613  1.00  0.00     0.159 HD
ATOM     21  H11 UNL     1      46.708  56.456  67.740  1.00  0.00     0.159 HD
HETATM   22  C2  UNL     1      50.299  54.586  67.701  1.00  0.00     0.278 C 
ATOM     23  H2  UNL     1      49.267  53.792  69.581  1.00  0.00     0.164 HD
ENDBRANCH   1  16
TORSDOF 4
ENDMDL
MODEL 5
REMARK VINA RESULT: -4.975268687      1.752      2.298
REMARK  4 active torsions:
REMARK  status: ('A' for Active; 'I' for Inactive)
REMARK    1  A    between atoms: N3_8  and  N4_9 
REMARK    2  A    between atoms: N5_11  and  N6_13 
REMARK    3  A    between atoms: N6_13  and  C3_15 
REMARK    4  A    between atoms: N10_21  and  O1_22 
ROOT
HETATM    1  N4  UNL     1      50.099  59.590  70.072  1.00  0.00    -0.221 N 
ATOM      2  H4  UNL     1      49.494  59.731  70.881  1.00  0.00     0.210 HD
HETATM    3  N5  UNL     1      50.126  58.433  69.565  1.00  0.00    -0.213 N 
ATOM      4  H5  UNL     1      49.542  57.716  69.995  1.00  0.00     0.210 HD
ENDROOT
BRANCH   3   5
HETATM    5  N6  UNL     1      50.889  58.066  68.467  1.00  0.00    -0.112 N 
ATOM      6  H6  UNL     1      51.659  58.669  68.178  1.00  0.00     0.207 HD
BRANCH   5   7
HETATM    7  C3  UNL     1      50.635  56.875  67.730  1.00  0.00     0.753 A 
HETATM    8  N7  UNL     1      51.308  56.464  66.644  1.00  0.00    -0.114 N 
HETATM    9  N8  UNL     1      50.782  55.336  66.255  1.00  0.00    -0.209 N 
ATOM     10  H7  UNL     1      52.090  56.947  66.202  1.00  0.00     0.207 HD
HETATM   11  N9  UNL     1      49.778  54.999  67.064  1.00  0.00     0.039 NA
ATOM     12  H8  UNL     1      51.093  54.791  65.451  1.00  0.00     0.206 HD
HETATM   13  N10 UNL     1      49.694  55.961  67.977  1.00  0.00     0.035 N 
BRANCH  13  14
HETATM   14  O1  UNL     1      48.763  55.951  68.984  1.00  0.00    -0.256 OA
ATOM     15  H1  UNL     1      48.693  55.349  69.714  1.00  0.00     0.247 HD
ENDBRANCH  13  14
ENDBRANCH   5   7
ENDBRANCH   3   5
BRANCH   1  16
HETATM   16  N3  UNL     1      50.819  60.678  69.624  1.00  0.00    -0.229 N 
HETATM   17  C1  UNL     1      50.647  61.598  68.568  1.00  0.00     0.194 C 
HETATM   18  N1  UNL     1      49.639  62.037  67.854  1.00  0.00    -0.370 N 
HETATM   19  N2  UNL     1      52.039  61.840  68.615  1.00  0.00    -0.343 N 
ATOM     20  H12 UNL     1      49.514  62.703  67.090  1.00  0.00     0.159 HD
ATOM     21  H11 UNL     1      48.634  61.863  67.819  1.00  0.00     0.159 HD
HETATM   22  C2  UNL     1      52.023  61.376  69.979  1.00  0.00     0.278 C 
ATOM     23  H2  UNL     1      52.745  62.191  67.968  1.00  0.00     0.164 HD
ENDBRANCH   1  16
TORSDOF 4
ENDMDL
