MODEL 1
REMARK VINA RESULT: -4.514474044      0.000      0.000
REMARK  3 active torsions:
REMARK  status: ('A' for Active; 'I' for Inactive)
REMARK    1  A    between atoms: N1_1  and  C1_4 
REMARK    2  A    between atoms: C2_7  and  C3_8 
REMARK    3  A    between atoms: C4_15  and  C5_16 
ROOT
HETATM    1  C1  UNL     1      50.967  58.209  68.515  1.00  0.00     0.134 A 
HETATM    2  N2  UNL     1      50.048  57.215  68.524  1.00  0.00    -0.322 N 
ATOM      3  H2  UNL     1      49.116  57.401  68.895  1.00  0.00     0.169 HD
HETATM    4  C2  UNL     1      50.339  55.987  68.054  1.00  0.00     0.188 A 
HETATM    5  N4  UNL     1      51.585  55.806  67.579  1.00  0.00    -0.281 N 
ATOM      6  H4  UNL     1      51.838  54.887  67.215  1.00  0.00     0.188 HD
HETATM    7  N5  UNL     1      52.497  56.764  67.560  1.00  0.00    -0.291 N 
ATOM      8  H5  UNL     1      53.424  56.560  67.186  1.00  0.00     0.187 HD
HETATM    9  C4  UNL     1      52.237  57.997  68.022  1.00  0.00     0.157 A 
ENDROOT
BRANCH   1  10
HETATM   10  N1  UNL     1      50.706  59.392  68.962  1.00  0.00    -0.383 N 
ATOM     11  H12 UNL     1      49.723  59.621  69.109  1.00  0.00     0.157 HD
ATOM     12  H11 UNL     1      51.439  60.071  69.161  1.00  0.00     0.157 HD
ENDBRANCH   1  10
BRANCH   9  13
HETATM   13  C5  UNL     1      53.252  59.059  68.001  1.00  0.00     0.286 C 
HETATM   14  N6  UNL     1      54.128  59.278  69.091  1.00  0.00    -0.056 NA
HETATM   15  O2  UNL     1      53.384  59.822  67.007  1.00  0.00    -0.269 OA
ENDBRANCH   9  13
BRANCH   4  16
HETATM   16  C3  UNL     1      49.360  54.906  68.056  1.00  0.00     0.300 C 
HETATM   17  N3  UNL     1      48.017  55.201  67.727  1.00  0.00    -0.054 NA
HETATM   18  O1  UNL     1      49.660  53.728  68.336  1.00  0.00    -0.268 OA
ENDBRANCH   4  16
TORSDOF 3
ENDMDL
MODEL 2
REMARK VINA RESULT: -4.491417470      4.723      6.031
REMARK  3 active torsions:
REMARK  status: ('A' for Active; 'I' for Inactive)
REMARK    1  A    between atoms: N1_1  and  C1_4 
REMARK    2  A    between atoms: C2_7  and  C3_8 
REMARK    3  A    between atoms: C4_15  and  C5_16 
ROOT
HETATM    1  C1  UNL     1      49.689  59.752  70.999  1.00  0.00     0.134 A 
HETATM    2  N2  UNL     1      49.726  60.284  69.754  1.00  0.00    -0.322 N 
ATOM      3  H2  UNL     1      49.054  59.966  69.055  1.00  0.00     0.169 HD
HETATM    4  C2  UNL     1      50.631  61.224  69.420  1.00  0.00     0.188 A 
HETATM    5  N4  UNL     1      51.489  61.601  70.386  1.00  0.00    -0.281 N 
ATOM      6  H4  UNL     1      52.187  62.311  70.165  1.00  0.00     0.188 HD
HETATM    7  N5  UNL     1      51.469  61.094  71.607  1.00  0.00    -0.291 N 
ATOM      8  H5  UNL     1      52.149  61.425  72.293  1.00  0.00     0.187 HD
HETATM    9  C4  UNL     1      50.580  60.156  71.969  1.00  0.00     0.157 A 
ENDROOT
BRANCH   1  10
HETATM   10  N1  UNL     1      48.829  58.851  71.336  1.00  0.00    -0.383 N 
ATOM     11  H12 UNL     1      48.922  57.937  70.893  1.00  0.00     0.157 HD
ATOM     12  H11 UNL     1      48.087  59.033  72.012  1.00  0.00     0.157 HD
ENDBRANCH   1  10
BRANCH   9  13
HETATM   13  C5  UNL     1      50.560  59.594  73.327  1.00  0.00     0.286 C 
HETATM   14  N6  UNL     1      51.656  58.869  73.853  1.00  0.00    -0.056 NA
HETATM   15  O2  UNL     1      49.562  59.736  74.082  1.00  0.00    -0.269 OA
ENDBRANCH   9  13
BRANCH   4  16
HETATM   16  C3  UNL     1      50.683  61.807  68.084  1.00  0.00     0.300 C 
HETATM   17  N3  UNL     1      51.945  62.047  67.494  1.00  0.00    -0.054 NA
HETATM   18  O1  UNL     1      49.657  62.103  67.439  1.00  0.00    -0.268 OA
ENDBRANCH   4  16
TORSDOF 3
ENDMDL
MODEL 3
REMARK VINA RESULT: -4.334299440      1.089      1.990
REMARK  3 active torsions:
REMARK  status: ('A' for Active; 'I' for Inactive)
REMARK    1  A    between atoms: N1_1  and  C1_4 
REMARK    2  A    between atoms: C2_7  and  C3_8 
REMARK    3  A    between atoms: C4_15  and  C5_16 
ROOT
HETATM    1  C1  UNL     1      52.500  56.802  67.602  1.00  0.00     0.134 A 
HETATM    2  N2  UNL     1      51.586  55.804  67.594  1.00  0.00    -0.322 N 
ATOM      3  H2  UNL     1      51.853  54.886  67.239  1.00  0.00     0.169 HD
HETATM    4  C2  UNL     1      50.333  55.998  68.046  1.00  0.00     0.188 A 
HETATM    5  N4  UNL     1      50.043  57.231  68.502  1.00  0.00    -0.281 N 
ATOM      6  H4  UNL     1      49.102  57.411  68.851  1.00  0.00     0.188 HD
HETATM    7  N5  UNL     1      50.921  58.219  68.518  1.00  0.00    -0.291 N 
ATOM      8  H5  UNL     1      50.636  59.131  68.877  1.00  0.00     0.187 HD
HETATM    9  C4  UNL     1      52.177  58.056  68.073  1.00  0.00     0.157 A 
ENDROOT
BRANCH   1  10
HETATM   10  N1  UNL     1      53.706  56.634  67.172  1.00  0.00    -0.383 N 
ATOM     11  H12 UNL     1      53.939  55.712  66.803  1.00  0.00     0.157 HD
ATOM     12  H11 UNL     1      54.400  57.381  67.195  1.00  0.00     0.157 HD
ENDBRANCH   1  10
BRANCH   9  13
HETATM   13  C5  UNL     1      53.151  59.157  68.092  1.00  0.00     0.286 C 
HETATM   14  N6  UNL     1      53.338  60.009  66.978  1.00  0.00    -0.056 NA
HETATM   15  O2  UNL     1      53.863  59.386  69.105  1.00  0.00    -0.269 OA
ENDBRANCH   9  13
BRANCH   4  16
HETATM   16  C3  UNL     1      49.336  54.932  68.046  1.00  0.00     0.300 C 
HETATM   17  N3  UNL     1      48.004  55.245  67.690  1.00  0.00    -0.054 NA
HETATM   18  O1  UNL     1      49.613  53.754  68.347  1.00  0.00    -0.268 OA
ENDBRANCH   4  16
TORSDOF 3
ENDMDL
MODEL 4
REMARK VINA RESULT: -4.303738528      0.630      5.208
REMARK  3 active torsions:
REMARK  status: ('A' for Active; 'I' for Inactive)
REMARK    1  A    between atoms: N1_1  and  C1_4 
REMARK    2  A    between atoms: C2_7  and  C3_8 
REMARK    3  A    between atoms: C4_15  and  C5_16 
ROOT
HETATM    1  C1  UNL     1      51.553  55.852  67.517  1.00  0.00     0.134 A 
HETATM    2  N2  UNL     1      52.474  56.844  67.507  1.00  0.00    -0.322 N 
ATOM      3  H2  UNL     1      53.393  56.668  67.102  1.00  0.00     0.169 HD
HETATM    4  C2  UNL     1      52.201  58.058  68.022  1.00  0.00     0.188 A 
HETATM    5  N4  UNL     1      50.971  58.227  68.542  1.00  0.00    -0.281 N 
ATOM      6  H4  UNL     1      50.732  59.135  68.941  1.00  0.00     0.188 HD
HETATM    7  N5  UNL     1      50.058  57.271  68.561  1.00  0.00    -0.291 N 
ATOM      8  H5  UNL     1      49.144  57.465  68.971  1.00  0.00     0.187 HD
HETATM    9  C4  UNL     1      50.301  56.051  68.057  1.00  0.00     0.157 A 
ENDROOT
BRANCH   1  10
HETATM   10  N1  UNL     1      51.798  54.682  67.028  1.00  0.00    -0.383 N 
ATOM     11  H12 UNL     1      52.265  54.015  67.642  1.00  0.00     0.157 HD
ATOM     12  H11 UNL     1      51.540  54.428  66.075  1.00  0.00     0.157 HD
ENDBRANCH   1  10
BRANCH   9  13
HETATM   13  C5  UNL     1      49.284  54.990  68.079  1.00  0.00     0.286 C 
HETATM   14  N6  UNL     1      47.950  55.223  67.666  1.00  0.00    -0.056 NA
HETATM   15  O2  UNL     1      49.559  53.825  68.469  1.00  0.00    -0.269 OA
ENDBRANCH   9  13
BRANCH   4  16
HETATM   16  C3  UNL     1      53.182  59.139  68.019  1.00  0.00     0.300 C 
HETATM   17  N3  UNL     1      53.918  59.394  69.198  1.00  0.00    -0.054 NA
HETATM   18  O1  UNL     1      53.398  59.846  67.015  1.00  0.00    -0.268 OA
ENDBRANCH   4  16
TORSDOF 3
ENDMDL
MODEL 5
REMARK VINA RESULT: -4.274235399      3.427      5.171
REMARK  3 active torsions:
REMARK  status: ('A' for Active; 'I' for Inactive)
REMARK    1  A    between atoms: N1_1  and  C1_4 
REMARK    2  A    between atoms: C2_7  and  C3_8 
REMARK    3  A    between atoms: C4_15  and  C5_16 
ROOT
HETATM    1  C1  UNL     1      52.845  53.952  67.093  1.00  0.00     0.134 A 
HETATM    2  N2  UNL     1      51.931  54.945  66.985  1.00  0.00    -0.322 N 
ATOM      3  H2  UNL     1      52.215  55.843  66.593  1.00  0.00     0.169 HD
HETATM    4  C2  UNL     1      50.656  54.771  67.383  1.00  0.00     0.188 A 
HETATM    5  N4  UNL     1      50.345  53.564  67.890  1.00  0.00    -0.281 N 
ATOM      6  H4  UNL     1      49.388  53.400  68.202  1.00  0.00     0.188 HD
HETATM    7  N5  UNL     1      51.222  52.581  68.005  1.00  0.00    -0.291 N 
ATOM      8  H5  UNL     1      50.921  51.689  68.399  1.00  0.00     0.187 HD
HETATM    9  C4  UNL     1      52.499  52.725  67.618  1.00  0.00     0.157 A 
ENDROOT
BRANCH   1  10
HETATM   10  N1  UNL     1      54.070  54.101  66.717  1.00  0.00    -0.383 N 
ATOM     11  H12 UNL     1      54.518  53.298  66.276  1.00  0.00     0.157 HD
ATOM     12  H11 UNL     1      54.577  54.976  66.851  1.00  0.00     0.157 HD
ENDBRANCH   1  10
BRANCH   9  13
HETATM   13  C5  UNL     1      53.473  51.630  67.746  1.00  0.00     0.286 C 
HETATM   14  N6  UNL     1      54.297  51.493  68.889  1.00  0.00    -0.056 NA
HETATM   15  O2  UNL     1      53.614  50.768  66.839  1.00  0.00    -0.269 OA
ENDBRANCH   9  13
BRANCH   4  16
HETATM   16  C3  UNL     1      49.659  55.831  67.272  1.00  0.00     0.300 C 
HETATM   17  N3  UNL     1      48.299  55.512  67.490  1.00  0.00    -0.054 NA
HETATM   18  O1  UNL     1      49.960  57.008  66.993  1.00  0.00    -0.268 OA
ENDBRANCH   4  16
TORSDOF 3
ENDMDL
