MODEL 1
REMARK VINA RESULT: -6.700902193      0.000      0.000
REMARK  15 active torsions:
REMARK  status: ('A' for Active; 'I' for Inactive)
REMARK    1  A    between atoms: N1_2  and  C2_4 
REMARK    2  A    between atoms: C3_5  and  O1_6 
REMARK    3  A    between atoms: C6_11  and  O3_12 
REMARK    4  A    between atoms: O3_12  and  C7_13 
REMARK    5  A    between atoms: C8_14  and  N2_15 
REMARK    6  A    between atoms: C10_20  and  N3_21 
REMARK    7  A    between atoms: C11_25  and  O4_26 
REMARK    8  A    between atoms: O4_26  and  C12_27 
REMARK    9  A    between atoms: C13_28  and  N4_29 
REMARK   10  A    between atoms: C15_37  and  O5_38 
REMARK   11  A    between atoms: O5_38  and  C16_39 
REMARK   12  A    between atoms: C17_42  and  C18_43 
REMARK   13  A    between atoms: C18_43  and  O8_44 
REMARK   14  A    between atoms: C19_47  and  O10_48 
REMARK   15  A    between atoms: C20_50  and  O11_51 
ROOT
HETATM    1  C7  UNL     1     -35.837 -14.854   0.140  1.00  0.00     0.186 C 
HETATM    2  C8  UNL     1     -36.457 -15.929  -0.680  1.00  0.00     0.217 C 
HETATM    3  C9  UNL     1     -37.175 -16.907   0.225  1.00  0.00     0.071 C 
HETATM    4  C10 UNL     1     -36.372 -17.284   1.431  1.00  0.00     0.217 C 
HETATM    5  C11 UNL     1     -34.911 -16.968   1.140  1.00  0.00     0.183 C 
HETATM    6  C19 UNL     1     -34.730 -15.473   0.986  1.00  0.00     0.180 C 
ENDROOT
BRANCH   5   7
HETATM    7  O4  UNL     1     -34.078 -17.423   2.140  1.00  0.00    -0.369 OA
BRANCH   7   8
HETATM    8  C12 UNL     1     -33.678 -18.699   1.875  1.00  0.00     0.210 C 
HETATM    9  C13 UNL     1     -33.778 -19.630   3.060  1.00  0.00     0.242 C 
HETATM   10  C14 UNL     1     -32.883 -20.774   2.599  1.00  0.00     0.271 C 
HETATM   11  N5  UNL     1     -32.006 -20.245   1.603  1.00  0.00    -0.044 N 
HETATM   12  C15 UNL     1     -32.203 -18.813   1.542  1.00  0.00     0.356 C 
ATOM     13  H52 UNL     1     -31.032 -20.502   1.761  1.00  0.00     0.280 HD
ATOM     14  H51 UNL     1     -32.122 -20.698   0.696  1.00  0.00     0.280 HD
BRANCH   9  15
HETATM   15  N4  UNL     1     -33.169 -19.045   4.223  1.00  0.00    -0.071 N 
ATOM     16  H43 UNL     1     -33.648 -18.192   4.512  1.00  0.00     0.274 HD
ATOM     17  H42 UNL     1     -33.336 -19.606   5.059  1.00  0.00     0.274 HD
ATOM     18  H41 UNL     1     -32.173 -18.885   4.070  1.00  0.00     0.274 HD
ENDBRANCH   9  15
BRANCH  12  19
HETATM   19  O5  UNL     1     -31.429 -18.244   2.564  1.00  0.00    -0.301 OA
BRANCH  19  20
HETATM   20  C16 UNL     1     -30.089 -18.470   2.347  1.00  0.00     0.451 C 
HETATM   21  O6  UNL     1     -29.391 -17.348   2.798  1.00  0.00    -0.177 OA
HETATM   22  O7  UNL     1     -29.081 -17.554   4.045  1.00  0.00    -0.201 OA
HETATM   23  C17 UNL     1     -29.521 -18.815   4.406  1.00  0.00     0.325 C 
HETATM   24  O9  UNL     1     -29.565 -19.472   3.180  1.00  0.00    -0.301 OA
BRANCH  23  25
HETATM   25  C18 UNL     1     -28.565 -19.499   5.363  1.00  0.00     0.228 C 
BRANCH  25  26
HETATM   26  O8  UNL     1     -29.029 -20.768   5.646  1.00  0.00    -0.396 OA
ATOM     27  H8  UNL     1     -29.578 -20.737   6.420  1.00  0.00     0.209 HD
ENDBRANCH  25  26
ENDBRANCH  23  25
ENDBRANCH  19  20
ENDBRANCH  12  19
ENDBRANCH   7   8
ENDBRANCH   5   7
BRANCH   4  28
HETATM   28  N3  UNL     1     -36.819 -16.707   2.662  1.00  0.00    -0.072 N 
ATOM     29  H33 UNL     1     -36.735 -15.691   2.626  1.00  0.00     0.274 HD
ATOM     30  H32 UNL     1     -37.831 -16.799   2.746  1.00  0.00     0.274 HD
ATOM     31  H31 UNL     1     -36.363 -17.069   3.499  1.00  0.00     0.274 HD
ENDBRANCH   4  28
BRANCH   6  32
HETATM   32  O10 UNL     1     -33.503 -15.249   0.406  1.00  0.00    -0.390 OA
ATOM     33  H10 UNL     1     -32.809 -15.599   0.954  1.00  0.00     0.210 HD
ENDBRANCH   6  32
BRANCH   1  34
HETATM   34  O3  UNL     1     -36.676 -14.202   0.996  1.00  0.00    -0.349 OA
BRANCH  34  35
HETATM   35  C6  UNL     1     -36.930 -12.853   0.636  1.00  0.00     0.291 C 
HETATM   36  O2  UNL     1     -36.491 -12.562  -0.607  1.00  0.00    -0.351 OA
HETATM   37  C4  UNL     1     -35.577 -11.596  -0.820  1.00  0.00     0.151 C 
HETATM   38  C3  UNL     1     -35.500 -10.464   0.151  1.00  0.00     0.172 C 
HETATM   39  C5  UNL     1     -35.833 -11.049  -2.242  1.00  0.00     0.042 C 
HETATM   40  C2  UNL     1     -36.500 -10.520   1.238  1.00  0.00     0.144 C 
HETATM   41  C20 UNL     1     -36.536 -11.943   1.750  1.00  0.00     0.198 C 
BRANCH  38  42
HETATM   42  O1  UNL     1     -35.421  -9.216  -0.479  1.00  0.00    -0.391 OA
ATOM     43  H1  UNL     1     -35.104  -9.258  -1.373  1.00  0.00     0.210 HD
ENDBRANCH  38  42
BRANCH  40  44
HETATM   44  N1  UNL     1     -37.738  -9.959   1.100  1.00  0.00    -0.398 N 
HETATM   45  C1  UNL     1     -38.731  -9.783   2.019  1.00  0.00     0.112 C 
ATOM     46  H1  UNL     1     -37.955  -9.619   0.162  1.00  0.00     0.158 HD
ENDBRANCH  40  44
BRANCH  41  47
HETATM   47  O11 UNL     1     -35.255 -12.247   2.258  1.00  0.00    -0.388 OA
ATOM     48  H11 UNL     1     -34.956 -11.494   2.755  1.00  0.00     0.210 HD
ENDBRANCH  41  47
ENDBRANCH  34  35
ENDBRANCH   1  34
BRANCH   2  49
HETATM   49  N2  UNL     1     -37.393 -15.471  -1.661  1.00  0.00    -0.072 N 
ATOM     50  H23 UNL     1     -37.491 -14.457  -1.610  1.00  0.00     0.274 HD
ATOM     51  H22 UNL     1     -36.998 -15.564  -2.597  1.00  0.00     0.274 HD
ATOM     52  H21 UNL     1     -38.309 -15.916  -1.619  1.00  0.00     0.274 HD
ENDBRANCH   2  49
TORSDOF 15
ENDMDL
MODEL 2
REMARK VINA RESULT: -6.675247570      1.222      1.657
REMARK  15 active torsions:
REMARK  status: ('A' for Active; 'I' for Inactive)
REMARK    1  A    between atoms: N1_2  and  C2_4 
REMARK    2  A    between atoms: C3_5  and  O1_6 
REMARK    3  A    between atoms: C6_11  and  O3_12 
REMARK    4  A    between atoms: O3_12  and  C7_13 
REMARK    5  A    between atoms: C8_14  and  N2_15 
REMARK    6  A    between atoms: C10_20  and  N3_21 
REMARK    7  A    between atoms: C11_25  and  O4_26 
REMARK    8  A    between atoms: O4_26  and  C12_27 
REMARK    9  A    between atoms: C13_28  and  N4_29 
REMARK   10  A    between atoms: C15_37  and  O5_38 
REMARK   11  A    between atoms: O5_38  and  C16_39 
REMARK   12  A    between atoms: C17_42  and  C18_43 
REMARK   13  A    between atoms: C18_43  and  O8_44 
REMARK   14  A    between atoms: C19_47  and  O10_48 
REMARK   15  A    between atoms: C20_50  and  O11_51 
ROOT
HETATM    1  C7  UNL     1     -35.262 -15.085   0.073  1.00  0.00     0.186 C 
HETATM    2  C8  UNL     1     -35.273 -16.135  -0.981  1.00  0.00     0.217 C 
HETATM    3  C9  UNL     1     -36.157 -17.283  -0.543  1.00  0.00     0.071 C 
HETATM    4  C10 UNL     1     -35.931 -17.684   0.881  1.00  0.00     0.217 C 
HETATM    5  C11 UNL     1     -34.564 -17.164   1.305  1.00  0.00     0.183 C 
HETATM    6  C19 UNL     1     -34.570 -15.651   1.309  1.00  0.00     0.180 C 
ENDROOT
BRANCH   5   7
HETATM    7  O4  UNL     1     -34.209 -17.618   2.557  1.00  0.00    -0.369 OA
BRANCH   7   8
HETATM    8  C12 UNL     1     -33.819 -18.922   2.493  1.00  0.00     0.210 C 
HETATM    9  C13 UNL     1     -33.797 -19.621   3.832  1.00  0.00     0.242 C 
HETATM   10  C14 UNL     1     -32.936 -20.835   3.504  1.00  0.00     0.271 C 
HETATM   11  N5  UNL     1     -32.163 -20.502   2.351  1.00  0.00    -0.044 N 
HETATM   12  C15 UNL     1     -32.382 -19.104   2.048  1.00  0.00     0.356 C 
ATOM     13  H52 UNL     1     -31.175 -20.731   2.459  1.00  0.00     0.280 HD
ATOM     14  H51 UNL     1     -32.358 -21.112   1.556  1.00  0.00     0.280 HD
BRANCH   9  15
HETATM   15  N4  UNL     1     -33.088 -18.837   4.806  1.00  0.00    -0.071 N 
ATOM     16  H43 UNL     1     -33.044 -19.308   5.710  1.00  0.00     0.274 HD
ATOM     17  H42 UNL     1     -32.089 -18.797   4.604  1.00  0.00     0.274 HD
ATOM     18  H41 UNL     1     -33.494 -17.905   4.886  1.00  0.00     0.274 HD
ENDBRANCH   9  15
BRANCH  12  19
HETATM   19  O5  UNL     1     -31.521 -18.363   2.871  1.00  0.00    -0.301 OA
BRANCH  19  20
HETATM   20  C16 UNL     1     -30.205 -18.606   2.551  1.00  0.00     0.451 C 
HETATM   21  O6  UNL     1     -29.469 -17.468   2.887  1.00  0.00    -0.177 OA
HETATM   22  O7  UNL     1     -29.054 -17.618   4.111  1.00  0.00    -0.201 OA
HETATM   23  C17 UNL     1     -29.464 -18.858   4.568  1.00  0.00     0.325 C 
HETATM   24  O9  UNL     1     -29.614 -19.572   3.382  1.00  0.00    -0.301 OA
BRANCH  23  25
HETATM   25  C18 UNL     1     -28.430 -19.502   5.470  1.00  0.00     0.228 C 
BRANCH  25  26
HETATM   26  O8  UNL     1     -28.746 -20.834   5.652  1.00  0.00    -0.396 OA
ATOM     27  H8  UNL     1     -29.683 -20.921   5.782  1.00  0.00     0.209 HD
ENDBRANCH  25  26
ENDBRANCH  23  25
ENDBRANCH  19  20
ENDBRANCH  12  19
ENDBRANCH   7   8
ENDBRANCH   5   7
BRANCH   4  28
HETATM   28  N3  UNL     1     -36.967 -17.299   1.791  1.00  0.00    -0.072 N 
ATOM     29  H33 UNL     1     -37.669 -16.739   1.308  1.00  0.00     0.274 HD
ATOM     30  H32 UNL     1     -37.531 -18.109   2.046  1.00  0.00     0.274 HD
ATOM     31  H31 UNL     1     -36.647 -16.815   2.630  1.00  0.00     0.274 HD
ENDBRANCH   4  28
BRANCH   6  32
HETATM   32  O10 UNL     1     -33.264 -15.220   1.365  1.00  0.00    -0.390 OA
ATOM     33  H10 UNL     1     -32.757 -15.777   1.943  1.00  0.00     0.210 HD
ENDBRANCH   6  32
BRANCH   1  34
HETATM   34  O3  UNL     1     -36.485 -14.634   0.473  1.00  0.00    -0.349 OA
BRANCH  34  35
HETATM   35  C6  UNL     1     -36.694 -13.250   0.236  1.00  0.00     0.291 C 
HETATM   36  O2  UNL     1     -35.744 -12.482   0.810  1.00  0.00    -0.351 OA
HETATM   37  C4  UNL     1     -36.058 -11.543   1.723  1.00  0.00     0.151 C 
HETATM   38  C3  UNL     1     -37.415 -10.921   1.664  1.00  0.00     0.172 C 
HETATM   39  C5  UNL     1     -34.975 -10.447   1.623  1.00  0.00     0.042 C 
HETATM   40  C2  UNL     1     -38.258 -11.393   0.546  1.00  0.00     0.144 C 
HETATM   41  C20 UNL     1     -38.123 -12.898   0.480  1.00  0.00     0.198 C 
BRANCH  38  42
HETATM   42  O1  UNL     1     -37.376  -9.526   1.790  1.00  0.00    -0.391 OA
ATOM     43  H1  UNL     1     -36.505  -9.181   1.949  1.00  0.00     0.210 HD
ENDBRANCH  38  42
BRANCH  40  44
HETATM   44  N1  UNL     1     -38.225 -10.788  -0.679  1.00  0.00    -0.398 N 
HETATM   45  C1  UNL     1     -38.731 -11.202  -1.877  1.00  0.00     0.112 C 
ATOM     46  H1  UNL     1     -37.748  -9.887  -0.701  1.00  0.00     0.158 HD
ENDBRANCH  40  44
BRANCH  41  47
HETATM   47  O11 UNL     1     -38.600 -13.424   1.699  1.00  0.00    -0.388 OA
ATOM     48  H11 UNL     1     -38.056 -13.077   2.395  1.00  0.00     0.210 HD
ENDBRANCH  41  47
ENDBRANCH  34  35
ENDBRANCH   1  34
BRANCH   2  49
HETATM   49  N2  UNL     1     -35.729 -15.693  -2.263  1.00  0.00    -0.072 N 
ATOM     50  H23 UNL     1     -36.510 -15.046  -2.157  1.00  0.00     0.274 HD
ATOM     51  H22 UNL     1     -35.040 -15.071  -2.688  1.00  0.00     0.274 HD
ATOM     52  H21 UNL     1     -35.976 -16.441  -2.910  1.00  0.00     0.274 HD
ENDBRANCH   2  49
TORSDOF 15
ENDMDL
MODEL 3
REMARK VINA RESULT: -6.609692101      1.496      2.204
REMARK  15 active torsions:
REMARK  status: ('A' for Active; 'I' for Inactive)
REMARK    1  A    between atoms: N1_2  and  C2_4 
REMARK    2  A    between atoms: C3_5  and  O1_6 
REMARK    3  A    between atoms: C6_11  and  O3_12 
REMARK    4  A    between atoms: O3_12  and  C7_13 
REMARK    5  A    between atoms: C8_14  and  N2_15 
REMARK    6  A    between atoms: C10_20  and  N3_21 
REMARK    7  A    between atoms: C11_25  and  O4_26 
REMARK    8  A    between atoms: O4_26  and  C12_27 
REMARK    9  A    between atoms: C13_28  and  N4_29 
REMARK   10  A    between atoms: C15_37  and  O5_38 
REMARK   11  A    between atoms: O5_38  and  C16_39 
REMARK   12  A    between atoms: C17_42  and  C18_43 
REMARK   13  A    between atoms: C18_43  and  O8_44 
REMARK   14  A    between atoms: C19_47  and  O10_48 
REMARK   15  A    between atoms: C20_50  and  O11_51 
ROOT
HETATM    1  C7  UNL     1     -34.315 -15.384  -0.397  1.00  0.00     0.186 C 
HETATM    2  C8  UNL     1     -34.690 -16.518  -1.284  1.00  0.00     0.217 C 
HETATM    3  C9  UNL     1     -35.914 -17.213  -0.727  1.00  0.00     0.071 C 
HETATM    4  C10 UNL     1     -35.836 -17.440   0.751  1.00  0.00     0.217 C 
HETATM    5  C11 UNL     1     -34.372 -17.357   1.162  1.00  0.00     0.183 C 
HETATM    6  C19 UNL     1     -33.856 -15.951   0.942  1.00  0.00     0.180 C 
ENDROOT
BRANCH   5   7
HETATM    7  O4  UNL     1     -34.191 -17.703   2.484  1.00  0.00    -0.369 OA
BRANCH   7   8
HETATM    8  C12 UNL     1     -33.797 -19.004   2.581  1.00  0.00     0.210 C 
HETATM    9  C13 UNL     1     -33.783 -19.536   3.995  1.00  0.00     0.242 C 
HETATM   10  C14 UNL     1     -32.916 -20.777   3.823  1.00  0.00     0.271 C 
HETATM   11  N5  UNL     1     -32.134 -20.583   2.643  1.00  0.00    -0.044 N 
HETATM   12  C15 UNL     1     -32.355 -19.232   2.172  1.00  0.00     0.356 C 
ATOM     13  H52 UNL     1     -31.147 -20.793   2.786  1.00  0.00     0.280 HD
ATOM     14  H51 UNL     1     -32.321 -21.285   1.927  1.00  0.00     0.280 HD
BRANCH   9  15
HETATM   15  N4  UNL     1     -33.084 -18.637   4.872  1.00  0.00    -0.071 N 
ATOM     16  H43 UNL     1     -32.324 -19.105   5.365  1.00  0.00     0.274 HD
ATOM     17  H42 UNL     1     -32.533 -17.954   4.352  1.00  0.00     0.274 HD
ATOM     18  H41 UNL     1     -33.731 -18.186   5.519  1.00  0.00     0.274 HD
ENDBRANCH   9  15
BRANCH  12  19
HETATM   19  O5  UNL     1     -31.504 -18.394   2.906  1.00  0.00    -0.301 OA
BRANCH  19  20
HETATM   20  C16 UNL     1     -30.186 -18.642   2.600  1.00  0.00     0.451 C 
HETATM   21  O6  UNL     1     -29.446 -17.514   2.959  1.00  0.00    -0.177 OA
HETATM   22  O7  UNL     1     -29.047 -17.683   4.186  1.00  0.00    -0.201 OA
HETATM   23  C17 UNL     1     -29.471 -18.926   4.622  1.00  0.00     0.325 C 
HETATM   24  O9  UNL     1     -29.612 -19.623   3.425  1.00  0.00    -0.301 OA
BRANCH  23  25
HETATM   25  C18 UNL     1     -28.453 -19.589   5.528  1.00  0.00     0.228 C 
BRANCH  25  26
HETATM   26  O8  UNL     1     -28.808 -20.908   5.729  1.00  0.00    -0.396 OA
ATOM     27  H8  UNL     1     -28.163 -21.327   6.286  1.00  0.00     0.209 HD
ENDBRANCH  25  26
ENDBRANCH  23  25
ENDBRANCH  19  20
ENDBRANCH  12  19
ENDBRANCH   7   8
ENDBRANCH   5   7
BRANCH   4  28
HETATM   28  N3  UNL     1     -36.673 -16.588   1.539  1.00  0.00    -0.072 N 
ATOM     29  H33 UNL     1     -36.330 -15.629   1.506  1.00  0.00     0.274 HD
ATOM     30  H32 UNL     1     -37.580 -16.469   1.087  1.00  0.00     0.274 HD
ATOM     31  H31 UNL     1     -36.800 -16.883   2.507  1.00  0.00     0.274 HD
ENDBRANCH   4  28
BRANCH   6  32
HETATM   32  O10 UNL     1     -32.483 -15.987   1.001  1.00  0.00    -0.390 OA
ATOM     33  H10 UNL     1     -32.185 -16.851   1.262  1.00  0.00     0.210 HD
ENDBRANCH   6  32
BRANCH   1  34
HETATM   34  O3  UNL     1     -35.308 -14.487  -0.131  1.00  0.00    -0.349 OA
BRANCH  34  35
HETATM   35  C6  UNL     1     -34.995 -13.154  -0.508  1.00  0.00     0.291 C 
HETATM   36  O2  UNL     1     -34.916 -12.326   0.555  1.00  0.00    -0.351 OA
HETATM   37  C4  UNL     1     -35.713 -11.246   0.663  1.00  0.00     0.151 C 
HETATM   38  C3  UNL     1     -36.224 -10.611  -0.589  1.00  0.00     0.172 C 
HETATM   39  C5  UNL     1     -34.940 -10.205   1.500  1.00  0.00     0.042 C 
HETATM   40  C2  UNL     1     -35.737 -11.237  -1.836  1.00  0.00     0.144 C 
HETATM   41  C20 UNL     1     -35.841 -12.736  -1.662  1.00  0.00     0.198 C 
BRANCH  38  42
HETATM   42  O1  UNL     1     -36.103  -9.216  -0.575  1.00  0.00    -0.391 OA
ATOM     43  H1  UNL     1     -35.988  -8.851   0.294  1.00  0.00     0.210 HD
ENDBRANCH  38  42
BRANCH  40  44
HETATM   44  N1  UNL     1     -34.573 -10.838  -2.430  1.00  0.00    -0.398 N 
HETATM   45  C1  UNL     1     -34.372 -10.080  -3.548  1.00  0.00     0.112 C 
ATOM     46  H1  UNL     1     -33.722 -11.154  -1.966  1.00  0.00     0.158 HD
ENDBRANCH  40  44
BRANCH  41  47
HETATM   47  O11 UNL     1     -37.203 -13.050  -1.465  1.00  0.00    -0.388 OA
ATOM     48  H11 UNL     1     -37.335 -13.948  -1.746  1.00  0.00     0.210 HD
ENDBRANCH  41  47
ENDBRANCH  34  35
ENDBRANCH   1  34
BRANCH   2  49
HETATM   49  N2  UNL     1     -34.970 -16.154  -2.638  1.00  0.00    -0.072 N 
ATOM     50  H23 UNL     1     -34.673 -16.896  -3.272  1.00  0.00     0.274 HD
ATOM     51  H22 UNL     1     -35.976 -16.167  -2.807  1.00  0.00     0.274 HD
ATOM     52  H21 UNL     1     -34.574 -15.261  -2.932  1.00  0.00     0.274 HD
ENDBRANCH   2  49
TORSDOF 15
ENDMDL
MODEL 4
REMARK VINA RESULT: -6.532819846      1.979      2.509
REMARK  15 active torsions:
REMARK  status: ('A' for Active; 'I' for Inactive)
REMARK    1  A    between atoms: N1_2  and  C2_4 
REMARK    2  A    between atoms: C3_5  and  O1_6 
REMARK    3  A    between atoms: C6_11  and  O3_12 
REMARK    4  A    between atoms: O3_12  and  C7_13 
REMARK    5  A    between atoms: C8_14  and  N2_15 
REMARK    6  A    between atoms: C10_20  and  N3_21 
REMARK    7  A    between atoms: C11_25  and  O4_26 
REMARK    8  A    between atoms: O4_26  and  C12_27 
REMARK    9  A    between atoms: C13_28  and  N4_29 
REMARK   10  A    between atoms: C15_37  and  O5_38 
REMARK   11  A    between atoms: O5_38  and  C16_39 
REMARK   12  A    between atoms: C17_42  and  C18_43 
REMARK   13  A    between atoms: C18_43  and  O8_44 
REMARK   14  A    between atoms: C19_47  and  O10_48 
REMARK   15  A    between atoms: C20_50  and  O11_51 
ROOT
HETATM    1  C7  UNL     1     -35.274 -15.268   0.197  1.00  0.00     0.186 C 
HETATM    2  C8  UNL     1     -35.492 -16.353  -0.797  1.00  0.00     0.217 C 
HETATM    3  C9  UNL     1     -36.372 -17.426  -0.191  1.00  0.00     0.071 C 
HETATM    4  C10 UNL     1     -35.974 -17.788   1.206  1.00  0.00     0.217 C 
HETATM    5  C11 UNL     1     -34.533 -17.341   1.414  1.00  0.00     0.183 C 
HETATM    6  C19 UNL     1     -34.450 -15.831   1.351  1.00  0.00     0.180 C 
ENDROOT
BRANCH   5   7
HETATM    7  O4  UNL     1     -34.033 -17.770   2.625  1.00  0.00    -0.369 OA
BRANCH   7   8
HETATM    8  C12 UNL     1     -33.857 -19.121   2.610  1.00  0.00     0.210 C 
HETATM    9  C13 UNL     1     -33.317 -19.683   3.904  1.00  0.00     0.242 C 
HETATM   10  C14 UNL     1     -32.829 -21.049   3.439  1.00  0.00     0.271 C 
HETATM   11  N5  UNL     1     -32.619 -20.963   2.029  1.00  0.00    -0.044 N 
HETATM   12  C15 UNL     1     -32.796 -19.583   1.631  1.00  0.00     0.356 C 
ATOM     13  H52 UNL     1     -31.717 -21.342   1.742  1.00  0.00     0.280 HD
ATOM     14  H51 UNL     1     -33.212 -21.604   1.503  1.00  0.00     0.280 HD
BRANCH   9  15
HETATM   15  N4  UNL     1     -32.168 -18.939   4.344  1.00  0.00    -0.071 N 
ATOM     16  H43 UNL     1     -31.324 -19.511   4.340  1.00  0.00     0.274 HD
ATOM     17  H42 UNL     1     -31.885 -18.241   3.657  1.00  0.00     0.274 HD
ATOM     18  H41 UNL     1     -32.336 -18.521   5.260  1.00  0.00     0.274 HD
ENDBRANCH   9  15
BRANCH  12  19
HETATM   19  O5  UNL     1     -31.585 -18.921   1.878  1.00  0.00    -0.301 OA
BRANCH  19  20
HETATM   20  C16 UNL     1     -30.830 -18.834   0.732  1.00  0.00     0.451 C 
HETATM   21  O6  UNL     1     -31.428 -17.886  -0.101  1.00  0.00    -0.177 OA
HETATM   22  O7  UNL     1     -30.892 -16.732   0.172  1.00  0.00    -0.201 OA
HETATM   23  C17 UNL     1     -29.917 -16.915   1.136  1.00  0.00     0.325 C 
HETATM   24  O9  UNL     1     -29.571 -18.252   0.953  1.00  0.00    -0.301 OA
BRANCH  23  25
HETATM   25  C18 UNL     1     -28.725 -16.005   0.918  1.00  0.00     0.228 C 
BRANCH  25  26
HETATM   26  O8  UNL     1     -27.572 -16.655   1.314  1.00  0.00    -0.396 OA
ATOM     27  H8  UNL     1     -27.564 -17.532   0.949  1.00  0.00     0.209 HD
ENDBRANCH  25  26
ENDBRANCH  23  25
ENDBRANCH  19  20
ENDBRANCH  12  19
ENDBRANCH   7   8
ENDBRANCH   5   7
BRANCH   4  28
HETATM   28  N3  UNL     1     -36.848 -17.305   2.230  1.00  0.00    -0.072 N 
ATOM     29  H33 UNL     1     -37.548 -18.011   2.457  1.00  0.00     0.274 HD
ATOM     30  H32 UNL     1     -36.353 -17.252   3.120  1.00  0.00     0.274 HD
ATOM     31  H31 UNL     1     -37.301 -16.414   2.026  1.00  0.00     0.274 HD
ENDBRANCH   4  28
BRANCH   6  32
HETATM   32  O10 UNL     1     -33.127 -15.482   1.208  1.00  0.00    -0.390 OA
ATOM     33  H10 UNL     1     -32.773 -15.182   2.038  1.00  0.00     0.210 HD
ENDBRANCH   6  32
BRANCH   1  34
HETATM   34  O3  UNL     1     -36.401 -14.726   0.740  1.00  0.00    -0.349 OA
BRANCH  34  35
HETATM   35  C6  UNL     1     -36.610 -13.366   0.393  1.00  0.00     0.291 C 
HETATM   36  O2  UNL     1     -35.695 -12.547   0.952  1.00  0.00    -0.351 OA
HETATM   37  C4  UNL     1     -36.059 -11.547   1.778  1.00  0.00     0.151 C 
HETATM   38  C3  UNL     1     -37.417 -10.947   1.612  1.00  0.00     0.172 C 
HETATM   39  C5  UNL     1     -34.982 -10.449   1.649  1.00  0.00     0.042 C 
HETATM   40  C2  UNL     1     -38.202 -11.509   0.493  1.00  0.00     0.144 C 
HETATM   41  C20 UNL     1     -38.052 -13.014   0.543  1.00  0.00     0.198 C 
BRANCH  38  42
HETATM   42  O1  UNL     1     -37.396  -9.547   1.637  1.00  0.00    -0.391 OA
ATOM     43  H1  UNL     1     -37.823  -9.172   2.397  1.00  0.00     0.210 HD
ENDBRANCH  38  42
BRANCH  40  44
HETATM   44  N1  UNL     1     -38.117 -10.995  -0.770  1.00  0.00    -0.398 N 
HETATM   45  C1  UNL     1     -38.717 -11.402  -1.927  1.00  0.00     0.112 C 
ATOM     46  H1  UNL     1     -37.511 -10.180  -0.863  1.00  0.00     0.158 HD
ENDBRANCH  40  44
BRANCH  41  47
HETATM   47  O11 UNL     1     -38.582 -13.455   1.774  1.00  0.00    -0.388 OA
ATOM     48  H11 UNL     1     -38.758 -12.687   2.304  1.00  0.00     0.210 HD
ENDBRANCH  41  47
ENDBRANCH  34  35
ENDBRANCH   1  34
BRANCH   2  49
HETATM   49  N2  UNL     1     -36.096 -15.931  -2.023  1.00  0.00    -0.072 N 
ATOM     50  H23 UNL     1     -36.147 -14.912  -2.060  1.00  0.00     0.274 HD
ATOM     51  H22 UNL     1     -35.465 -16.105  -2.806  1.00  0.00     0.274 HD
ATOM     52  H21 UNL     1     -37.012 -16.336  -2.211  1.00  0.00     0.274 HD
ENDBRANCH   2  49
TORSDOF 15
ENDMDL
MODEL 5
REMARK VINA RESULT: -6.450684121      4.227      5.336
REMARK  15 active torsions:
REMARK  status: ('A' for Active; 'I' for Inactive)
REMARK    1  A    between atoms: N1_2  and  C2_4 
REMARK    2  A    between atoms: C3_5  and  O1_6 
REMARK    3  A    between atoms: C6_11  and  O3_12 
REMARK    4  A    between atoms: O3_12  and  C7_13 
REMARK    5  A    between atoms: C8_14  and  N2_15 
REMARK    6  A    between atoms: C10_20  and  N3_21 
REMARK    7  A    between atoms: C11_25  and  O4_26 
REMARK    8  A    between atoms: O4_26  and  C12_27 
REMARK    9  A    between atoms: C13_28  and  N4_29 
REMARK   10  A    between atoms: C15_37  and  O5_38 
REMARK   11  A    between atoms: O5_38  and  C16_39 
REMARK   12  A    between atoms: C17_42  and  C18_43 
REMARK   13  A    between atoms: C18_43  and  O8_44 
REMARK   14  A    between atoms: C19_47  and  O10_48 
REMARK   15  A    between atoms: C20_50  and  O11_51 
ROOT
HETATM    1  C7  UNL     1     -32.518 -16.531  -3.790  1.00  0.00     0.186 C 
HETATM    2  C8  UNL     1     -32.456 -17.843  -4.488  1.00  0.00     0.217 C 
HETATM    3  C9  UNL     1     -33.779 -18.562  -4.333  1.00  0.00     0.071 C 
HETATM    4  C10 UNL     1     -34.314 -18.506  -2.935  1.00  0.00     0.217 C 
HETATM    5  C11 UNL     1     -33.156 -18.181  -2.002  1.00  0.00     0.183 C 
HETATM    6  C19 UNL     1     -32.639 -16.788  -2.292  1.00  0.00     0.180 C 
ENDROOT
BRANCH   5   7
HETATM    7  O4  UNL     1     -33.529 -18.257  -0.677  1.00  0.00    -0.369 OA
BRANCH   7   8
HETATM    8  C12 UNL     1     -33.842 -19.543  -0.349  1.00  0.00     0.210 C 
HETATM    9  C13 UNL     1     -35.051 -19.669   0.547  1.00  0.00     0.242 C 
HETATM   10  C14 UNL     1     -34.870 -21.088   1.071  1.00  0.00     0.271 C 
HETATM   11  N5  UNL     1     -33.488 -21.415   0.927  1.00  0.00    -0.044 N 
HETATM   12  C15 UNL     1     -32.785 -20.226   0.496  1.00  0.00     0.356 C 
ATOM     13  H52 UNL     1     -33.090 -21.822   1.773  1.00  0.00     0.280 HD
ATOM     14  H51 UNL     1     -33.333 -22.210   0.307  1.00  0.00     0.280 HD
BRANCH   9  15
HETATM   15  N4  UNL     1     -34.951 -18.776   1.670  1.00  0.00    -0.071 N 
ATOM     16  H43 UNL     1     -33.987 -18.493   1.842  1.00  0.00     0.274 HD
ATOM     17  H42 UNL     1     -35.346 -17.859   1.459  1.00  0.00     0.274 HD
ATOM     18  H41 UNL     1     -35.378 -19.189   2.500  1.00  0.00     0.274 HD
ENDBRANCH   9  15
BRANCH  12  19
HETATM   19  O5  UNL     1     -32.513 -19.466   1.643  1.00  0.00    -0.301 OA
BRANCH  19  20
HETATM   20  C16 UNL     1     -31.203 -19.621   2.035  1.00  0.00     0.451 C 
HETATM   21  O6  UNL     1     -30.445 -19.879   0.892  1.00  0.00    -0.177 OA
HETATM   22  O7  UNL     1     -30.026 -18.735   0.433  1.00  0.00    -0.201 OA
HETATM   23  C17 UNL     1     -30.456 -17.734   1.286  1.00  0.00     0.325 C 
HETATM   24  O9  UNL     1     -30.626 -18.422   2.484  1.00  0.00    -0.301 OA
BRANCH  23  25
HETATM   25  C18 UNL     1     -29.430 -16.628   1.427  1.00  0.00     0.228 C 
BRANCH  25  26
HETATM   26  O8  UNL     1     -29.180 -16.073   0.187  1.00  0.00    -0.396 OA
ATOM     27  H8  UNL     1     -29.334 -15.136   0.224  1.00  0.00     0.209 HD
ENDBRANCH  25  26
ENDBRANCH  23  25
ENDBRANCH  19  20
ENDBRANCH  12  19
ENDBRANCH   7   8
ENDBRANCH   5   7
BRANCH   4  28
HETATM   28  N3  UNL     1     -35.429 -17.628  -2.749  1.00  0.00    -0.072 N 
ATOM     29  H33 UNL     1     -35.192 -16.687  -3.063  1.00  0.00     0.274 HD
ATOM     30  H32 UNL     1     -36.171 -17.855  -3.410  1.00  0.00     0.274 HD
ATOM     31  H31 UNL     1     -35.801 -17.598  -1.799  1.00  0.00     0.274 HD
ENDBRANCH   4  28
BRANCH   6  32
HETATM   32  O10 UNL     1     -31.412 -16.654  -1.683  1.00  0.00    -0.390 OA
ATOM     33  H10 UNL     1     -31.376 -17.180  -0.893  1.00  0.00     0.210 HD
ENDBRANCH   6  32
BRANCH   1  34
HETATM   34  O3  UNL     1     -33.558 -15.721  -4.141  1.00  0.00    -0.349 OA
BRANCH  34  35
HETATM   35  C6  UNL     1     -33.166 -14.554  -4.847  1.00  0.00     0.291 C 
HETATM   36  O2  UNL     1     -31.907 -14.643  -5.325  1.00  0.00    -0.351 OA
HETATM   37  C4  UNL     1     -30.955 -13.761  -4.965  1.00  0.00     0.151 C 
HETATM   38  C3  UNL     1     -31.377 -12.385  -4.564  1.00  0.00     0.172 C 
HETATM   39  C5  UNL     1     -29.956 -13.681  -6.139  1.00  0.00     0.042 C 
HETATM   40  C2  UNL     1     -32.831 -12.137  -4.662  1.00  0.00     0.144 C 
HETATM   41  C20 UNL     1     -33.537 -13.336  -4.070  1.00  0.00     0.198 C 
BRANCH  38  42
HETATM   42  O1  UNL     1     -30.594 -11.386  -5.158  1.00  0.00    -0.391 OA
ATOM     43  H1  UNL     1     -30.199 -11.649  -5.980  1.00  0.00     0.210 HD
ENDBRANCH  38  42
BRANCH  40  44
HETATM   44  N1  UNL     1     -33.403 -11.683  -5.817  1.00  0.00    -0.398 N 
HETATM   45  C1  UNL     1     -34.719 -11.515  -6.139  1.00  0.00     0.112 C 
ATOM     46  H1  UNL     1     -32.744 -11.430  -6.553  1.00  0.00     0.158 HD
ENDBRANCH  40  44
BRANCH  41  47
HETATM   47  O11 UNL     1     -33.154 -13.432  -2.715  1.00  0.00    -0.388 OA
ATOM     48  H11 UNL     1     -33.632 -12.768  -2.233  1.00  0.00     0.210 HD
ENDBRANCH  41  47
ENDBRANCH  34  35
ENDBRANCH   1  34
BRANCH   2  49
HETATM   49  N2  UNL     1     -32.160 -17.766  -5.886  1.00  0.00    -0.072 N 
ATOM     50  H23 UNL     1     -31.941 -18.693  -6.252  1.00  0.00     0.274 HD
ATOM     51  H22 UNL     1     -33.008 -17.562  -6.416  1.00  0.00     0.274 HD
ATOM     52  H21 UNL     1     -31.422 -17.106  -6.131  1.00  0.00     0.274 HD
ENDBRANCH   2  49
TORSDOF 15
ENDMDL
