MODEL 1
REMARK VINA RESULT: -5.878652332      0.000      0.000
REMARK  18 active torsions:
REMARK  status: ('A' for Active; 'I' for Inactive)
REMARK    1  A    between atoms: O1_2  and  C2_3 
REMARK    2  A    between atoms: C3_4  and  S1_5 
REMARK    3  A    between atoms: C5_8  and  O3_9 
REMARK    4  A    between atoms: O3_9  and  C6_10 
REMARK    5  A    between atoms: C7_12  and  C8_13 
REMARK    6  A    between atoms: C8_13  and  O5_14 
REMARK    7  A    between atoms: C9_16  and  N1_17 
REMARK    8  A    between atoms: C10_21  and  O6_22 
REMARK    9  A    between atoms: O6_22  and  C11_23 
REMARK   10  A    between atoms: C12_25  and  O8_26 
REMARK   11  A    between atoms: C13_28  and  N2_29 
REMARK   12  A    between atoms: C14_33  and  O9_34 
REMARK   13  A    between atoms: C15_36  and  C16_37 
REMARK   14  A    between atoms: C16_37  and  N3_38 
REMARK   15  A    between atoms: N3_38  and  C17_40 
REMARK   16  A    between atoms: C17_40  and  N4_42 
REMARK   17  A    between atoms: N4_42  and  N5_44 
REMARK   18  A    between atoms: C18_47  and  O10_48 
ROOT
HETATM    1  C6  UNL     1     -34.169 -18.542   1.183  1.00  0.00     0.298 C 
HETATM    2  O4  UNL     1     -33.119 -18.842   0.285  1.00  0.00    -0.347 OA
HETATM    3  C7  UNL     1     -32.629 -17.796  -0.426  1.00  0.00     0.181 C 
HETATM    4  C9  UNL     1     -33.661 -16.932  -1.077  1.00  0.00     0.247 C 
HETATM    5  C10 UNL     1     -34.718 -16.460  -0.090  1.00  0.00     0.193 C 
HETATM    6  C15 UNL     1     -35.229 -17.754   0.529  1.00  0.00     0.021 C 
ENDROOT
BRANCH   5   7
HETATM    7  O6  UNL     1     -34.243 -15.539   0.794  1.00  0.00    -0.346 OA
BRANCH   7   8
HETATM    8  C11 UNL     1     -34.666 -14.256   0.629  1.00  0.00     0.294 C 
HETATM    9  O7  UNL     1     -35.886 -14.106   0.006  1.00  0.00    -0.327 OA
HETATM   10  C12 UNL     1     -36.043 -12.714   0.066  1.00  0.00     0.293 C 
HETATM   11  C13 UNL     1     -35.812 -12.434   1.534  1.00  0.00     0.271 C 
HETATM   12  C14 UNL     1     -34.812 -13.495   1.935  1.00  0.00     0.208 C 
BRANCH  10  13
HETATM   13  O8  UNL     1     -35.050 -12.156  -0.731  1.00  0.00    -0.369 OA
ATOM     14  H8  UNL     1     -35.380 -11.322  -1.046  1.00  0.00     0.212 HD
ENDBRANCH  10  13
BRANCH  11  15
HETATM   15  N2  UNL     1     -35.276 -11.100   1.731  1.00  0.00    -0.068 N 
ATOM     16  H23 UNL     1     -34.424 -11.116   2.290  1.00  0.00     0.275 HD
ATOM     17  H22 UNL     1     -34.889 -10.719   0.868  1.00  0.00     0.275 HD
ATOM     18  H21 UNL     1     -35.979 -10.480   2.133  1.00  0.00     0.275 HD
ENDBRANCH  11  15
BRANCH  12  19
HETATM   19  O9  UNL     1     -35.410 -14.256   2.929  1.00  0.00    -0.388 OA
ATOM     20  H9  UNL     1     -34.774 -14.669   3.501  1.00  0.00     0.210 HD
ENDBRANCH  12  19
ENDBRANCH   7   8
ENDBRANCH   5   7
BRANCH   4  21
HETATM   21  N1  UNL     1     -33.114 -15.898  -1.876  1.00  0.00    -0.070 N 
ATOM     22  H13 UNL     1     -32.113 -16.040  -2.013  1.00  0.00     0.274 HD
ATOM     23  H12 UNL     1     -33.432 -15.981  -2.841  1.00  0.00     0.274 HD
ATOM     24  H11 UNL     1     -33.299 -14.961  -1.515  1.00  0.00     0.274 HD
ENDBRANCH   4  21
BRANCH   6  25
HETATM   25  C16 UNL     1     -36.539 -17.655   1.198  1.00  0.00     0.101 C 
BRANCH  25  26
HETATM   26  N3  UNL     1     -36.621 -17.111   2.481  1.00  0.00    -0.342 N 
ATOM     27  H3  UNL     1     -35.754 -16.942   2.990  1.00  0.00     0.167 HD
BRANCH  26  28
HETATM   28  C17 UNL     1     -37.838 -16.785   3.110  1.00  0.00     0.190 C 
HETATM   29  S2  UNL     1     -38.651 -17.923   4.003  1.00  0.00    -0.039 SA
BRANCH  28  30
HETATM   30  N4  UNL     1     -38.448 -15.531   3.042  1.00  0.00    -0.283 N 
ATOM     31  H4  UNL     1     -38.982 -15.247   3.863  1.00  0.00     0.188 HD
BRANCH  30  32
HETATM   32  N5  UNL     1     -38.412 -14.621   1.985  1.00  0.00    -0.343 N 
ATOM     33  H52 UNL     1     -38.842 -14.949   1.119  1.00  0.00     0.176 HD
ATOM     34  H51 UNL     1     -38.012 -13.682   1.982  1.00  0.00     0.176 HD
ENDBRANCH  30  32
ENDBRANCH  28  30
ENDBRANCH  26  28
ENDBRANCH  25  26
ENDBRANCH   6  25
BRANCH   3  35
HETATM   35  C8  UNL     1     -31.539 -17.027   0.291  1.00  0.00     0.198 C 
BRANCH  35  36
HETATM   36  O5  UNL     1     -30.530 -17.867   0.684  1.00  0.00    -0.398 OA
ATOM     37  H5  UNL     1     -29.693 -17.566   0.352  1.00  0.00     0.209 HD
ENDBRANCH  35  36
ENDBRANCH   3  35
BRANCH   1  38
HETATM   38  O3  UNL     1     -33.596 -18.065   2.342  1.00  0.00    -0.325 OA
BRANCH  38  39
HETATM   39  C5  UNL     1     -32.997 -19.083   3.012  1.00  0.00     0.296 C 
HETATM   40  O2  UNL     1     -31.661 -18.771   3.365  1.00  0.00    -0.340 OA
HETATM   41  C3  UNL     1     -31.266 -19.984   3.953  1.00  0.00     0.217 C 
HETATM   42  C2  UNL     1     -32.425 -20.464   4.770  1.00  0.00     0.193 C 
HETATM   43  C18 UNL     1     -33.523 -19.478   4.342  1.00  0.00     0.205 C 
BRANCH  41  44
HETATM   44  S1  UNL     1     -29.756 -19.794   4.930  1.00  0.00    -0.139 SA
HETATM   45  C4  UNL     1     -28.873 -18.320   4.395  1.00  0.00     0.092 C 
ENDBRANCH  41  44
BRANCH  42  46
HETATM   46  O1  UNL     1     -32.219 -20.464   6.121  1.00  0.00    -0.385 OA
HETATM   47  C1  UNL     1     -33.214 -21.290   6.694  1.00  0.00     0.202 C 
ENDBRANCH  42  46
BRANCH  43  48
HETATM   48  O10 UNL     1     -33.505 -18.457   5.272  1.00  0.00    -0.388 OA
ATOM     49  H10 UNL     1     -33.974 -18.784   6.031  1.00  0.00     0.210 HD
ENDBRANCH  43  48
ENDBRANCH  38  39
ENDBRANCH   1  38
TORSDOF 18
ENDMDL
MODEL 2
REMARK VINA RESULT: -5.864234782      1.404      1.747
REMARK  18 active torsions:
REMARK  status: ('A' for Active; 'I' for Inactive)
REMARK    1  A    between atoms: O1_2  and  C2_3 
REMARK    2  A    between atoms: C3_4  and  S1_5 
REMARK    3  A    between atoms: C5_8  and  O3_9 
REMARK    4  A    between atoms: O3_9  and  C6_10 
REMARK    5  A    between atoms: C7_12  and  C8_13 
REMARK    6  A    between atoms: C8_13  and  O5_14 
REMARK    7  A    between atoms: C9_16  and  N1_17 
REMARK    8  A    between atoms: C10_21  and  O6_22 
REMARK    9  A    between atoms: O6_22  and  C11_23 
REMARK   10  A    between atoms: C12_25  and  O8_26 
REMARK   11  A    between atoms: C13_28  and  N2_29 
REMARK   12  A    between atoms: C14_33  and  O9_34 
REMARK   13  A    between atoms: C15_36  and  C16_37 
REMARK   14  A    between atoms: C16_37  and  N3_38 
REMARK   15  A    between atoms: N3_38  and  C17_40 
REMARK   16  A    between atoms: C17_40  and  N4_42 
REMARK   17  A    between atoms: N4_42  and  N5_44 
REMARK   18  A    between atoms: C18_47  and  O10_48 
ROOT
HETATM    1  C6  UNL     1     -33.826 -18.736   0.662  1.00  0.00     0.298 C 
HETATM    2  O4  UNL     1     -32.644 -19.110  -0.017  1.00  0.00    -0.347 OA
HETATM    3  C7  UNL     1     -32.037 -18.132  -0.736  1.00  0.00     0.181 C 
HETATM    4  C9  UNL     1     -32.944 -17.346  -1.629  1.00  0.00     0.247 C 
HETATM    5  C10 UNL     1     -34.146 -16.791  -0.880  1.00  0.00     0.193 C 
HETATM    6  C15 UNL     1     -34.759 -18.026  -0.232  1.00  0.00     0.021 C 
ENDROOT
BRANCH   5   7
HETATM    7  O6  UNL     1     -33.819 -15.785  -0.024  1.00  0.00    -0.346 OA
BRANCH   7   8
HETATM    8  C11 UNL     1     -34.699 -14.751   0.072  1.00  0.00     0.294 C 
HETATM    9  O7  UNL     1     -34.368 -13.769   0.980  1.00  0.00    -0.327 OA
HETATM   10  C12 UNL     1     -35.412 -12.857   0.774  1.00  0.00     0.293 C 
HETATM   11  C13 UNL     1     -35.370 -12.662  -0.726  1.00  0.00     0.271 C 
HETATM   12  C14 UNL     1     -34.902 -14.006  -1.235  1.00  0.00     0.208 C 
BRANCH  10  13
HETATM   13  O8  UNL     1     -36.586 -13.480   1.182  1.00  0.00    -0.369 OA
ATOM     14  H8  UNL     1     -37.248 -13.288   0.527  1.00  0.00     0.212 HD
ENDBRANCH  10  13
BRANCH  11  15
HETATM   15  N2  UNL     1     -36.683 -12.327  -1.243  1.00  0.00    -0.068 N 
ATOM     16  H23 UNL     1     -37.332 -13.109  -1.157  1.00  0.00     0.275 HD
ATOM     17  H22 UNL     1     -37.165 -11.658  -0.643  1.00  0.00     0.275 HD
ATOM     18  H21 UNL     1     -36.621 -11.993  -2.206  1.00  0.00     0.275 HD
ENDBRANCH  11  15
BRANCH  12  19
HETATM   19  O9  UNL     1     -33.710 -13.787  -1.911  1.00  0.00    -0.388 OA
ATOM     20  H9  UNL     1     -33.464 -14.522  -2.460  1.00  0.00     0.210 HD
ENDBRANCH  12  19
ENDBRANCH   7   8
ENDBRANCH   5   7
BRANCH   4  21
HETATM   21  N1  UNL     1     -32.267 -16.387  -2.423  1.00  0.00    -0.070 N 
ATOM     22  H13 UNL     1     -31.480 -15.985  -1.911  1.00  0.00     0.274 HD
ATOM     23  H12 UNL     1     -31.761 -16.841  -3.183  1.00  0.00     0.274 HD
ATOM     24  H11 UNL     1     -32.875 -15.652  -2.784  1.00  0.00     0.274 HD
ENDBRANCH   4  21
BRANCH   6  25
HETATM   25  C16 UNL     1     -36.161 -17.876   0.200  1.00  0.00     0.101 C 
BRANCH  25  26
HETATM   26  N3  UNL     1     -36.485 -17.988   1.553  1.00  0.00    -0.342 N 
ATOM     27  H3  UNL     1     -36.720 -18.911   1.919  1.00  0.00     0.167 HD
BRANCH  26  28
HETATM   28  C17 UNL     1     -36.505 -16.894   2.439  1.00  0.00     0.190 C 
HETATM   29  S2  UNL     1     -37.943 -16.347   3.061  1.00  0.00    -0.039 SA
BRANCH  28  30
HETATM   30  N4  UNL     1     -35.370 -16.199   2.857  1.00  0.00    -0.283 N 
ATOM     31  H4  UNL     1     -34.472 -16.622   2.621  1.00  0.00     0.188 HD
BRANCH  30  32
HETATM   32  N5  UNL     1     -35.316 -14.993   3.558  1.00  0.00    -0.343 N 
ATOM     33  H52 UNL     1     -35.359 -14.156   2.979  1.00  0.00     0.176 HD
ATOM     34  H51 UNL     1     -35.241 -14.861   4.567  1.00  0.00     0.176 HD
ENDBRANCH  30  32
ENDBRANCH  28  30
ENDBRANCH  26  28
ENDBRANCH  25  26
ENDBRANCH   6  25
BRANCH   3  35
HETATM   35  C8  UNL     1     -31.077 -17.285   0.073  1.00  0.00     0.198 C 
BRANCH  35  36
HETATM   36  O5  UNL     1     -30.169 -18.075   0.729  1.00  0.00    -0.398 OA
ATOM     37  H5  UNL     1     -30.301 -18.029   1.669  1.00  0.00     0.209 HD
ENDBRANCH  35  36
ENDBRANCH   3  35
BRANCH   1  38
HETATM   38  O3  UNL     1     -33.450 -18.143   1.847  1.00  0.00    -0.325 OA
BRANCH  38  39
HETATM   39  C5  UNL     1     -32.987 -19.087   2.707  1.00  0.00     0.296 C 
HETATM   40  O2  UNL     1     -31.692 -18.775   3.188  1.00  0.00    -0.340 OA
HETATM   41  C3  UNL     1     -31.430 -19.916   3.965  1.00  0.00     0.217 C 
HETATM   42  C2  UNL     1     -32.702 -20.252   4.678  1.00  0.00     0.193 C 
HETATM   43  C18 UNL     1     -33.691 -19.294   3.996  1.00  0.00     0.205 C 
BRANCH  41  44
HETATM   44  S1  UNL     1     -30.045 -19.653   5.096  1.00  0.00    -0.139 SA
HETATM   45  C4  UNL     1     -28.942 -18.402   4.419  1.00  0.00     0.092 C 
ENDBRANCH  41  44
BRANCH  42  46
HETATM   46  O1  UNL     1     -32.664 -20.088   6.035  1.00  0.00    -0.385 OA
HETATM   47  C1  UNL     1     -33.349 -21.187   6.606  1.00  0.00     0.202 C 
ENDBRANCH  42  46
BRANCH  43  48
HETATM   48  O10 UNL     1     -33.739 -18.165   4.791  1.00  0.00    -0.388 OA
ATOM     49  H10 UNL     1     -33.735 -17.424   4.197  1.00  0.00     0.210 HD
ENDBRANCH  43  48
ENDBRANCH  38  39
ENDBRANCH   1  38
TORSDOF 18
ENDMDL
MODEL 3
REMARK VINA RESULT: -5.598694247      0.815      1.202
REMARK  18 active torsions:
REMARK  status: ('A' for Active; 'I' for Inactive)
REMARK    1  A    between atoms: O1_2  and  C2_3 
REMARK    2  A    between atoms: C3_4  and  S1_5 
REMARK    3  A    between atoms: C5_8  and  O3_9 
REMARK    4  A    between atoms: O3_9  and  C6_10 
REMARK    5  A    between atoms: C7_12  and  C8_13 
REMARK    6  A    between atoms: C8_13  and  O5_14 
REMARK    7  A    between atoms: C9_16  and  N1_17 
REMARK    8  A    between atoms: C10_21  and  O6_22 
REMARK    9  A    between atoms: O6_22  and  C11_23 
REMARK   10  A    between atoms: C12_25  and  O8_26 
REMARK   11  A    between atoms: C13_28  and  N2_29 
REMARK   12  A    between atoms: C14_33  and  O9_34 
REMARK   13  A    between atoms: C15_36  and  C16_37 
REMARK   14  A    between atoms: C16_37  and  N3_38 
REMARK   15  A    between atoms: N3_38  and  C17_40 
REMARK   16  A    between atoms: C17_40  and  N4_42 
REMARK   17  A    between atoms: N4_42  and  N5_44 
REMARK   18  A    between atoms: C18_47  and  O10_48 
ROOT
HETATM    1  C6  UNL     1     -33.925 -18.674   1.098  1.00  0.00     0.298 C 
HETATM    2  O4  UNL     1     -32.816 -18.982   0.276  1.00  0.00    -0.347 OA
HETATM    3  C7  UNL     1     -32.292 -17.947  -0.427  1.00  0.00     0.181 C 
HETATM    4  C9  UNL     1     -33.290 -17.110  -1.163  1.00  0.00     0.247 C 
HETATM    5  C10 UNL     1     -34.412 -16.628  -0.257  1.00  0.00     0.193 C 
HETATM    6  C15 UNL     1     -34.948 -17.914   0.358  1.00  0.00     0.021 C 
ENDROOT
BRANCH   5   7
HETATM    7  O6  UNL     1     -34.004 -15.681   0.633  1.00  0.00    -0.346 OA
BRANCH   7   8
HETATM    8  C11 UNL     1     -34.637 -14.478   0.581  1.00  0.00     0.294 C 
HETATM    9  O7  UNL     1     -35.962 -14.517   0.202  1.00  0.00    -0.327 OA
HETATM   10  C12 UNL     1     -36.310 -13.164   0.323  1.00  0.00     0.293 C 
HETATM   11  C13 UNL     1     -35.849 -12.844   1.728  1.00  0.00     0.271 C 
HETATM   12  C14 UNL     1     -34.645 -13.740   1.908  1.00  0.00     0.208 C 
BRANCH  10  13
HETATM   13  O8  UNL     1     -35.580 -12.466  -0.633  1.00  0.00    -0.369 OA
ATOM     14  H8  UNL     1     -35.213 -11.702  -0.203  1.00  0.00     0.212 HD
ENDBRANCH  10  13
BRANCH  11  15
HETATM   15  N2  UNL     1     -35.491 -11.444   1.851  1.00  0.00    -0.068 N 
ATOM     16  H23 UNL     1     -34.479 -11.316   1.878  1.00  0.00     0.275 HD
ATOM     17  H22 UNL     1     -35.689 -10.928   0.994  1.00  0.00     0.275 HD
ATOM     18  H21 UNL     1     -35.946 -11.020   2.659  1.00  0.00     0.275 HD
ENDBRANCH  11  15
BRANCH  12  19
HETATM   19  O9  UNL     1     -34.924 -14.578   2.979  1.00  0.00    -0.388 OA
ATOM     20  H9  UNL     1     -34.822 -14.142   3.816  1.00  0.00     0.210 HD
ENDBRANCH  12  19
ENDBRANCH   7   8
ENDBRANCH   5   7
BRANCH   4  21
HETATM   21  N1  UNL     1     -32.703 -16.088  -1.949  1.00  0.00    -0.070 N 
ATOM     22  H13 UNL     1     -31.696 -16.230  -2.032  1.00  0.00     0.274 HD
ATOM     23  H12 UNL     1     -32.970 -16.188  -2.929  1.00  0.00     0.274 HD
ATOM     24  H11 UNL     1     -32.908 -15.146  -1.614  1.00  0.00     0.274 HD
ENDBRANCH   4  21
BRANCH   6  25
HETATM   25  C16 UNL     1     -36.299 -17.814   0.940  1.00  0.00     0.101 C 
BRANCH  25  26
HETATM   26  N3  UNL     1     -36.487 -17.131   2.143  1.00  0.00    -0.342 N 
ATOM     27  H3  UNL     1     -36.013 -16.236   2.269  1.00  0.00     0.167 HD
BRANCH  26  28
HETATM   28  C17 UNL     1     -37.295 -17.611   3.191  1.00  0.00     0.190 C 
HETATM   29  S2  UNL     1     -38.730 -16.860   3.553  1.00  0.00    -0.039 SA
BRANCH  28  30
HETATM   30  N4  UNL     1     -36.979 -18.713   3.987  1.00  0.00    -0.283 N 
ATOM     31  H4  UNL     1     -36.020 -19.054   3.921  1.00  0.00     0.188 HD
BRANCH  30  32
HETATM   32  N5  UNL     1     -37.819 -19.403   4.862  1.00  0.00    -0.343 N 
ATOM     33  H52 UNL     1     -38.276 -18.824   5.566  1.00  0.00     0.176 HD
ATOM     34  H51 UNL     1     -38.021 -20.403   4.874  1.00  0.00     0.176 HD
ENDBRANCH  30  32
ENDBRANCH  28  30
ENDBRANCH  26  28
ENDBRANCH  25  26
ENDBRANCH   6  25
BRANCH   3  35
HETATM   35  C8  UNL     1     -31.258 -17.148   0.340  1.00  0.00     0.198 C 
BRANCH  35  36
HETATM   36  O5  UNL     1     -30.266 -17.966   0.812  1.00  0.00    -0.398 OA
ATOM     37  H5  UNL     1     -30.011 -18.601   0.152  1.00  0.00     0.209 HD
ENDBRANCH  35  36
ENDBRANCH   3  35
BRANCH   1  38
HETATM   38  O3  UNL     1     -33.432 -18.163   2.279  1.00  0.00    -0.325 OA
BRANCH  38  39
HETATM   39  C5  UNL     1     -32.846 -19.154   3.000  1.00  0.00     0.296 C 
HETATM   40  O2  UNL     1     -31.541 -18.803   3.420  1.00  0.00    -0.340 OA
HETATM   41  C3  UNL     1     -31.149 -19.995   4.052  1.00  0.00     0.217 C 
HETATM   42  C2  UNL     1     -32.340 -20.490   4.812  1.00  0.00     0.193 C 
HETATM   43  C18 UNL     1     -33.435 -19.539   4.306  1.00  0.00     0.205 C 
BRANCH  41  44
HETATM   44  S1  UNL     1     -29.701 -19.751   5.106  1.00  0.00    -0.139 SA
HETATM   45  C4  UNL     1     -28.773 -18.319   4.534  1.00  0.00     0.092 C 
ENDBRANCH  41  44
BRANCH  42  46
HETATM   46  O1  UNL     1     -32.209 -20.461   6.173  1.00  0.00    -0.385 OA
HETATM   47  C1  UNL     1     -33.230 -21.282   6.706  1.00  0.00     0.202 C 
ENDBRANCH  42  46
BRANCH  43  48
HETATM   48  O10 UNL     1     -33.494 -18.502   5.216  1.00  0.00    -0.388 OA
ATOM     49  H10 UNL     1     -32.937 -18.757   5.943  1.00  0.00     0.210 HD
ENDBRANCH  43  48
ENDBRANCH  38  39
ENDBRANCH   1  38
TORSDOF 18
ENDMDL
MODEL 4
REMARK VINA RESULT: -5.523360377      1.384      1.492
REMARK  18 active torsions:
REMARK  status: ('A' for Active; 'I' for Inactive)
REMARK    1  A    between atoms: O1_2  and  C2_3 
REMARK    2  A    between atoms: C3_4  and  S1_5 
REMARK    3  A    between atoms: C5_8  and  O3_9 
REMARK    4  A    between atoms: O3_9  and  C6_10 
REMARK    5  A    between atoms: C7_12  and  C8_13 
REMARK    6  A    between atoms: C8_13  and  O5_14 
REMARK    7  A    between atoms: C9_16  and  N1_17 
REMARK    8  A    between atoms: C10_21  and  O6_22 
REMARK    9  A    between atoms: O6_22  and  C11_23 
REMARK   10  A    between atoms: C12_25  and  O8_26 
REMARK   11  A    between atoms: C13_28  and  N2_29 
REMARK   12  A    between atoms: C14_33  and  O9_34 
REMARK   13  A    between atoms: C15_36  and  C16_37 
REMARK   14  A    between atoms: C16_37  and  N3_38 
REMARK   15  A    between atoms: N3_38  and  C17_40 
REMARK   16  A    between atoms: C17_40  and  N4_42 
REMARK   17  A    between atoms: N4_42  and  N5_44 
REMARK   18  A    between atoms: C18_47  and  O10_48 
ROOT
HETATM    1  C6  UNL     1     -34.225 -19.062   0.503  1.00  0.00     0.298 C 
HETATM    2  O4  UNL     1     -33.141 -19.221  -0.392  1.00  0.00    -0.347 OA
HETATM    3  C7  UNL     1     -32.896 -18.175  -1.221  1.00  0.00     0.181 C 
HETATM    4  C9  UNL     1     -34.098 -17.629  -1.925  1.00  0.00     0.247 C 
HETATM    5  C10 UNL     1     -35.224 -17.294  -0.960  1.00  0.00     0.193 C 
HETATM    6  C15 UNL     1     -35.436 -18.596  -0.197  1.00  0.00     0.021 C 
ENDROOT
BRANCH   5   7
HETATM    7  O6  UNL     1     -34.955 -16.204  -0.190  1.00  0.00    -0.346 OA
BRANCH   7   8
HETATM    8  C11 UNL     1     -35.711 -15.095  -0.413  1.00  0.00     0.294 C 
HETATM    9  O7  UNL     1     -36.875 -15.009   0.319  1.00  0.00    -0.327 OA
HETATM   10  C12 UNL     1     -37.351 -13.755  -0.089  1.00  0.00     0.293 C 
HETATM   11  C13 UNL     1     -36.147 -12.869   0.146  1.00  0.00     0.271 C 
HETATM   12  C14 UNL     1     -34.981 -13.796  -0.117  1.00  0.00     0.208 C 
BRANCH  10  13
HETATM   13  O8  UNL     1     -37.665 -13.855  -1.439  1.00  0.00    -0.369 OA
ATOM     14  H8  UNL     1     -37.800 -12.971  -1.762  1.00  0.00     0.212 HD
ENDBRANCH  10  13
BRANCH  11  15
HETATM   15  N2  UNL     1     -36.144 -11.743  -0.769  1.00  0.00    -0.068 N 
ATOM     16  H23 UNL     1     -35.473 -11.875  -1.525  1.00  0.00     0.275 HD
ATOM     17  H22 UNL     1     -36.999 -11.707  -1.324  1.00  0.00     0.275 HD
ATOM     18  H21 UNL     1     -35.982 -10.868  -0.270  1.00  0.00     0.275 HD
ENDBRANCH  11  15
BRANCH  12  19
HETATM   19  O9  UNL     1     -34.244 -13.858   1.058  1.00  0.00    -0.388 OA
ATOM     20  H9  UNL     1     -33.332 -14.070   0.902  1.00  0.00     0.210 HD
ENDBRANCH  12  19
ENDBRANCH   7   8
ENDBRANCH   5   7
BRANCH   4  21
HETATM   21  N1  UNL     1     -33.795 -16.592  -2.841  1.00  0.00    -0.070 N 
ATOM     22  H13 UNL     1     -34.648 -16.224  -3.263  1.00  0.00     0.274 HD
ATOM     23  H12 UNL     1     -33.475 -15.758  -2.349  1.00  0.00     0.274 HD
ATOM     24  H11 UNL     1     -33.125 -16.864  -3.561  1.00  0.00     0.274 HD
ENDBRANCH   4  21
BRANCH   6  25
HETATM   25  C16 UNL     1     -36.731 -18.712   0.499  1.00  0.00     0.101 C 
BRANCH  25  26
HETATM   26  N3  UNL     1     -36.780 -18.617   1.890  1.00  0.00    -0.342 N 
ATOM     27  H3  UNL     1     -36.771 -19.481   2.434  1.00  0.00     0.167 HD
BRANCH  26  28
HETATM   28  C17 UNL     1     -36.843 -17.393   2.584  1.00  0.00     0.190 C 
HETATM   29  S2  UNL     1     -38.287 -16.851   3.195  1.00  0.00    -0.039 SA
BRANCH  28  30
HETATM   30  N4  UNL     1     -35.747 -16.560   2.810  1.00  0.00    -0.283 N 
ATOM     31  H4  UNL     1     -34.828 -16.988   2.700  1.00  0.00     0.188 HD
BRANCH  30  32
HETATM   32  N5  UNL     1     -35.759 -15.211   3.168  1.00  0.00    -0.343 N 
ATOM     33  H52 UNL     1     -34.958 -14.671   2.839  1.00  0.00     0.176 HD
ATOM     34  H51 UNL     1     -36.466 -14.716   3.712  1.00  0.00     0.176 HD
ENDBRANCH  30  32
ENDBRANCH  28  30
ENDBRANCH  26  28
ENDBRANCH  25  26
ENDBRANCH   6  25
BRANCH   3  35
HETATM   35  C8  UNL     1     -31.995 -17.116  -0.620  1.00  0.00     0.198 C 
BRANCH  35  36
HETATM   36  O5  UNL     1     -31.049 -17.688   0.190  1.00  0.00    -0.398 OA
ATOM     37  H5  UNL     1     -30.175 -17.431  -0.081  1.00  0.00     0.209 HD
ENDBRANCH  35  36
ENDBRANCH   3  35
BRANCH   1  38
HETATM   38  O3  UNL     1     -33.761 -18.351   1.588  1.00  0.00    -0.325 OA
BRANCH  38  39
HETATM   39  C5  UNL     1     -33.187 -19.198   2.481  1.00  0.00     0.296 C 
HETATM   40  O2  UNL     1     -31.901 -18.757   2.879  1.00  0.00    -0.340 OA
HETATM   41  C3  UNL     1     -31.515 -19.821   3.711  1.00  0.00     0.217 C 
HETATM   42  C2  UNL     1     -32.724 -20.207   4.504  1.00  0.00     0.193 C 
HETATM   43  C18 UNL     1     -33.815 -19.374   3.814  1.00  0.00     0.205 C 
BRANCH  41  44
HETATM   44  S1  UNL     1     -30.108 -19.378   4.756  1.00  0.00    -0.139 SA
HETATM   45  C4  UNL     1     -29.026 -18.250   3.864  1.00  0.00     0.092 C 
ENDBRANCH  41  44
BRANCH  42  46
HETATM   46  O1  UNL     1     -32.641 -19.952   5.845  1.00  0.00    -0.385 OA
HETATM   47  C1  UNL     1     -33.186 -21.072   6.516  1.00  0.00     0.202 C 
ENDBRANCH  42  46
BRANCH  43  48
HETATM   48  O10 UNL     1     -33.920 -18.203   4.538  1.00  0.00    -0.388 OA
ATOM     49  H10 UNL     1     -34.771 -17.838   4.328  1.00  0.00     0.210 HD
ENDBRANCH  43  48
ENDBRANCH  38  39
ENDBRANCH   1  38
TORSDOF 18
ENDMDL
MODEL 5
REMARK VINA RESULT: -5.265178167      4.274      5.534
REMARK  18 active torsions:
REMARK  status: ('A' for Active; 'I' for Inactive)
REMARK    1  A    between atoms: O1_2  and  C2_3 
REMARK    2  A    between atoms: C3_4  and  S1_5 
REMARK    3  A    between atoms: C5_8  and  O3_9 
REMARK    4  A    between atoms: O3_9  and  C6_10 
REMARK    5  A    between atoms: C7_12  and  C8_13 
REMARK    6  A    between atoms: C8_13  and  O5_14 
REMARK    7  A    between atoms: C9_16  and  N1_17 
REMARK    8  A    between atoms: C10_21  and  O6_22 
REMARK    9  A    between atoms: O6_22  and  C11_23 
REMARK   10  A    between atoms: C12_25  and  O8_26 
REMARK   11  A    between atoms: C13_28  and  N2_29 
REMARK   12  A    between atoms: C14_33  and  O9_34 
REMARK   13  A    between atoms: C15_36  and  C16_37 
REMARK   14  A    between atoms: C16_37  and  N3_38 
REMARK   15  A    between atoms: N3_38  and  C17_40 
REMARK   16  A    between atoms: C17_40  and  N4_42 
REMARK   17  A    between atoms: N4_42  and  N5_44 
REMARK   18  A    between atoms: C18_47  and  O10_48 
ROOT
HETATM    1  C6  UNL     1     -34.090 -15.382  -2.150  1.00  0.00     0.298 C 
HETATM    2  O4  UNL     1     -34.181 -16.239  -3.270  1.00  0.00    -0.347 OA
HETATM    3  C7  UNL     1     -33.660 -15.761  -4.428  1.00  0.00     0.181 C 
HETATM    4  C9  UNL     1     -34.074 -14.368  -4.782  1.00  0.00     0.247 C 
HETATM    5  C10 UNL     1     -33.831 -13.391  -3.642  1.00  0.00     0.193 C 
HETATM    6  C15 UNL     1     -34.568 -14.025  -2.469  1.00  0.00     0.021 C 
ENDROOT
BRANCH   5   7
HETATM    7  O6  UNL     1     -32.509 -13.139  -3.433  1.00  0.00    -0.346 OA
BRANCH   7   8
HETATM    8  C11 UNL     1     -32.085 -11.865  -3.659  1.00  0.00     0.294 C 
HETATM    9  O7  UNL     1     -31.086 -11.413  -2.824  1.00  0.00    -0.327 OA
HETATM   10  C12 UNL     1     -30.847 -10.142  -3.364  1.00  0.00     0.293 C 
HETATM   11  C13 UNL     1     -30.637 -10.456  -4.829  1.00  0.00     0.271 C 
HETATM   12  C14 UNL     1     -31.535 -11.650  -5.058  1.00  0.00     0.208 C 
BRANCH  10  13
HETATM   13  O8  UNL     1     -31.995  -9.386  -3.156  1.00  0.00    -0.369 OA
ATOM     14  H8  UNL     1     -31.865  -8.553  -3.594  1.00  0.00     0.212 HD
ENDBRANCH  10  13
BRANCH  11  15
HETATM   15  N2  UNL     1     -31.026  -9.333  -5.662  1.00  0.00    -0.068 N 
ATOM     16  H23 UNL     1     -30.416  -8.529  -5.517  1.00  0.00     0.275 HD
ATOM     17  H22 UNL     1     -30.823  -9.507  -6.646  1.00  0.00     0.275 HD
ATOM     18  H21 UNL     1     -32.007  -9.093  -5.516  1.00  0.00     0.275 HD
ENDBRANCH  11  15
BRANCH  12  19
HETATM   19  O9  UNL     1     -30.720 -12.693  -5.474  1.00  0.00    -0.388 OA
ATOM     20  H9  UNL     1     -31.172 -13.528  -5.474  1.00  0.00     0.210 HD
ENDBRANCH  12  19
ENDBRANCH   7   8
ENDBRANCH   5   7
BRANCH   4  21
HETATM   21  N1  UNL     1     -33.575 -13.929  -6.034  1.00  0.00    -0.070 N 
ATOM     22  H13 UNL     1     -33.947 -13.007  -6.267  1.00  0.00     0.274 HD
ATOM     23  H12 UNL     1     -32.583 -13.701  -5.968  1.00  0.00     0.274 HD
ATOM     24  H11 UNL     1     -33.743 -14.588  -6.794  1.00  0.00     0.274 HD
ENDBRANCH   4  21
BRANCH   6  25
HETATM   25  C16 UNL     1     -34.872 -13.111  -1.352  1.00  0.00     0.101 C 
BRANCH  25  26
HETATM   26  N3  UNL     1     -34.970 -13.613  -0.054  1.00  0.00    -0.342 N 
ATOM     27  H3  UNL     1     -34.880 -14.620   0.082  1.00  0.00     0.167 HD
BRANCH  26  28
HETATM   28  C17 UNL     1     -35.187 -12.804   1.077  1.00  0.00     0.190 C 
HETATM   29  S2  UNL     1     -35.768 -11.259   0.902  1.00  0.00    -0.039 SA
BRANCH  28  30
HETATM   30  N4  UNL     1     -34.943 -13.206   2.391  1.00  0.00    -0.283 N 
ATOM     31  H4  UNL     1     -34.480 -12.523   2.991  1.00  0.00     0.188 HD
BRANCH  30  32
HETATM   32  N5  UNL     1     -35.258 -14.430   2.982  1.00  0.00    -0.343 N 
ATOM     33  H52 UNL     1     -35.220 -15.233   2.354  1.00  0.00     0.176 HD
ATOM     34  H51 UNL     1     -35.517 -14.607   3.953  1.00  0.00     0.176 HD
ENDBRANCH  30  32
ENDBRANCH  28  30
ENDBRANCH  26  28
ENDBRANCH  25  26
ENDBRANCH   6  25
BRANCH   3  35
HETATM   35  C8  UNL     1     -32.177 -16.026  -4.586  1.00  0.00     0.198 C 
BRANCH  35  36
HETATM   36  O5  UNL     1     -31.872 -16.310  -5.892  1.00  0.00    -0.398 OA
ATOM     37  H5  UNL     1     -32.614 -16.711  -6.330  1.00  0.00     0.209 HD
ENDBRANCH  35  36
ENDBRANCH   3  35
BRANCH   1  38
HETATM   38  O3  UNL     1     -32.832 -15.541  -1.611  1.00  0.00    -0.325 OA
BRANCH  38  39
HETATM   39  C5  UNL     1     -32.798 -16.663  -0.846  1.00  0.00     0.296 C 
HETATM   40  O2  UNL     1     -31.491 -16.946  -0.379  1.00  0.00    -0.340 OA
HETATM   41  C3  UNL     1     -31.720 -18.158   0.294  1.00  0.00     0.217 C 
HETATM   42  C2  UNL     1     -33.024 -18.011   1.014  1.00  0.00     0.193 C 
HETATM   43  C18 UNL     1     -33.534 -16.678   0.442  1.00  0.00     0.205 C 
BRANCH  41  44
HETATM   44  S1  UNL     1     -30.355 -18.578   1.402  1.00  0.00    -0.139 SA
HETATM   45  C4  UNL     1     -29.287 -17.145   1.612  1.00  0.00     0.092 C 
ENDBRANCH  41  44
BRANCH  42  46
HETATM   46  O1  UNL     1     -32.932 -17.995   2.378  1.00  0.00    -0.385 OA
HETATM   47  C1  UNL     1     -33.913 -18.887   2.871  1.00  0.00     0.202 C 
ENDBRANCH  42  46
BRANCH  43  48
HETATM   48  O10 UNL     1     -33.125 -15.700   1.328  1.00  0.00    -0.388 OA
ATOM     49  H10 UNL     1     -33.911 -15.396   1.766  1.00  0.00     0.210 HD
ENDBRANCH  43  48
ENDBRANCH  38  39
ENDBRANCH   1  38
TORSDOF 18
ENDMDL
