MODEL 1
REMARK VINA RESULT: -6.290848607      0.000      0.000
REMARK  17 active torsions:
REMARK  status: ('A' for Active; 'I' for Inactive)
REMARK    1  A    between atoms: C2_2  and  O1_3 
REMARK    2  A    between atoms: C2_2  and  C3_5 
REMARK    3  A    between atoms: C3_5  and  C4_6 
REMARK    4  A    between atoms: C5_8  and  O3_9 
REMARK    5  A    between atoms: O3_9  and  C6_10 
REMARK    6  A    between atoms: C7_12  and  O5_13 
REMARK    7  A    between atoms: O5_13  and  C8_14 
REMARK    8  A    between atoms: C9_16  and  C10_17 
REMARK    9  A    between atoms: C10_17  and  N1_18 
REMARK   10  A    between atoms: C11_22  and  O7_23 
REMARK   11  A    between atoms: C12_25  and  O8_26 
REMARK   12  A    between atoms: C13_28  and  N2_29 
REMARK   13  A    between atoms: C14_34  and  C15_35 
REMARK   14  A    between atoms: C15_35  and  N3_36 
REMARK   15  A    between atoms: C17_41  and  O10_42 
REMARK   16  A    between atoms: C18_44  and  N6_45 
REMARK   17  A    between atoms: C19_49  and  O11_50 
ROOT
HETATM    1  C6  UNL     1     -31.579 -17.724   0.126  1.00  0.00     0.299 C 
HETATM    2  O4  UNL     1     -32.499 -16.972   0.831  1.00  0.00    -0.305 OA
HETATM    3  C7  UNL     1     -33.334 -17.906   1.403  1.00  0.00     0.418 C 
HETATM    4  O9  UNL     1     -32.479 -18.854   1.927  1.00  0.00    -0.327 OA
HETATM    5  C14 UNL     1     -31.351 -18.847   1.156  1.00  0.00     0.200 C 
ENDROOT
BRANCH   1   6
HETATM    6  O3  UNL     1     -32.152 -18.197  -1.028  1.00  0.00    -0.326 OA
BRANCH   6   7
HETATM    7  C5  UNL     1     -32.683 -17.232  -1.839  1.00  0.00     0.295 C 
HETATM    8  O2  UNL     1     -31.746 -16.286  -2.094  1.00  0.00    -0.339 OA
HETATM    9  C4  UNL     1     -31.629 -15.841  -3.400  1.00  0.00     0.224 C 
HETATM   10  C19 UNL     1     -33.013 -15.528  -3.990  1.00  0.00     0.191 C 
HETATM   11  C18 UNL     1     -33.881 -16.735  -3.947  1.00  0.00     0.248 C 
HETATM   12  C17 UNL     1     -33.247 -17.865  -3.115  1.00  0.00     0.206 C 
BRANCH   9  13
HETATM   13  C3  UNL     1     -30.881 -16.604  -4.335  1.00  0.00    -0.118 C 
BRANCH  13  14
HETATM   14  C2  UNL     1     -30.210 -17.290  -5.174  1.00  0.00     0.182 C 
HETATM   15  C1  UNL     1     -31.011 -18.194  -6.140  1.00  0.00     0.052 C 
BRANCH  14  16
HETATM   16  O1  UNL     1     -28.849 -17.400  -5.407  1.00  0.00    -0.385 OA
ATOM     17  H1  UNL     1     -28.378 -17.553  -4.596  1.00  0.00     0.211 HD
ENDBRANCH  14  16
ENDBRANCH  13  14
ENDBRANCH   9  13
BRANCH  10  18
HETATM   18  O11 UNL     1     -33.574 -14.403  -3.375  1.00  0.00    -0.390 OA
ATOM     19  H11 UNL     1     -34.258 -14.026  -3.918  1.00  0.00     0.210 HD
ENDBRANCH  10  18
BRANCH  11  20
HETATM   20  N6  UNL     1     -34.331 -17.255  -5.189  1.00  0.00    -0.070 N 
ATOM     21  H63 UNL     1     -34.189 -16.597  -5.956  1.00  0.00     0.274 HD
ATOM     22  H62 UNL     1     -33.734 -18.008  -5.530  1.00  0.00     0.274 HD
ATOM     23  H61 UNL     1     -35.305 -17.543  -5.105  1.00  0.00     0.274 HD
ENDBRANCH  11  20
BRANCH  12  24
HETATM   24  O10 UNL     1     -34.321 -18.664  -2.725  1.00  0.00    -0.388 OA
ATOM     25  H10 UNL     1     -34.727 -18.985  -3.522  1.00  0.00     0.210 HD
ENDBRANCH  12  24
ENDBRANCH   6   7
ENDBRANCH   1   6
BRANCH   5  26
HETATM   26  C15 UNL     1     -30.202 -18.310   2.036  1.00  0.00     0.159 C 
BRANCH  26  27
HETATM   27  N3  UNL     1     -29.765 -17.103   1.428  1.00  0.00    -0.364 N 
HETATM   28  C16 UNL     1     -28.628 -16.599   1.264  1.00  0.00     0.197 C 
HETATM   29  N4  UNL     1     -28.566 -15.321   0.578  1.00  0.00    -0.067 NA
HETATM   30  N5  UNL     1     -27.410 -17.165   1.687  1.00  0.00    -0.067 NA
ATOM     31  H3  UNL     1     -30.524 -16.535   1.050  1.00  0.00     0.161 HD
ENDBRANCH  26  27
ENDBRANCH   5  26
BRANCH   3  32
HETATM   32  O5  UNL     1     -34.057 -17.355   2.443  1.00  0.00    -0.306 OA
BRANCH  32  33
HETATM   33  C8  UNL     1     -35.038 -16.492   1.980  1.00  0.00     0.298 C 
HETATM   34  O6  UNL     1     -35.236 -16.667   0.661  1.00  0.00    -0.349 OA
HETATM   35  C9  UNL     1     -35.990 -15.697   0.025  1.00  0.00     0.181 C 
HETATM   36  C11 UNL     1     -35.091 -14.445   0.014  1.00  0.00     0.179 C 
HETATM   37  C12 UNL     1     -34.944 -14.013   1.445  1.00  0.00     0.184 C 
HETATM   38  C13 UNL     1     -34.587 -15.099   2.386  1.00  0.00     0.269 C 
BRANCH  35  39
HETATM   39  C10 UNL     1     -36.280 -16.099  -1.414  1.00  0.00     0.264 C 
BRANCH  39  40
HETATM   40  N1  UNL     1     -36.420 -14.938  -2.264  1.00  0.00    -0.077 N 
ATOM     41  H13 UNL     1     -37.394 -14.772  -2.514  1.00  0.00     0.274 HD
ATOM     42  H12 UNL     1     -36.240 -14.075  -1.752  1.00  0.00     0.274 HD
ATOM     43  H11 UNL     1     -35.828 -15.013  -3.092  1.00  0.00     0.274 HD
ENDBRANCH  39  40
ENDBRANCH  35  39
BRANCH  36  44
HETATM   44  O7  UNL     1     -33.849 -14.814  -0.531  1.00  0.00    -0.390 OA
ATOM     45  H7  UNL     1     -33.515 -14.071  -1.019  1.00  0.00     0.210 HD
ENDBRANCH  36  44
BRANCH  37  46
HETATM   46  O8  UNL     1     -36.112 -13.332   1.802  1.00  0.00    -0.391 OA
ATOM     47  H8  UNL     1     -36.552 -13.847   2.468  1.00  0.00     0.210 HD
ENDBRANCH  37  46
BRANCH  38  48
HETATM   48  N2  UNL     1     -35.273 -14.808   3.656  1.00  0.00    -0.068 N 
ATOM     49  H23 UNL     1     -36.024 -15.463   3.873  1.00  0.00     0.275 HD
ATOM     50  H22 UNL     1     -34.704 -14.997   4.481  1.00  0.00     0.275 HD
ATOM     51  H21 UNL     1     -35.584 -13.838   3.589  1.00  0.00     0.275 HD
ENDBRANCH  38  48
ENDBRANCH  32  33
ENDBRANCH   3  32
TORSDOF 17
ENDMDL
MODEL 2
REMARK VINA RESULT: -6.163632224      2.525      5.617
REMARK  17 active torsions:
REMARK  status: ('A' for Active; 'I' for Inactive)
REMARK    1  A    between atoms: C2_2  and  O1_3 
REMARK    2  A    between atoms: C2_2  and  C3_5 
REMARK    3  A    between atoms: C3_5  and  C4_6 
REMARK    4  A    between atoms: C5_8  and  O3_9 
REMARK    5  A    between atoms: O3_9  and  C6_10 
REMARK    6  A    between atoms: C7_12  and  O5_13 
REMARK    7  A    between atoms: O5_13  and  C8_14 
REMARK    8  A    between atoms: C9_16  and  C10_17 
REMARK    9  A    between atoms: C10_17  and  N1_18 
REMARK   10  A    between atoms: C11_22  and  O7_23 
REMARK   11  A    between atoms: C12_25  and  O8_26 
REMARK   12  A    between atoms: C13_28  and  N2_29 
REMARK   13  A    between atoms: C14_34  and  C15_35 
REMARK   14  A    between atoms: C15_35  and  N3_36 
REMARK   15  A    between atoms: C17_41  and  O10_42 
REMARK   16  A    between atoms: C18_44  and  N6_45 
REMARK   17  A    between atoms: C19_49  and  O11_50 
ROOT
HETATM    1  C6  UNL     1     -32.380 -16.978  -2.510  1.00  0.00     0.299 C 
HETATM    2  O4  UNL     1     -33.680 -16.511  -2.508  1.00  0.00    -0.305 OA
HETATM    3  C7  UNL     1     -33.561 -15.180  -2.175  1.00  0.00     0.418 C 
HETATM    4  O9  UNL     1     -32.529 -14.719  -2.966  1.00  0.00    -0.327 OA
HETATM    5  C14 UNL     1     -31.698 -15.780  -3.198  1.00  0.00     0.200 C 
ENDROOT
BRANCH   1   6
HETATM    6  O3  UNL     1     -31.943 -17.144  -1.221  1.00  0.00    -0.326 OA
BRANCH   6   7
HETATM    7  C5  UNL     1     -32.408 -18.272  -0.601  1.00  0.00     0.295 C 
HETATM    8  O2  UNL     1     -31.395 -19.163  -0.458  1.00  0.00    -0.339 OA
HETATM    9  C4  UNL     1     -31.279 -19.804   0.763  1.00  0.00     0.224 C 
HETATM   10  C19 UNL     1     -32.646 -20.328   1.230  1.00  0.00     0.191 C 
HETATM   11  C18 UNL     1     -33.621 -19.210   1.341  1.00  0.00     0.248 C 
HETATM   12  C17 UNL     1     -33.069 -17.908   0.733  1.00  0.00     0.206 C 
BRANCH   9  13
HETATM   13  C3  UNL     1     -30.636 -19.144   1.843  1.00  0.00    -0.118 C 
BRANCH  13  14
HETATM   14  C2  UNL     1     -30.057 -18.550   2.811  1.00  0.00     0.182 C 
HETATM   15  C1  UNL     1     -30.140 -19.227   4.199  1.00  0.00     0.052 C 
BRANCH  14  16
HETATM   16  O1  UNL     1     -29.340 -17.367   2.881  1.00  0.00    -0.385 OA
ATOM     17  H1  UNL     1     -29.899 -16.647   3.148  1.00  0.00     0.211 HD
ENDBRANCH  14  16
ENDBRANCH  13  14
ENDBRANCH   9  13
BRANCH  10  18
HETATM   18  O11 UNL     1     -33.080 -21.381   0.417  1.00  0.00    -0.390 OA
ATOM     19  H11 UNL     1     -33.760 -21.885   0.850  1.00  0.00     0.210 HD
ENDBRANCH  10  18
BRANCH  11  20
HETATM   20  N6  UNL     1     -34.156 -18.943   2.629  1.00  0.00    -0.070 N 
ATOM     21  H63 UNL     1     -34.407 -17.961   2.745  1.00  0.00     0.274 HD
ATOM     22  H62 UNL     1     -35.085 -19.346   2.750  1.00  0.00     0.274 HD
ATOM     23  H61 UNL     1     -33.502 -19.261   3.343  1.00  0.00     0.274 HD
ENDBRANCH  11  20
BRANCH  12  24
HETATM   24  O10 UNL     1     -34.199 -17.152   0.427  1.00  0.00    -0.388 OA
ATOM     25  H10 UNL     1     -34.953 -17.694   0.625  1.00  0.00     0.210 HD
ENDBRANCH  12  24
ENDBRANCH   6   7
ENDBRANCH   1   6
BRANCH   5  26
HETATM   26  C15 UNL     1     -31.797 -16.114  -4.701  1.00  0.00     0.159 C 
BRANCH  26  27
HETATM   27  N3  UNL     1     -31.218 -17.402  -4.862  1.00  0.00    -0.364 N 
HETATM   28  C16 UNL     1     -30.057 -17.781  -5.147  1.00  0.00     0.197 C 
HETATM   29  N4  UNL     1     -29.830 -19.212  -5.222  1.00  0.00    -0.067 NA
HETATM   30  N5  UNL     1     -28.957 -16.938  -5.396  1.00  0.00    -0.067 NA
ATOM     31  H3  UNL     1     -31.876 -18.168  -4.719  1.00  0.00     0.161 HD
ENDBRANCH  26  27
ENDBRANCH   5  26
BRANCH   3  32
HETATM   32  O5  UNL     1     -34.706 -14.481  -2.509  1.00  0.00    -0.306 OA
BRANCH  32  33
HETATM   33  C8  UNL     1     -35.173 -13.729  -1.441  1.00  0.00     0.298 C 
HETATM   34  O6  UNL     1     -34.660 -14.184  -0.284  1.00  0.00    -0.349 OA
HETATM   35  C9  UNL     1     -35.245 -13.698   0.872  1.00  0.00     0.181 C 
HETATM   36  C11 UNL     1     -36.644 -14.345   0.907  1.00  0.00     0.179 C 
HETATM   37  C12 UNL     1     -37.410 -13.764  -0.246  1.00  0.00     0.184 C 
HETATM   38  C13 UNL     1     -36.688 -13.774  -1.539  1.00  0.00     0.269 C 
BRANCH  35  39
HETATM   39  C10 UNL     1     -34.468 -14.154   2.100  1.00  0.00     0.264 C 
BRANCH  39  40
HETATM   40  N1  UNL     1     -35.359 -14.617   3.140  1.00  0.00    -0.077 N 
ATOM     41  H13 UNL     1     -36.021 -15.307   2.787  1.00  0.00     0.274 HD
ATOM     42  H12 UNL     1     -34.871 -15.202   3.818  1.00  0.00     0.274 HD
ATOM     43  H11 UNL     1     -35.835 -13.837   3.593  1.00  0.00     0.274 HD
ENDBRANCH  39  40
ENDBRANCH  35  39
BRANCH  36  44
HETATM   44  O7  UNL     1     -36.477 -15.733   0.753  1.00  0.00    -0.390 OA
ATOM     45  H7  UNL     1     -37.277 -16.079   0.373  1.00  0.00     0.210 HD
ENDBRANCH  36  44
BRANCH  37  46
HETATM   46  O8  UNL     1     -37.847 -12.491   0.136  1.00  0.00    -0.391 OA
ATOM     47  H8  UNL     1     -38.523 -12.224  -0.475  1.00  0.00     0.210 HD
ENDBRANCH  37  46
BRANCH  38  48
HETATM   48  N2  UNL     1     -37.082 -12.550  -2.257  1.00  0.00    -0.068 N 
ATOM     49  H23 UNL     1     -38.084 -12.362  -2.223  1.00  0.00     0.275 HD
ATOM     50  H22 UNL     1     -36.780 -11.691  -1.797  1.00  0.00     0.275 HD
ATOM     51  H21 UNL     1     -36.719 -12.654  -3.206  1.00  0.00     0.275 HD
ENDBRANCH  38  48
ENDBRANCH  32  33
ENDBRANCH   3  32
TORSDOF 17
ENDMDL
MODEL 3
REMARK VINA RESULT: -6.158880388      1.455      2.369
REMARK  17 active torsions:
REMARK  status: ('A' for Active; 'I' for Inactive)
REMARK    1  A    between atoms: C2_2  and  O1_3 
REMARK    2  A    between atoms: C2_2  and  C3_5 
REMARK    3  A    between atoms: C3_5  and  C4_6 
REMARK    4  A    between atoms: C5_8  and  O3_9 
REMARK    5  A    between atoms: O3_9  and  C6_10 
REMARK    6  A    between atoms: C7_12  and  O5_13 
REMARK    7  A    between atoms: O5_13  and  C8_14 
REMARK    8  A    between atoms: C9_16  and  C10_17 
REMARK    9  A    between atoms: C10_17  and  N1_18 
REMARK   10  A    between atoms: C11_22  and  O7_23 
REMARK   11  A    between atoms: C12_25  and  O8_26 
REMARK   12  A    between atoms: C13_28  and  N2_29 
REMARK   13  A    between atoms: C14_34  and  C15_35 
REMARK   14  A    between atoms: C15_35  and  N3_36 
REMARK   15  A    between atoms: C17_41  and  O10_42 
REMARK   16  A    between atoms: C18_44  and  N6_45 
REMARK   17  A    between atoms: C19_49  and  O11_50 
ROOT
HETATM    1  C6  UNL     1     -31.984 -17.767  -0.302  1.00  0.00     0.299 C 
HETATM    2  O4  UNL     1     -32.619 -16.890   0.556  1.00  0.00    -0.305 OA
HETATM    3  C7  UNL     1     -33.753 -17.564   0.950  1.00  0.00     0.418 C 
HETATM    4  O9  UNL     1     -33.307 -18.833   1.261  1.00  0.00    -0.327 OA
HETATM    5  C14 UNL     1     -32.209 -19.073   0.483  1.00  0.00     0.200 C 
ENDROOT
BRANCH   1   6
HETATM    6  O3  UNL     1     -32.627 -17.781  -1.514  1.00  0.00    -0.326 OA
BRANCH   6   7
HETATM    7  C5  UNL     1     -31.809 -17.610  -2.597  1.00  0.00     0.295 C 
HETATM    8  O2  UNL     1     -31.586 -18.807  -3.192  1.00  0.00    -0.339 OA
HETATM    9  C4  UNL     1     -31.661 -18.856  -4.574  1.00  0.00     0.224 C 
HETATM   10  C19 UNL     1     -30.879 -17.690  -5.198  1.00  0.00     0.191 C 
HETATM   11  C18 UNL     1     -31.410 -16.388  -4.712  1.00  0.00     0.248 C 
HETATM   12  C17 UNL     1     -32.408 -16.575  -3.555  1.00  0.00     0.206 C 
BRANCH   9  13
HETATM   13  C3  UNL     1     -32.929 -18.960  -5.203  1.00  0.00    -0.118 C 
BRANCH  13  14
HETATM   14  C2  UNL     1     -34.069 -19.055  -5.768  1.00  0.00     0.182 C 
HETATM   15  C1  UNL     1     -34.786 -17.732  -6.127  1.00  0.00     0.052 C 
BRANCH  14  16
HETATM   16  O1  UNL     1     -34.833 -20.148  -6.140  1.00  0.00    -0.385 OA
ATOM     17  H1  UNL     1     -34.537 -20.935  -5.697  1.00  0.00     0.211 HD
ENDBRANCH  14  16
ENDBRANCH  13  14
ENDBRANCH   9  13
BRANCH  10  18
HETATM   18  O11 UNL     1     -29.503 -17.851  -5.002  1.00  0.00    -0.390 OA
ATOM     19  H11 UNL     1     -29.155 -18.524  -5.576  1.00  0.00     0.210 HD
ENDBRANCH  10  18
BRANCH  11  20
HETATM   20  N6  UNL     1     -31.964 -15.511  -5.681  1.00  0.00    -0.070 N 
ATOM     21  H63 UNL     1     -32.958 -15.686  -5.835  1.00  0.00     0.274 HD
ATOM     22  H62 UNL     1     -32.036 -14.554  -5.338  1.00  0.00     0.274 HD
ATOM     23  H61 UNL     1     -31.424 -15.572  -6.544  1.00  0.00     0.274 HD
ENDBRANCH  11  20
BRANCH  12  24
HETATM   24  O10 UNL     1     -32.403 -15.354  -2.881  1.00  0.00    -0.388 OA
ATOM     25  H10 UNL     1     -33.014 -15.438  -2.159  1.00  0.00     0.210 HD
ENDBRANCH  12  24
ENDBRANCH   6   7
ENDBRANCH   1   6
BRANCH   5  26
HETATM   26  C15 UNL     1     -30.991 -19.150   1.427  1.00  0.00     0.159 C 
BRANCH  26  27
HETATM   27  N3  UNL     1     -30.135 -18.077   1.061  1.00  0.00    -0.364 N 
HETATM   28  C16 UNL     1     -29.340 -17.363   1.718  1.00  0.00     0.197 C 
HETATM   29  N4  UNL     1     -28.614 -16.341   0.988  1.00  0.00    -0.067 NA
HETATM   30  N5  UNL     1     -29.093 -17.469   3.100  1.00  0.00    -0.067 NA
ATOM     31  H3  UNL     1     -30.173 -17.842   0.069  1.00  0.00     0.161 HD
ENDBRANCH  26  27
ENDBRANCH   5  26
BRANCH   3  32
HETATM   32  O5  UNL     1     -34.291 -17.004   2.094  1.00  0.00    -0.306 OA
BRANCH  32  33
HETATM   33  C8  UNL     1     -35.226 -16.027   1.790  1.00  0.00     0.298 C 
HETATM   34  O6  UNL     1     -35.572 -16.091   0.491  1.00  0.00    -0.349 OA
HETATM   35  C9  UNL     1     -36.289 -15.016  -0.001  1.00  0.00     0.181 C 
HETATM   36  C11 UNL     1     -35.279 -13.851  -0.033  1.00  0.00     0.179 C 
HETATM   37  C12 UNL     1     -34.948 -13.535   1.397  1.00  0.00     0.184 C 
HETATM   38  C13 UNL     1     -34.604 -14.712   2.229  1.00  0.00     0.269 C 
BRANCH  35  39
HETATM   39  C10 UNL     1     -36.759 -15.289  -1.423  1.00  0.00     0.264 C 
BRANCH  39  40
HETATM   40  N1  UNL     1     -35.916 -16.265  -2.075  1.00  0.00    -0.077 N 
ATOM     41  H13 UNL     1     -35.180 -16.599  -1.454  1.00  0.00     0.274 HD
ATOM     42  H12 UNL     1     -36.407 -17.146  -2.223  1.00  0.00     0.274 HD
ATOM     43  H11 UNL     1     -35.533 -15.899  -2.947  1.00  0.00     0.274 HD
ENDBRANCH  39  40
ENDBRANCH  35  39
BRANCH  36  44
HETATM   44  O7  UNL     1     -34.140 -14.292  -0.729  1.00  0.00    -0.390 OA
ATOM     45  H7  UNL     1     -33.692 -13.524  -1.065  1.00  0.00     0.210 HD
ENDBRANCH  36  44
BRANCH  37  46
HETATM   46  O8  UNL     1     -36.003 -12.778   1.917  1.00  0.00    -0.391 OA
ATOM     47  H8  UNL     1     -36.144 -13.061   2.813  1.00  0.00     0.210 HD
ENDBRANCH  37  46
BRANCH  38  48
HETATM   48  N2  UNL     1     -35.128 -14.448   3.579  1.00  0.00    -0.068 N 
ATOM     49  H23 UNL     1     -36.024 -14.900   3.764  1.00  0.00     0.275 HD
ATOM     50  H22 UNL     1     -34.602 -14.914   4.319  1.00  0.00     0.275 HD
ATOM     51  H21 UNL     1     -35.155 -13.433   3.675  1.00  0.00     0.275 HD
ENDBRANCH  38  48
ENDBRANCH  32  33
ENDBRANCH   3  32
TORSDOF 17
ENDMDL
MODEL 4
REMARK VINA RESULT: -6.084228477      1.329      1.444
REMARK  17 active torsions:
REMARK  status: ('A' for Active; 'I' for Inactive)
REMARK    1  A    between atoms: C2_2  and  O1_3 
REMARK    2  A    between atoms: C2_2  and  C3_5 
REMARK    3  A    between atoms: C3_5  and  C4_6 
REMARK    4  A    between atoms: C5_8  and  O3_9 
REMARK    5  A    between atoms: O3_9  and  C6_10 
REMARK    6  A    between atoms: C7_12  and  O5_13 
REMARK    7  A    between atoms: O5_13  and  C8_14 
REMARK    8  A    between atoms: C9_16  and  C10_17 
REMARK    9  A    between atoms: C10_17  and  N1_18 
REMARK   10  A    between atoms: C11_22  and  O7_23 
REMARK   11  A    between atoms: C12_25  and  O8_26 
REMARK   12  A    between atoms: C13_28  and  N2_29 
REMARK   13  A    between atoms: C14_34  and  C15_35 
REMARK   14  A    between atoms: C15_35  and  N3_36 
REMARK   15  A    between atoms: C17_41  and  O10_42 
REMARK   16  A    between atoms: C18_44  and  N6_45 
REMARK   17  A    between atoms: C19_49  and  O11_50 
ROOT
HETATM    1  C6  UNL     1     -32.201 -17.609  -0.109  1.00  0.00     0.299 C 
HETATM    2  O4  UNL     1     -32.830 -16.842   0.854  1.00  0.00    -0.305 OA
HETATM    3  C7  UNL     1     -33.812 -17.666   1.354  1.00  0.00     0.418 C 
HETATM    4  O9  UNL     1     -33.177 -18.874   1.558  1.00  0.00    -0.327 OA
HETATM    5  C14 UNL     1     -32.162 -18.952   0.645  1.00  0.00     0.200 C 
ENDROOT
BRANCH   1   6
HETATM    6  O3  UNL     1     -32.983 -17.676  -1.234  1.00  0.00    -0.326 OA
BRANCH   6   7
HETATM    7  C5  UNL     1     -32.956 -16.553  -2.016  1.00  0.00     0.295 C 
HETATM    8  O2  UNL     1     -31.679 -16.115  -2.139  1.00  0.00    -0.339 OA
HETATM    9  C4  UNL     1     -31.256 -15.732  -3.401  1.00  0.00     0.224 C 
HETATM   10  C19 UNL     1     -32.299 -14.821  -4.067  1.00  0.00     0.191 C 
HETATM   11  C18 UNL     1     -33.610 -15.518  -4.166  1.00  0.00     0.248 C 
HETATM   12  C17 UNL     1     -33.619 -16.834  -3.368  1.00  0.00     0.206 C 
BRANCH   9  13
HETATM   13  C3  UNL     1     -30.837 -16.722  -4.329  1.00  0.00    -0.118 C 
BRANCH  13  14
HETATM   14  C2  UNL     1     -30.462 -17.611  -5.162  1.00  0.00     0.182 C 
HETATM   15  C1  UNL     1     -31.532 -18.156  -6.136  1.00  0.00     0.052 C 
BRANCH  14  16
HETATM   16  O1  UNL     1     -29.237 -18.220  -5.381  1.00  0.00    -0.385 OA
ATOM     17  H1  UNL     1     -29.145 -18.999  -4.845  1.00  0.00     0.211 HD
ENDBRANCH  14  16
ENDBRANCH  13  14
ENDBRANCH   9  13
BRANCH  10  18
HETATM   18  O11 UNL     1     -32.363 -13.581  -3.421  1.00  0.00    -0.390 OA
ATOM     19  H11 UNL     1     -31.992 -13.635  -2.547  1.00  0.00     0.210 HD
ENDBRANCH  10  18
BRANCH  11  20
HETATM   20  N6  UNL     1     -34.124 -15.748  -5.469  1.00  0.00    -0.070 N 
ATOM     21  H63 UNL     1     -33.557 -16.414  -5.995  1.00  0.00     0.274 HD
ATOM     22  H62 UNL     1     -34.994 -16.280  -5.451  1.00  0.00     0.274 HD
ATOM     23  H61 UNL     1     -34.227 -14.859  -5.957  1.00  0.00     0.274 HD
ENDBRANCH  11  20
BRANCH  12  24
HETATM   24  O10 UNL     1     -34.966 -17.084  -3.110  1.00  0.00    -0.388 OA
ATOM     25  H10 UNL     1     -35.228 -17.794  -3.684  1.00  0.00     0.210 HD
ENDBRANCH  12  24
ENDBRANCH   6   7
ENDBRANCH   1   6
BRANCH   5  26
HETATM   26  C15 UNL     1     -30.837 -18.894   1.432  1.00  0.00     0.159 C 
BRANCH  26  27
HETATM   27  N3  UNL     1     -30.164 -17.721   0.995  1.00  0.00    -0.364 N 
HETATM   28  C16 UNL     1     -29.166 -17.102   1.434  1.00  0.00     0.197 C 
HETATM   29  N4  UNL     1     -28.754 -15.915   0.708  1.00  0.00    -0.067 NA
HETATM   30  N5  UNL     1     -28.412 -17.459   2.568  1.00  0.00    -0.067 NA
ATOM     31  H3  UNL     1     -30.574 -17.300   0.161  1.00  0.00     0.161 HD
ENDBRANCH  26  27
ENDBRANCH   5  26
BRANCH   3  32
HETATM   32  O5  UNL     1     -34.270 -17.208   2.575  1.00  0.00    -0.306 OA
BRANCH  32  33
HETATM   33  C8  UNL     1     -35.492 -16.565   2.452  1.00  0.00     0.298 C 
HETATM   34  O6  UNL     1     -36.315 -17.265   1.651  1.00  0.00    -0.349 OA
HETATM   35  C9  UNL     1     -37.460 -16.610   1.234  1.00  0.00     0.181 C 
HETATM   36  C11 UNL     1     -36.960 -15.531   0.253  1.00  0.00     0.179 C 
HETATM   37  C12 UNL     1     -36.169 -14.548   1.068  1.00  0.00     0.184 C 
HETATM   38  C13 UNL     1     -35.170 -15.158   1.976  1.00  0.00     0.269 C 
BRANCH  35  39
HETATM   39  C10 UNL     1     -38.380 -17.561   0.481  1.00  0.00     0.264 C 
BRANCH  39  40
HETATM   40  N1  UNL     1     -37.637 -18.657  -0.099  1.00  0.00    -0.077 N 
ATOM     41  H13 UNL     1     -36.653 -18.420  -0.222  1.00  0.00     0.274 HD
ATOM     42  H12 UNL     1     -37.532 -19.429   0.559  1.00  0.00     0.274 HD
ATOM     43  H11 UNL     1     -38.060 -18.967  -0.975  1.00  0.00     0.274 HD
ENDBRANCH  39  40
ENDBRANCH  35  39
BRANCH  36  44
HETATM   44  O7  UNL     1     -36.145 -16.165  -0.702  1.00  0.00    -0.390 OA
ATOM     45  H7  UNL     1     -35.981 -15.542  -1.401  1.00  0.00     0.210 HD
ENDBRANCH  36  44
BRANCH  37  46
HETATM   46  O8  UNL     1     -37.079 -13.715   1.724  1.00  0.00    -0.391 OA
ATOM     47  H8  UNL     1     -36.788 -13.624   2.624  1.00  0.00     0.210 HD
ENDBRANCH  37  46
BRANCH  38  48
HETATM   48  N2  UNL     1     -35.128 -14.322   3.188  1.00  0.00    -0.068 N 
ATOM     49  H23 UNL     1     -36.048 -14.010   3.500  1.00  0.00     0.275 HD
ATOM     50  H22 UNL     1     -34.882 -14.840   4.032  1.00  0.00     0.275 HD
ATOM     51  H21 UNL     1     -34.487 -13.557   2.977  1.00  0.00     0.275 HD
ENDBRANCH  38  48
ENDBRANCH  32  33
ENDBRANCH   3  32
TORSDOF 17
ENDMDL
MODEL 5
REMARK VINA RESULT: -6.062651390      3.678      5.723
REMARK  17 active torsions:
REMARK  status: ('A' for Active; 'I' for Inactive)
REMARK    1  A    between atoms: C2_2  and  O1_3 
REMARK    2  A    between atoms: C2_2  and  C3_5 
REMARK    3  A    between atoms: C3_5  and  C4_6 
REMARK    4  A    between atoms: C5_8  and  O3_9 
REMARK    5  A    between atoms: O3_9  and  C6_10 
REMARK    6  A    between atoms: C7_12  and  O5_13 
REMARK    7  A    between atoms: O5_13  and  C8_14 
REMARK    8  A    between atoms: C9_16  and  C10_17 
REMARK    9  A    between atoms: C10_17  and  N1_18 
REMARK   10  A    between atoms: C11_22  and  O7_23 
REMARK   11  A    between atoms: C12_25  and  O8_26 
REMARK   12  A    between atoms: C13_28  and  N2_29 
REMARK   13  A    between atoms: C14_34  and  C15_35 
REMARK   14  A    between atoms: C15_35  and  N3_36 
REMARK   15  A    between atoms: C17_41  and  O10_42 
REMARK   16  A    between atoms: C18_44  and  N6_45 
REMARK   17  A    between atoms: C19_49  and  O11_50 
ROOT
HETATM    1  C6  UNL     1     -33.378 -16.909   0.743  1.00  0.00     0.299 C 
HETATM    2  O4  UNL     1     -33.162 -15.572   1.015  1.00  0.00    -0.305 OA
HETATM    3  C7  UNL     1     -34.227 -14.930   0.424  1.00  0.00     0.418 C 
HETATM    4  O9  UNL     1     -35.327 -15.673   0.799  1.00  0.00    -0.327 OA
HETATM    5  C14 UNL     1     -34.898 -16.958   0.982  1.00  0.00     0.200 C 
ENDROOT
BRANCH   1   6
HETATM    6  O3  UNL     1     -33.056 -17.175  -0.564  1.00  0.00    -0.326 OA
BRANCH   6   7
HETATM    7  C5  UNL     1     -32.369 -18.342  -0.758  1.00  0.00     0.295 C 
HETATM    8  O2  UNL     1     -31.200 -18.301  -0.071  1.00  0.00    -0.339 OA
HETATM    9  C4  UNL     1     -30.842 -19.431   0.644  1.00  0.00     0.224 C 
HETATM   10  C19 UNL     1     -31.021 -20.692  -0.215  1.00  0.00     0.191 C 
HETATM   11  C18 UNL     1     -32.431 -20.814  -0.673  1.00  0.00     0.248 C 
HETATM   12  C17 UNL     1     -33.241 -19.540  -0.371  1.00  0.00     0.206 C 
BRANCH   9  13
HETATM   13  C3  UNL     1     -31.404 -19.654   1.928  1.00  0.00    -0.118 C 
BRANCH  13  14
HETATM   14  C2  UNL     1     -31.908 -19.854   3.082  1.00  0.00     0.182 C 
HETATM   15  C1  UNL     1     -31.075 -19.393   4.301  1.00  0.00     0.052 C 
BRANCH  14  16
HETATM   16  O1  UNL     1     -33.102 -20.427   3.488  1.00  0.00    -0.385 OA
ATOM     17  H1  UNL     1     -33.834 -20.061   3.006  1.00  0.00     0.211 HD
ENDBRANCH  14  16
ENDBRANCH  13  14
ENDBRANCH   9  13
BRANCH  10  18
HETATM   18  O11 UNL     1     -30.082 -20.726  -1.253  1.00  0.00    -0.390 OA
ATOM     19  H11 UNL     1     -29.350 -21.289  -1.029  1.00  0.00     0.210 HD
ENDBRANCH  10  18
BRANCH  11  20
HETATM   20  N6  UNL     1     -33.157 -21.954  -0.238  1.00  0.00    -0.070 N 
ATOM     21  H63 UNL     1     -32.749 -22.376   0.596  1.00  0.00     0.274 HD
ATOM     22  H62 UNL     1     -34.065 -21.705   0.155  1.00  0.00     0.274 HD
ATOM     23  H61 UNL     1     -33.239 -22.619  -1.006  1.00  0.00     0.274 HD
ENDBRANCH  11  20
BRANCH  12  24
HETATM   24  O10 UNL     1     -34.303 -19.572  -1.275  1.00  0.00    -0.388 OA
ATOM     25  H10 UNL     1     -33.976 -19.984  -2.065  1.00  0.00     0.210 HD
ENDBRANCH  12  24
ENDBRANCH   6   7
ENDBRANCH   1   6
BRANCH   5  26
HETATM   26  C15 UNL     1     -35.023 -17.269   2.489  1.00  0.00     0.159 C 
BRANCH  26  27
HETATM   27  N3  UNL     1     -36.136 -18.141   2.625  1.00  0.00    -0.364 N 
HETATM   28  C16 UNL     1     -36.305 -19.351   2.340  1.00  0.00     0.197 C 
HETATM   29  N4  UNL     1     -37.608 -19.921   2.631  1.00  0.00    -0.067 NA
HETATM   30  N5  UNL     1     -35.342 -20.202   1.765  1.00  0.00    -0.067 NA
ATOM     31  H3  UNL     1     -36.958 -17.697   3.034  1.00  0.00     0.161 HD
ENDBRANCH  26  27
ENDBRANCH   5  26
BRANCH   3  32
HETATM   32  O5  UNL     1     -34.377 -13.651   0.928  1.00  0.00    -0.306 OA
BRANCH  32  33
HETATM   33  C8  UNL     1     -35.512 -13.036   0.423  1.00  0.00     0.298 C 
HETATM   34  O6  UNL     1     -35.178 -11.960  -0.312  1.00  0.00    -0.349 OA
HETATM   35  C9  UNL     1     -36.215 -11.109  -0.649  1.00  0.00     0.181 C 
HETATM   36  C11 UNL     1     -36.618 -10.434   0.677  1.00  0.00     0.179 C 
HETATM   37  C12 UNL     1     -37.204 -11.512   1.543  1.00  0.00     0.184 C 
HETATM   38  C13 UNL     1     -36.393 -12.748   1.627  1.00  0.00     0.269 C 
BRANCH  35  39
HETATM   39  C10 UNL     1     -35.736 -10.034  -1.615  1.00  0.00     0.264 C 
BRANCH  39  40
HETATM   40  N1  UNL     1     -34.379  -9.633  -1.321  1.00  0.00    -0.077 N 
ATOM     41  H13 UNL     1     -33.747 -10.433  -1.304  1.00  0.00     0.274 HD
ATOM     42  H12 UNL     1     -33.963  -9.121  -2.098  1.00  0.00     0.274 HD
ATOM     43  H11 UNL     1     -34.331  -9.100  -0.452  1.00  0.00     0.274 HD
ENDBRANCH  39  40
ENDBRANCH  35  39
BRANCH  36  44
HETATM   44  O7  UNL     1     -35.454  -9.900   1.256  1.00  0.00    -0.390 OA
ATOM     45  H7  UNL     1     -35.181  -9.160   0.726  1.00  0.00     0.210 HD
ENDBRANCH  36  44
BRANCH  37  46
HETATM   46  O8  UNL     1     -38.514 -11.736   1.108  1.00  0.00    -0.391 OA
ATOM     47  H8  UNL     1     -38.861 -10.906   0.803  1.00  0.00     0.210 HD
ENDBRANCH  37  46
BRANCH  38  48
HETATM   48  N2  UNL     1     -37.338 -13.874   1.713  1.00  0.00    -0.068 N 
ATOM     49  H23 UNL     1     -37.689 -14.182   0.806  1.00  0.00     0.275 HD
ATOM     50  H22 UNL     1     -36.900 -14.756   1.980  1.00  0.00     0.275 HD
ATOM     51  H21 UNL     1     -38.074 -13.573   2.353  1.00  0.00     0.275 HD
ENDBRANCH  38  48
ENDBRANCH  32  33
ENDBRANCH   3  32
TORSDOF 17
ENDMDL
