MODEL 1
REMARK VINA RESULT: -8.213212061      0.000      0.000
REMARK  13 active torsions:
REMARK  status: ('A' for Active; 'I' for Inactive)
REMARK       I    between atoms: C1_4  and  N3_6 
REMARK    1  A    between atoms: C4_10  and  C5_11 
REMARK    2  A    between atoms: C5_11  and  O1_12 
REMARK    3  A    between atoms: C5_11  and  N4_14 
REMARK    4  A    between atoms: N4_14  and  O2_15 
REMARK    5  A    between atoms: C6_19  and  C7_20 
REMARK    6  A    between atoms: C7_20  and  C8_21 
REMARK    7  A    between atoms: C7_20  and  C10_26 
REMARK    8  A    between atoms: C8_21  and  C9_23 
REMARK    9  A    between atoms: C9_23  and  O4_24 
REMARK       I    between atoms: C10_26  and  N6_28 
REMARK   10  A    between atoms: N6_28  and  N7_30 
REMARK   11  A    between atoms: N7_30  and  C11_32 
REMARK   12  A    between atoms: C14_39  and  S1_40 
REMARK   13  A    between atoms: S1_40  and  N10_41 
ROOT
HETATM    1  C7  UNL     1     -30.099 -17.987   1.459  1.00  0.00     0.218 C 
ENDROOT
BRANCH   1   2
HETATM    2  C6  UNL     1     -30.358 -18.685   2.711  1.00  0.00     0.104 A 
HETATM    3  N5  UNL     1     -31.496 -19.336   3.006  1.00  0.00    -0.345 N 
HETATM    4  C4  UNL     1     -31.676 -19.947   4.184  1.00  0.00     0.061 A 
ATOM      5  H5  UNL     1     -32.245 -19.365   2.312  1.00  0.00     0.167 HD
HETATM    6  C3  UNL     1     -30.688 -19.929   5.147  1.00  0.00     0.077 A 
HETATM    7  C2  UNL     1     -29.524 -19.268   4.854  1.00  0.00     0.110 A 
HETATM    8  N3  UNL     1     -28.598 -19.257   5.767  1.00  0.00    -0.317 N 
HETATM    9  N14 UNL     1     -29.401 -18.683   3.674  1.00  0.00    -0.331 N 
HETATM   10  C1  UNL     1     -27.402 -18.566   5.438  1.00  0.00     0.187 C 
ATOM     11  H3  UNL     1     -28.723 -19.719   6.668  1.00  0.00     0.170 HD
HETATM   12  N1  UNL     1     -27.476 -17.290   5.255  1.00  0.00    -0.373 N 
HETATM   13  N2  UNL     1     -26.170 -19.225   5.313  1.00  0.00    -0.064 NA
ATOM     14  H12 UNL     1     -26.617 -16.793   5.019  1.00  0.00     0.158 HD
ATOM     15  H11 UNL     1     -28.372 -16.810   5.346  1.00  0.00     0.158 HD
ATOM     16  H14 UNL     1     -28.528 -18.195   3.475  1.00  0.00     0.168 HD
BRANCH   4  17
HETATM   17  C5  UNL     1     -32.967 -20.633   4.461  1.00  0.00     0.288 C 
BRANCH  17  18
HETATM   18  O1  UNL     1     -32.957 -21.238   5.699  1.00  0.00    -0.372 OA
ATOM     19  H1  UNL     1     -33.682 -21.845   5.791  1.00  0.00     0.212 HD
ENDBRANCH  17  18
BRANCH  17  20
HETATM   20  N4  UNL     1     -34.037 -19.695   4.256  1.00  0.00    -0.065 NA
BRANCH  20  21
HETATM   21  O2  UNL     1     -33.730 -18.472   4.790  1.00  0.00    -0.293 OA
ATOM     22  H2  UNL     1     -33.786 -18.489   5.738  1.00  0.00     0.238 HD
ENDBRANCH  20  21
ENDBRANCH  17  20
ENDBRANCH   4  17
ENDBRANCH   1   2
BRANCH   1  23
HETATM   23  C8  UNL     1     -29.289 -16.749   1.628  1.00  0.00     0.170 C 
HETATM   24  O3  UNL     1     -29.843 -15.796   2.145  1.00  0.00    -0.294 OA
BRANCH  23  25
HETATM   25  C9  UNL     1     -27.890 -16.643   1.204  1.00  0.00     0.243 C 
BRANCH  25  26
HETATM   26  O4  UNL     1     -27.013 -17.303   2.067  1.00  0.00    -0.394 OA
ATOM     27  H4  UNL     1     -26.374 -16.720   2.458  1.00  0.00     0.209 HD
ENDBRANCH  25  26
ENDBRANCH  23  25
ENDBRANCH   1  23
BRANCH   1  28
HETATM   28  C10 UNL     1     -31.319 -17.731   0.659  1.00  0.00     0.255 C 
HETATM   29  O5  UNL     1     -31.521 -18.393  -0.427  1.00  0.00    -0.270 OA
HETATM   30  N6  UNL     1     -32.322 -16.782   0.998  1.00  0.00    -0.255 N 
ATOM     31  H6  UNL     1     -32.239 -16.223   1.848  1.00  0.00     0.190 HD
BRANCH  30  32
HETATM   32  N7  UNL     1     -33.413 -16.627   0.160  1.00  0.00    -0.127 N 
ATOM     33  H7  UNL     1     -33.847 -17.483  -0.185  1.00  0.00     0.205 HD
BRANCH  32  34
HETATM   34  C11 UNL     1     -33.935 -15.529  -0.229  1.00  0.00     0.722 A 
HETATM   35  N8  UNL     1     -33.988 -15.261  -1.560  1.00  0.00    -0.184 N 
HETATM   36  C12 UNL     1     -34.521 -14.121  -2.029  1.00  0.00     0.200 A 
ATOM     37  H8  UNL     1     -33.614 -15.944  -2.219  1.00  0.00     0.185 HD
HETATM   38  N9  UNL     1     -35.023 -13.201  -1.189  1.00  0.00    -0.334 N 
HETATM   39  C13 UNL     1     -34.975 -13.455   0.127  1.00  0.00     0.189 A 
ATOM     40  H9  UNL     1     -35.428 -12.334  -1.542  1.00  0.00     0.168 HD
HETATM   41  C14 UNL     1     -35.415 -12.689   1.185  1.00  0.00     0.211 A 
HETATM   42  N13 UNL     1     -34.436 -14.611   0.612  1.00  0.00    -0.051 N 
HETATM   43  N11 UNL     1     -35.133 -13.397   2.281  1.00  0.00    -0.270 N 
HETATM   44  N12 UNL     1     -34.552 -14.533   1.918  1.00  0.00    -0.219 N 
ATOM     45  H11 UNL     1     -35.332 -13.112   3.241  1.00  0.00     0.189 HD
ATOM     46  H12 UNL     1     -34.236 -15.253   2.569  1.00  0.00     0.209 HD
BRANCH  41  47
HETATM   47  S1  UNL     1     -36.172 -11.123   1.127  1.00  0.00     0.277 S 
HETATM   48  O6  UNL     1     -36.491 -10.704  -0.276  1.00  0.00    -0.199 OA
HETATM   49  O7  UNL     1     -35.283 -10.087   1.768  1.00  0.00    -0.199 OA
BRANCH  47  50
HETATM   50  N10 UNL     1     -37.653 -11.212   2.053  1.00  0.00    -0.323 N 
ATOM     51 2H10 UNL     1     -38.400 -11.891   1.908  1.00  0.00     0.169 HD
ATOM     52 1H10 UNL     1     -37.629 -10.468   2.751  1.00  0.00     0.169 HD
ENDBRANCH  47  50
ENDBRANCH  41  47
ENDBRANCH  32  34
ENDBRANCH  30  32
ENDBRANCH   1  28
TORSDOF 13
ENDMDL
MODEL 2
REMARK VINA RESULT: -8.145294135      1.597      3.301
REMARK  13 active torsions:
REMARK  status: ('A' for Active; 'I' for Inactive)
REMARK       I    between atoms: C1_4  and  N3_6 
REMARK    1  A    between atoms: C4_10  and  C5_11 
REMARK    2  A    between atoms: C5_11  and  O1_12 
REMARK    3  A    between atoms: C5_11  and  N4_14 
REMARK    4  A    between atoms: N4_14  and  O2_15 
REMARK    5  A    between atoms: C6_19  and  C7_20 
REMARK    6  A    between atoms: C7_20  and  C8_21 
REMARK    7  A    between atoms: C7_20  and  C10_26 
REMARK    8  A    between atoms: C8_21  and  C9_23 
REMARK    9  A    between atoms: C9_23  and  O4_24 
REMARK       I    between atoms: C10_26  and  N6_28 
REMARK   10  A    between atoms: N6_28  and  N7_30 
REMARK   11  A    between atoms: N7_30  and  C11_32 
REMARK   12  A    between atoms: C14_39  and  S1_40 
REMARK   13  A    between atoms: S1_40  and  N10_41 
ROOT
HETATM    1  C7  UNL     1     -29.708 -17.500   1.387  1.00  0.00     0.218 C 
ENDROOT
BRANCH   1   2
HETATM    2  C6  UNL     1     -29.685 -18.096   2.716  1.00  0.00     0.104 A 
HETATM    3  N5  UNL     1     -28.665 -17.996   3.585  1.00  0.00    -0.345 N 
HETATM    4  C4  UNL     1     -28.702 -18.583   4.789  1.00  0.00     0.061 A 
ATOM      5  H5  UNL     1     -27.839 -17.458   3.320  1.00  0.00     0.167 HD
HETATM    6  C3  UNL     1     -29.802 -19.318   5.182  1.00  0.00     0.077 A 
HETATM    7  C2  UNL     1     -30.846 -19.424   4.302  1.00  0.00     0.110 A 
HETATM    8  N3  UNL     1     -31.878 -20.119   4.681  1.00  0.00    -0.317 N 
HETATM    9  N14 UNL     1     -30.754 -18.825   3.126  1.00  0.00    -0.331 N 
HETATM   10  C1  UNL     1     -32.946 -20.215   3.750  1.00  0.00     0.187 C 
ATOM     11  H3  UNL     1     -31.918 -20.570   5.595  1.00  0.00     0.170 HD
HETATM   12  N1  UNL     1     -32.722 -20.834   2.639  1.00  0.00    -0.373 N 
HETATM   13  N2  UNL     1     -34.210 -19.664   4.007  1.00  0.00    -0.064 NA
ATOM     14  H12 UNL     1     -33.489 -20.903   1.971  1.00  0.00     0.158 HD
ATOM     15  H11 UNL     1     -31.803 -21.235   2.452  1.00  0.00     0.158 HD
ATOM     16  H14 UNL     1     -31.541 -18.917   2.484  1.00  0.00     0.168 HD
BRANCH   4  17
HETATM   17  C5  UNL     1     -27.533 -18.453   5.701  1.00  0.00     0.288 C 
BRANCH  17  18
HETATM   18  O1  UNL     1     -26.772 -19.601   5.704  1.00  0.00    -0.372 OA
ATOM     19  H1  UNL     1     -26.640 -19.929   4.822  1.00  0.00     0.212 HD
ENDBRANCH  17  18
BRANCH  17  20
HETATM   20  N4  UNL     1     -26.818 -17.254   5.359  1.00  0.00    -0.065 NA
BRANCH  20  21
HETATM   21  O2  UNL     1     -25.980 -17.466   4.297  1.00  0.00    -0.293 OA
ATOM     22  H2  UNL     1     -26.030 -16.751   3.674  1.00  0.00     0.238 HD
ENDBRANCH  20  21
ENDBRANCH  17  20
ENDBRANCH   4  17
ENDBRANCH   1   2
BRANCH   1  23
HETATM   23  C8  UNL     1     -29.010 -16.187   1.315  1.00  0.00     0.170 C 
HETATM   24  O3  UNL     1     -29.588 -15.230   1.796  1.00  0.00    -0.294 OA
BRANCH  23  25
HETATM   25  C9  UNL     1     -27.690 -16.012   0.701  1.00  0.00     0.243 C 
BRANCH  25  26
HETATM   26  O4  UNL     1     -26.679 -16.680   1.396  1.00  0.00    -0.394 OA
ATOM     27  H4  UNL     1     -26.025 -16.089   1.749  1.00  0.00     0.209 HD
ENDBRANCH  25  26
ENDBRANCH  23  25
ENDBRANCH   1  23
BRANCH   1  28
HETATM   28  C10 UNL     1     -31.063 -17.426   0.792  1.00  0.00     0.255 C 
HETATM   29  O5  UNL     1     -31.423 -18.298  -0.084  1.00  0.00    -0.270 OA
HETATM   30  N6  UNL     1     -32.034 -16.440   1.117  1.00  0.00    -0.255 N 
ATOM     31  H6  UNL     1     -31.828 -15.719   1.808  1.00  0.00     0.190 HD
BRANCH  30  32
HETATM   32  N7  UNL     1     -33.264 -16.472   0.481  1.00  0.00    -0.127 N 
ATOM     33  H7  UNL     1     -33.698 -17.389   0.377  1.00  0.00     0.205 HD
BRANCH  32  34
HETATM   34  C11 UNL     1     -33.913 -15.479   0.012  1.00  0.00     0.722 A 
HETATM   35  N8  UNL     1     -34.071 -15.372  -1.333  1.00  0.00    -0.184 N 
HETATM   36  C12 UNL     1     -34.741 -14.348  -1.885  1.00  0.00     0.200 A 
ATOM     37  H8  UNL     1     -33.670 -16.089  -1.938  1.00  0.00     0.185 HD
HETATM   38  N9  UNL     1     -35.281 -13.387  -1.119  1.00  0.00    -0.334 N 
HETATM   39  C13 UNL     1     -35.132 -13.482   0.211  1.00  0.00     0.189 A 
ATOM     40  H9  UNL     1     -35.790 -12.607  -1.535  1.00  0.00     0.168 HD
HETATM   41  C14 UNL     1     -35.582 -12.642   1.207  1.00  0.00     0.211 A 
HETATM   42  N13 UNL     1     -34.453 -14.520   0.781  1.00  0.00    -0.051 N 
HETATM   43  N11 UNL     1     -35.168 -13.191   2.352  1.00  0.00    -0.270 N 
HETATM   44  N12 UNL     1     -34.499 -14.303   2.075  1.00  0.00    -0.219 N 
ATOM     45  H11 UNL     1     -35.338 -12.816   3.286  1.00  0.00     0.189 HD
ATOM     46  H12 UNL     1     -34.076 -14.911   2.777  1.00  0.00     0.209 HD
BRANCH  41  47
HETATM   47  S1  UNL     1     -36.492 -11.170   1.031  1.00  0.00     0.277 S 
HETATM   48  O6  UNL     1     -36.920 -10.938  -0.387  1.00  0.00    -0.199 OA
HETATM   49  O7  UNL     1     -35.681  -9.991   1.507  1.00  0.00    -0.199 OA
BRANCH  47  50
HETATM   50  N10 UNL     1     -37.911 -11.295   2.047  1.00  0.00    -0.323 N 
ATOM     51 2H10 UNL     1     -38.008 -11.915   2.851  1.00  0.00     0.169 HD
ATOM     52 1H10 UNL     1     -38.608 -10.642   1.689  1.00  0.00     0.169 HD
ENDBRANCH  47  50
ENDBRANCH  41  47
ENDBRANCH  32  34
ENDBRANCH  30  32
ENDBRANCH   1  28
TORSDOF 13
ENDMDL
MODEL 3
REMARK VINA RESULT: -8.089863074      3.553      5.091
REMARK  13 active torsions:
REMARK  status: ('A' for Active; 'I' for Inactive)
REMARK       I    between atoms: C1_4  and  N3_6 
REMARK    1  A    between atoms: C4_10  and  C5_11 
REMARK    2  A    between atoms: C5_11  and  O1_12 
REMARK    3  A    between atoms: C5_11  and  N4_14 
REMARK    4  A    between atoms: N4_14  and  O2_15 
REMARK    5  A    between atoms: C6_19  and  C7_20 
REMARK    6  A    between atoms: C7_20  and  C8_21 
REMARK    7  A    between atoms: C7_20  and  C10_26 
REMARK    8  A    between atoms: C8_21  and  C9_23 
REMARK    9  A    between atoms: C9_23  and  O4_24 
REMARK       I    between atoms: C10_26  and  N6_28 
REMARK   10  A    between atoms: N6_28  and  N7_30 
REMARK   11  A    between atoms: N7_30  and  C11_32 
REMARK   12  A    between atoms: C14_39  and  S1_40 
REMARK   13  A    between atoms: S1_40  and  N10_41 
ROOT
HETATM    1  C7  UNL     1     -29.550 -17.765   1.504  1.00  0.00     0.218 C 
ENDROOT
BRANCH   1   2
HETATM    2  C6  UNL     1     -29.488 -18.232   2.883  1.00  0.00     0.104 A 
HETATM    3  N5  UNL     1     -28.430 -18.080   3.698  1.00  0.00    -0.345 N 
HETATM    4  C4  UNL     1     -28.433 -18.547   4.954  1.00  0.00     0.061 A 
ATOM      5  H5  UNL     1     -27.602 -17.595   3.351  1.00  0.00     0.167 HD
HETATM    6  C3  UNL     1     -29.533 -19.209   5.459  1.00  0.00     0.077 A 
HETATM    7  C2  UNL     1     -30.616 -19.367   4.634  1.00  0.00     0.110 A 
HETATM    8  N3  UNL     1     -31.649 -19.992   5.119  1.00  0.00    -0.317 N 
HETATM    9  N14 UNL     1     -30.558 -18.886   3.404  1.00  0.00    -0.331 N 
HETATM   10  C1  UNL     1     -32.756 -20.143   4.244  1.00  0.00     0.187 C 
ATOM     11  H3  UNL     1     -31.663 -20.352   6.073  1.00  0.00     0.170 HD
HETATM   12  N1  UNL     1     -32.596 -20.873   3.191  1.00  0.00    -0.373 N 
HETATM   13  N2  UNL     1     -33.994 -19.532   4.496  1.00  0.00    -0.064 NA
ATOM     14  H12 UNL     1     -33.392 -20.982   2.562  1.00  0.00     0.158 HD
ATOM     15  H11 UNL     1     -31.696 -21.317   3.008  1.00  0.00     0.158 HD
ATOM     16  H14 UNL     1     -31.373 -19.016   2.805  1.00  0.00     0.168 HD
BRANCH   4  17
HETATM   17  C5  UNL     1     -27.224 -18.367   5.802  1.00  0.00     0.288 C 
BRANCH  17  18
HETATM   18  O1  UNL     1     -26.364 -19.436   5.682  1.00  0.00    -0.372 OA
ATOM     19  H1  UNL     1     -25.594 -19.204   5.176  1.00  0.00     0.212 HD
ENDBRANCH  17  18
BRANCH  17  20
HETATM   20  N4  UNL     1     -26.642 -17.087   5.503  1.00  0.00    -0.065 NA
BRANCH  20  21
HETATM   21  O2  UNL     1     -25.647 -17.204   4.570  1.00  0.00    -0.293 OA
ATOM     22  H2  UNL     1     -25.351 -16.351   4.276  1.00  0.00     0.238 HD
ENDBRANCH  20  21
ENDBRANCH  17  20
ENDBRANCH   4  17
ENDBRANCH   1   2
BRANCH   1  23
HETATM   23  C8  UNL     1     -29.337 -16.299   1.365  1.00  0.00     0.170 C 
HETATM   24  O3  UNL     1     -30.122 -15.572   1.946  1.00  0.00    -0.294 OA
BRANCH  23  25
HETATM   25  C9  UNL     1     -28.247 -15.718   0.576  1.00  0.00     0.243 C 
BRANCH  25  26
HETATM   26  O4  UNL     1     -28.257 -14.321   0.588  1.00  0.00    -0.394 OA
ATOM     27  H4  UNL     1     -27.399 -13.947   0.429  1.00  0.00     0.209 HD
ENDBRANCH  25  26
ENDBRANCH  23  25
ENDBRANCH   1  23
BRANCH   1  28
HETATM   28  C10 UNL     1     -30.766 -18.207   0.783  1.00  0.00     0.255 C 
HETATM   29  O5  UNL     1     -31.007 -19.464   0.649  1.00  0.00    -0.270 OA
HETATM   30  N6  UNL     1     -31.724 -17.329   0.204  1.00  0.00    -0.255 N 
ATOM     31  H6  UNL     1     -31.609 -16.319   0.275  1.00  0.00     0.190 HD
BRANCH  30  32
HETATM   32  N7  UNL     1     -32.816 -17.867  -0.457  1.00  0.00    -0.127 N 
ATOM     33  H7  UNL     1     -32.867 -17.700  -1.461  1.00  0.00     0.205 HD
BRANCH  32  34
HETATM   34  C11 UNL     1     -33.766 -18.549   0.055  1.00  0.00     0.722 A 
HETATM   35  N8  UNL     1     -33.868 -19.867  -0.252  1.00  0.00    -0.184 N 
HETATM   36  C12 UNL     1     -34.849 -20.635   0.252  1.00  0.00     0.200 A 
ATOM     37  H8  UNL     1     -33.184 -20.286  -0.882  1.00  0.00     0.185 HD
HETATM   38  N9  UNL     1     -35.767 -20.117   1.084  1.00  0.00    -0.334 N 
HETATM   39  C13 UNL     1     -35.675 -18.816   1.395  1.00  0.00     0.189 A 
ATOM     40  H9  UNL     1     -36.513 -20.697   1.469  1.00  0.00     0.168 HD
HETATM   41  C14 UNL     1     -36.477 -18.050   2.213  1.00  0.00     0.211 A 
HETATM   42  N13 UNL     1     -34.682 -18.029   0.887  1.00  0.00    -0.051 N 
HETATM   43  N11 UNL     1     -35.952 -16.823   2.183  1.00  0.00    -0.270 N 
HETATM   44  N12 UNL     1     -34.888 -16.833   1.389  1.00  0.00    -0.219 N 
ATOM     45  H11 UNL     1     -36.309 -16.011   2.687  1.00  0.00     0.189 HD
ATOM     46  H12 UNL     1     -34.307 -16.018   1.195  1.00  0.00     0.209 HD
BRANCH  41  47
HETATM   47  S1  UNL     1     -37.886 -18.554   3.101  1.00  0.00     0.277 S 
HETATM   48  O6  UNL     1     -38.730 -19.516   2.320  1.00  0.00    -0.199 OA
HETATM   49  O7  UNL     1     -38.719 -17.357   3.486  1.00  0.00    -0.199 OA
BRANCH  47  50
HETATM   50  N10 UNL     1     -37.342 -19.329   4.571  1.00  0.00    -0.323 N 
ATOM     51 2H10 UNL     1     -36.538 -19.953   4.647  1.00  0.00     0.169 HD
ATOM     52 1H10 UNL     1     -37.968 -19.044   5.324  1.00  0.00     0.169 HD
ENDBRANCH  47  50
ENDBRANCH  41  47
ENDBRANCH  32  34
ENDBRANCH  30  32
ENDBRANCH   1  28
TORSDOF 13
ENDMDL
MODEL 4
REMARK VINA RESULT: -8.037648560      2.927      3.591
REMARK  13 active torsions:
REMARK  status: ('A' for Active; 'I' for Inactive)
REMARK       I    between atoms: C1_4  and  N3_6 
REMARK    1  A    between atoms: C4_10  and  C5_11 
REMARK    2  A    between atoms: C5_11  and  O1_12 
REMARK    3  A    between atoms: C5_11  and  N4_14 
REMARK    4  A    between atoms: N4_14  and  O2_15 
REMARK    5  A    between atoms: C6_19  and  C7_20 
REMARK    6  A    between atoms: C7_20  and  C8_21 
REMARK    7  A    between atoms: C7_20  and  C10_26 
REMARK    8  A    between atoms: C8_21  and  C9_23 
REMARK    9  A    between atoms: C9_23  and  O4_24 
REMARK       I    between atoms: C10_26  and  N6_28 
REMARK   10  A    between atoms: N6_28  and  N7_30 
REMARK   11  A    between atoms: N7_30  and  C11_32 
REMARK   12  A    between atoms: C14_39  and  S1_40 
REMARK   13  A    between atoms: S1_40  and  N10_41 
ROOT
HETATM    1  C7  UNL     1     -29.710 -18.087   1.668  1.00  0.00     0.218 C 
ENDROOT
BRANCH   1   2
HETATM    2  C6  UNL     1     -29.902 -18.630   3.006  1.00  0.00     0.104 A 
HETATM    3  N5  UNL     1     -31.059 -19.129   3.473  1.00  0.00    -0.345 N 
HETATM    4  C4  UNL     1     -31.172 -19.601   4.722  1.00  0.00     0.061 A 
ATOM      5  H5  UNL     1     -31.874 -19.150   2.859  1.00  0.00     0.167 HD
HETATM    6  C3  UNL     1     -30.093 -19.589   5.582  1.00  0.00     0.077 A 
HETATM    7  C2  UNL     1     -28.910 -19.082   5.113  1.00  0.00     0.110 A 
HETATM    8  N3  UNL     1     -27.898 -19.075   5.930  1.00  0.00    -0.317 N 
HETATM    9  N14 UNL     1     -28.856 -18.630   3.872  1.00  0.00    -0.331 N 
HETATM   10  C1  UNL     1     -26.684 -18.544   5.420  1.00  0.00     0.187 C 
ATOM     11  H3  UNL     1     -27.971 -19.432   6.883  1.00  0.00     0.170 HD
HETATM   12  N1  UNL     1     -26.660 -17.291   5.109  1.00  0.00    -0.373 N 
HETATM   13  N2  UNL     1     -25.537 -19.334   5.253  1.00  0.00    -0.064 NA
ATOM     14  H12 UNL     1     -25.788 -16.909   4.743  1.00  0.00     0.158 HD
ATOM     15  H11 UNL     1     -27.494 -16.716   5.231  1.00  0.00     0.158 HD
ATOM     16  H14 UNL     1     -27.967 -18.254   3.541  1.00  0.00     0.168 HD
BRANCH   4  17
HETATM   17  C5  UNL     1     -32.485 -20.123   5.189  1.00  0.00     0.288 C 
BRANCH  17  18
HETATM   18  O1  UNL     1     -33.482 -19.186   5.028  1.00  0.00    -0.372 OA
ATOM     19  H1  UNL     1     -34.136 -19.257   5.713  1.00  0.00     0.212 HD
ENDBRANCH  17  18
BRANCH  17  20
HETATM   20  N4  UNL     1     -32.732 -21.384   4.546  1.00  0.00    -0.065 NA
BRANCH  20  21
HETATM   21  O2  UNL     1     -33.106 -21.207   3.241  1.00  0.00    -0.293 OA
ATOM     22  H2  UNL     1     -33.808 -20.572   3.170  1.00  0.00     0.238 HD
ENDBRANCH  20  21
ENDBRANCH  17  20
ENDBRANCH   4  17
ENDBRANCH   1   2
BRANCH   1  23
HETATM   23  C8  UNL     1     -29.076 -16.740   1.661  1.00  0.00     0.170 C 
HETATM   24  O3  UNL     1     -29.732 -15.821   2.117  1.00  0.00    -0.294 OA
BRANCH  23  25
HETATM   25  C9  UNL     1     -27.729 -16.491   1.138  1.00  0.00     0.243 C 
BRANCH  25  26
HETATM   26  O4  UNL     1     -26.731 -17.092   1.908  1.00  0.00    -0.394 OA
ATOM     27  H4  UNL     1     -25.928 -17.232   1.423  1.00  0.00     0.209 HD
ENDBRANCH  25  26
ENDBRANCH  23  25
ENDBRANCH   1  23
BRANCH   1  28
HETATM   28  C10 UNL     1     -30.935 -18.113   0.835  1.00  0.00     0.255 C 
HETATM   29  O5  UNL     1     -31.364 -19.233   0.366  1.00  0.00    -0.270 OA
HETATM   30  N6  UNL     1     -31.705 -16.966   0.497  1.00  0.00    -0.255 N 
ATOM     31  H6  UNL     1     -31.436 -16.044   0.837  1.00  0.00     0.190 HD
BRANCH  30  32
HETATM   32  N7  UNL     1     -32.827 -17.121  -0.300  1.00  0.00    -0.127 N 
ATOM     33  H7  UNL     1     -32.660 -17.356  -1.279  1.00  0.00     0.205 HD
BRANCH  32  34
HETATM   34  C11 UNL     1     -34.047 -17.001   0.055  1.00  0.00     0.722 A 
HETATM   35  N8  UNL     1     -34.827 -16.083  -0.571  1.00  0.00    -0.184 N 
HETATM   36  C12 UNL     1     -36.117 -15.909  -0.237  1.00  0.00     0.200 A 
ATOM     37  H8  UNL     1     -34.424 -15.512  -1.313  1.00  0.00     0.185 HD
HETATM   38  N9  UNL     1     -36.680 -16.643   0.736  1.00  0.00    -0.334 N 
HETATM   39  C13 UNL     1     -35.918 -17.553   1.361  1.00  0.00     0.189 A 
ATOM     40  H9  UNL     1     -37.659 -16.513   0.992  1.00  0.00     0.168 HD
HETATM   41  C14 UNL     1     -36.247 -18.423   2.378  1.00  0.00     0.211 A 
HETATM   42  N13 UNL     1     -34.607 -17.737   1.028  1.00  0.00    -0.051 N 
HETATM   43  N11 UNL     1     -35.132 -19.112   2.635  1.00  0.00    -0.270 N 
HETATM   44  N12 UNL     1     -34.172 -18.687   1.823  1.00  0.00    -0.219 N 
ATOM     45  H11 UNL     1     -35.034 -19.844   3.339  1.00  0.00     0.189 HD
ATOM     46  H12 UNL     1     -33.219 -19.052   1.817  1.00  0.00     0.209 HD
BRANCH  41  47
HETATM   47  S1  UNL     1     -37.782 -18.598   3.178  1.00  0.00     0.277 S 
HETATM   48  O6  UNL     1     -38.731 -19.453   2.394  1.00  0.00    -0.199 OA
HETATM   49  O7  UNL     1     -38.407 -17.247   3.416  1.00  0.00    -0.199 OA
BRANCH  47  50
HETATM   50  N10 UNL     1     -37.491 -19.341   4.735  1.00  0.00    -0.323 N 
ATOM     51 2H10 UNL     1     -37.443 -20.344   4.910  1.00  0.00     0.169 HD
ATOM     52 1H10 UNL     1     -37.382 -18.593   5.421  1.00  0.00     0.169 HD
ENDBRANCH  47  50
ENDBRANCH  41  47
ENDBRANCH  32  34
ENDBRANCH  30  32
ENDBRANCH   1  28
TORSDOF 13
ENDMDL
MODEL 5
REMARK VINA RESULT: -7.974418049      3.148      4.994
REMARK  13 active torsions:
REMARK  status: ('A' for Active; 'I' for Inactive)
REMARK       I    between atoms: C1_4  and  N3_6 
REMARK    1  A    between atoms: C4_10  and  C5_11 
REMARK    2  A    between atoms: C5_11  and  O1_12 
REMARK    3  A    between atoms: C5_11  and  N4_14 
REMARK    4  A    between atoms: N4_14  and  O2_15 
REMARK    5  A    between atoms: C6_19  and  C7_20 
REMARK    6  A    between atoms: C7_20  and  C8_21 
REMARK    7  A    between atoms: C7_20  and  C10_26 
REMARK    8  A    between atoms: C8_21  and  C9_23 
REMARK    9  A    between atoms: C9_23  and  O4_24 
REMARK       I    between atoms: C10_26  and  N6_28 
REMARK   10  A    between atoms: N6_28  and  N7_30 
REMARK   11  A    between atoms: N7_30  and  C11_32 
REMARK   12  A    between atoms: C14_39  and  S1_40 
REMARK   13  A    between atoms: S1_40  and  N10_41 
ROOT
HETATM    1  C7  UNL     1     -29.499 -17.488   1.514  1.00  0.00     0.218 C 
ENDROOT
BRANCH   1   2
HETATM    2  C6  UNL     1     -29.384 -18.015   2.867  1.00  0.00     0.104 A 
HETATM    3  N5  UNL     1     -28.318 -17.847   3.669  1.00  0.00    -0.345 N 
HETATM    4  C4  UNL     1     -28.271 -18.373   4.901  1.00  0.00     0.061 A 
ATOM      5  H5  UNL     1     -27.524 -17.304   3.330  1.00  0.00     0.167 HD
HETATM    6  C3  UNL     1     -29.325 -19.113   5.394  1.00  0.00     0.077 A 
HETATM    7  C2  UNL     1     -30.416 -19.288   4.583  1.00  0.00     0.110 A 
HETATM    8  N3  UNL     1     -31.406 -19.987   5.056  1.00  0.00    -0.317 N 
HETATM    9  N14 UNL     1     -30.408 -18.748   3.376  1.00  0.00    -0.331 N 
HETATM   10  C1  UNL     1     -32.522 -20.155   4.197  1.00  0.00     0.187 C 
ATOM     11  H3  UNL     1     -31.381 -20.392   5.992  1.00  0.00     0.170 HD
HETATM   12  N1  UNL     1     -32.347 -20.825   3.106  1.00  0.00    -0.373 N 
HETATM   13  N2  UNL     1     -33.783 -19.621   4.500  1.00  0.00    -0.064 NA
ATOM     14  H12 UNL     1     -33.149 -20.945   2.488  1.00  0.00     0.158 HD
ATOM     15  H11 UNL     1     -31.430 -21.213   2.885  1.00  0.00     0.158 HD
ATOM     16  H14 UNL     1     -31.228 -18.891   2.787  1.00  0.00     0.168 HD
BRANCH   4  17
HETATM   17  C5  UNL     1     -27.055 -18.170   5.734  1.00  0.00     0.288 C 
BRANCH  17  18
HETATM   18  O1  UNL     1     -26.366 -19.350   5.909  1.00  0.00    -0.372 OA
ATOM     19  H1  UNL     1     -26.350 -19.607   6.823  1.00  0.00     0.212 HD
ENDBRANCH  17  18
BRANCH  17  20
HETATM   20  N4  UNL     1     -26.283 -17.099   5.165  1.00  0.00    -0.065 NA
BRANCH  20  21
HETATM   21  O2  UNL     1     -24.970 -17.181   5.544  1.00  0.00    -0.293 OA
ATOM     22  H2  UNL     1     -24.652 -16.344   5.859  1.00  0.00     0.238 HD
ENDBRANCH  20  21
ENDBRANCH  17  20
ENDBRANCH   4  17
ENDBRANCH   1   2
BRANCH   1  23
HETATM   23  C8  UNL     1     -29.089 -16.062   1.398  1.00  0.00     0.170 C 
HETATM   24  O3  UNL     1     -29.711 -15.255   2.065  1.00  0.00    -0.294 OA
BRANCH  23  25
HETATM   25  C9  UNL     1     -27.997 -15.610   0.531  1.00  0.00     0.243 C 
BRANCH  25  26
HETATM   26  O4  UNL     1     -26.743 -16.027   0.982  1.00  0.00    -0.394 OA
ATOM     27  H4  UNL     1     -26.743 -16.926   1.287  1.00  0.00     0.209 HD
ENDBRANCH  25  26
ENDBRANCH  23  25
ENDBRANCH   1  23
BRANCH   1  28
HETATM   28  C10 UNL     1     -30.825 -17.723   0.897  1.00  0.00     0.255 C 
HETATM   29  O5  UNL     1     -31.273 -18.925   0.785  1.00  0.00    -0.270 OA
HETATM   30  N6  UNL     1     -31.675 -16.699   0.397  1.00  0.00    -0.255 N 
ATOM     31  H6  UNL     1     -31.396 -15.720   0.456  1.00  0.00     0.190 HD
BRANCH  30  32
HETATM   32  N7  UNL     1     -32.889 -17.049  -0.170  1.00  0.00    -0.127 N 
ATOM     33  H7  UNL     1     -32.852 -17.483  -1.092  1.00  0.00     0.205 HD
BRANCH  32  34
HETATM   34  C11 UNL     1     -34.050 -16.888   0.336  1.00  0.00     0.722 A 
HETATM   35  N8  UNL     1     -34.657 -15.679   0.215  1.00  0.00    -0.184 N 
HETATM   36  C12 UNL     1     -35.876 -15.448   0.730  1.00  0.00     0.200 A 
ATOM     37  H8  UNL     1     -34.176 -14.928  -0.279  1.00  0.00     0.185 HD
HETATM   38  N9  UNL     1     -36.539 -16.414   1.386  1.00  0.00    -0.334 N 
HETATM   39  C13 UNL     1     -35.949 -17.612   1.511  1.00  0.00     0.189 A 
ATOM     40  H9  UNL     1     -37.465 -16.242   1.779  1.00  0.00     0.168 HD
HETATM   41  C14 UNL     1     -36.407 -18.756   2.129  1.00  0.00     0.211 A 
HETATM   42  N13 UNL     1     -34.710 -17.855   0.991  1.00  0.00    -0.051 N 
HETATM   43  N11 UNL     1     -35.439 -19.662   1.966  1.00  0.00    -0.270 N 
HETATM   44  N12 UNL     1     -34.442 -19.105   1.290  1.00  0.00    -0.219 N 
ATOM     45  H11 UNL     1     -35.462 -20.624   2.307  1.00  0.00     0.189 HD
ATOM     46  H12 UNL     1     -33.579 -19.587   1.035  1.00  0.00     0.209 HD
BRANCH  41  47
HETATM   47  S1  UNL     1     -37.919 -18.990   2.956  1.00  0.00     0.277 S 
HETATM   48  O6  UNL     1     -38.731 -20.091   2.344  1.00  0.00    -0.199 OA
HETATM   49  O7  UNL     1     -38.723 -17.714   2.950  1.00  0.00    -0.199 OA
BRANCH  47  50
HETATM   50  N10 UNL     1     -37.561 -19.396   4.619  1.00  0.00    -0.323 N 
ATOM     51 2H10 UNL     1     -37.913 -18.898   5.437  1.00  0.00     0.169 HD
ATOM     52 1H10 UNL     1     -36.944 -20.209   4.616  1.00  0.00     0.169 HD
ENDBRANCH  47  50
ENDBRANCH  41  47
ENDBRANCH  32  34
ENDBRANCH  30  32
ENDBRANCH   1  28
TORSDOF 13
ENDMDL
