MODEL 1
REMARK VINA RESULT: -6.545029388      0.000      0.000
REMARK  3 active torsions:
REMARK  status: ('A' for Active; 'I' for Inactive)
REMARK    1  A    between atoms: N2_4  and  N3_6 
REMARK       I    between atoms: C3_8  and  N5_10 
REMARK    2  A    between atoms: N5_10  and  C4_12 
REMARK    3  A    between atoms: N6_14  and  C6_15 
ROOT
HETATM    1  N3  UNL     1      15.795   5.936  21.770  1.00  0.00    -0.273 N 
ATOM      2  H3  UNL     1      16.658   5.563  22.166  1.00  0.00     0.189 HD
HETATM    3  C3  UNL     1      15.739   6.282  20.519  1.00  0.00     0.203 C 
HETATM    4  N4  UNL     1      16.847   6.163  19.652  1.00  0.00    -0.062 NA
HETATM    5  N5  UNL     1      14.530   6.803  20.016  1.00  0.00    -0.355 N 
ATOM      6  H5  UNL     1      13.643   6.581  20.468  1.00  0.00     0.162 HD
ENDROOT
BRANCH   5   7
HETATM    7  C4  UNL     1      14.566   7.659  18.844  1.00  0.00     0.141 C 
HETATM    8  C5  UNL     1      14.900   9.101  19.090  1.00  0.00     0.299 C 
HETATM    9  N6  UNL     1      13.598   9.469  18.559  1.00  0.00     0.097 N 
HETATM   10  C11 UNL     1      13.134   8.127  18.547  1.00  0.00     0.299 C 
BRANCH   9  11
HETATM   11  C6  UNL     1      12.887  10.455  19.330  1.00  0.00     0.223 C 
HETATM   12  C7  UNL     1      13.358  10.641  20.730  1.00  0.00     0.036 C 
HETATM   13  C8  UNL     1      12.094  11.071  21.469  1.00  0.00     0.002 C 
HETATM   14  C9  UNL     1      11.042  10.181  20.869  1.00  0.00     0.002 C 
HETATM   15  C10 UNL     1      11.440   9.953  19.427  1.00  0.00     0.036 C 
ENDBRANCH   9  11
ENDBRANCH   5   7
BRANCH   1  16
HETATM   16  N2  UNL     1      14.686   6.079  22.540  1.00  0.00    -0.289 N 
HETATM   17  C2  UNL     1      14.088   6.936  23.160  1.00  0.00     0.103 C 
HETATM   18  C1  UNL     1      14.523   8.369  23.245  1.00  0.00     0.086 C 
HETATM   19  N1  UNL     1      12.878   6.599  23.876  1.00  0.00    -0.087 NA
ATOM     20  H2  UNL     1      14.203   5.185  22.625  1.00  0.00     0.188 HD
ENDBRANCH   1  16
TORSDOF 3
ENDMDL
MODEL 2
REMARK VINA RESULT: -6.281752164      0.947      1.060
REMARK  3 active torsions:
REMARK  status: ('A' for Active; 'I' for Inactive)
REMARK    1  A    between atoms: N2_4  and  N3_6 
REMARK       I    between atoms: C3_8  and  N5_10 
REMARK    2  A    between atoms: N5_10  and  C4_12 
REMARK    3  A    between atoms: N6_14  and  C6_15 
ROOT
HETATM    1  N3  UNL     1      15.004   6.047  22.695  1.00  0.00    -0.273 N 
ATOM      2  H3  UNL     1      15.719   5.625  23.287  1.00  0.00     0.189 HD
HETATM    3  C3  UNL     1      15.239   6.278  21.439  1.00  0.00     0.203 C 
HETATM    4  N4  UNL     1      16.475   5.964  20.831  1.00  0.00    -0.062 NA
HETATM    5  N5  UNL     1      14.226   6.872  20.659  1.00  0.00    -0.355 N 
ATOM      6  H5  UNL     1      13.247   6.787  20.932  1.00  0.00     0.162 HD
ENDROOT
BRANCH   5   7
HETATM    7  C4  UNL     1      14.598   7.606  19.463  1.00  0.00     0.141 C 
HETATM    8  C5  UNL     1      14.864   9.071  19.645  1.00  0.00     0.299 C 
HETATM    9  N6  UNL     1      13.767   9.360  18.737  1.00  0.00     0.097 N 
HETATM   10  C11 UNL     1      13.311   8.016  18.733  1.00  0.00     0.299 C 
BRANCH   9  11
HETATM   11  C6  UNL     1      12.880  10.406  19.176  1.00  0.00     0.223 C 
HETATM   12  C7  UNL     1      13.106  10.907  20.559  1.00  0.00     0.036 C 
HETATM   13  C8  UNL     1      11.715  11.351  21.002  1.00  0.00     0.002 C 
HETATM   14  C9  UNL     1      10.832  10.264  20.455  1.00  0.00     0.002 C 
HETATM   15  C10 UNL     1      11.471   9.797  19.165  1.00  0.00     0.036 C 
ENDBRANCH   9  11
ENDBRANCH   5   7
BRANCH   1  16
HETATM   16  N2  UNL     1      13.790   6.375  23.205  1.00  0.00    -0.289 N 
HETATM   17  C2  UNL     1      13.278   6.685  24.263  1.00  0.00     0.103 C 
HETATM   18  C1  UNL     1      14.030   6.812  25.555  1.00  0.00     0.086 C 
HETATM   19  N1  UNL     1      11.859   6.956  24.328  1.00  0.00    -0.087 NA
ATOM     20  H2  UNL     1      13.085   6.355  22.469  1.00  0.00     0.188 HD
ENDBRANCH   1  16
TORSDOF 3
ENDMDL
MODEL 3
REMARK VINA RESULT: -6.103704808      0.890      1.062
REMARK  3 active torsions:
REMARK  status: ('A' for Active; 'I' for Inactive)
REMARK    1  A    between atoms: N2_4  and  N3_6 
REMARK       I    between atoms: C3_8  and  N5_10 
REMARK    2  A    between atoms: N5_10  and  C4_12 
REMARK    3  A    between atoms: N6_14  and  C6_15 
ROOT
HETATM    1  N3  UNL     1      16.593   6.150  20.442  1.00  0.00    -0.273 N 
ATOM      2  H3  UNL     1      17.558   5.834  20.543  1.00  0.00     0.189 HD
HETATM    3  C3  UNL     1      16.188   6.689  19.332  1.00  0.00     0.203 C 
HETATM    4  N4  UNL     1      17.043   6.865  18.221  1.00  0.00    -0.062 NA
HETATM    5  N5  UNL     1      14.850   7.120  19.239  1.00  0.00    -0.355 N 
ATOM      6  H5  UNL     1      14.131   6.711  19.836  1.00  0.00     0.162 HD
ENDROOT
BRANCH   5   7
HETATM    7  C4  UNL     1      14.509   8.157  18.282  1.00  0.00     0.141 C 
HETATM    8  C5  UNL     1      14.802   9.567  18.704  1.00  0.00     0.299 C 
HETATM    9  N6  UNL     1      13.384   9.867  18.603  1.00  0.00     0.097 N 
HETATM   10  C11 UNL     1      13.023   8.502  18.456  1.00  0.00     0.299 C 
BRANCH   9  11
HETATM   11  C6  UNL     1      12.847  10.624  19.704  1.00  0.00     0.223 C 
HETATM   12  C7  UNL     1      13.270  10.180  21.060  1.00  0.00     0.036 C 
HETATM   13  C8  UNL     1      12.081  10.561  21.939  1.00  0.00     0.002 C 
HETATM   14  C9  UNL     1      10.904  10.194  21.078  1.00  0.00     0.002 C 
HETATM   15  C10 UNL     1      11.325  10.436  19.645  1.00  0.00     0.036 C 
ENDBRANCH   9  11
ENDBRANCH   5   7
BRANCH   1  16
HETATM   16  N2  UNL     1      15.711   6.013  21.464  1.00  0.00    -0.289 N 
HETATM   17  C2  UNL     1      15.307   6.626  22.433  1.00  0.00     0.103 C 
HETATM   18  C1  UNL     1      15.790   7.991  22.824  1.00  0.00     0.086 C 
HETATM   19  N1  UNL     1      14.300   6.041  23.290  1.00  0.00    -0.087 NA
ATOM     20  H2  UNL     1      15.238   5.112  21.399  1.00  0.00     0.188 HD
ENDBRANCH   1  16
TORSDOF 3
ENDMDL
MODEL 4
REMARK VINA RESULT: -5.802804640      2.055      4.272
REMARK  3 active torsions:
REMARK  status: ('A' for Active; 'I' for Inactive)
REMARK    1  A    between atoms: N2_4  and  N3_6 
REMARK       I    between atoms: C3_8  and  N5_10 
REMARK    2  A    between atoms: N5_10  and  C4_12 
REMARK    3  A    between atoms: N6_14  and  C6_15 
ROOT
HETATM    1  N3  UNL     1      11.829   8.494  23.059  1.00  0.00    -0.273 N 
ATOM      2  H3  UNL     1      10.927   8.130  23.368  1.00  0.00     0.189 HD
HETATM    3  C3  UNL     1      11.889   9.444  22.176  1.00  0.00     0.203 C 
HETATM    4  N4  UNL     1      10.732  10.018  21.604  1.00  0.00    -0.062 NA
HETATM    5  N5  UNL     1      13.156   9.910  21.770  1.00  0.00    -0.355 N 
ATOM      6  H5  UNL     1      13.967   9.801  22.379  1.00  0.00     0.162 HD
ENDROOT
BRANCH   5   7
HETATM    7  C4  UNL     1      13.289  10.547  20.472  1.00  0.00     0.141 C 
HETATM    8  C5  UNL     1      12.740   9.783  19.303  1.00  0.00     0.299 C 
HETATM    9  N6  UNL     1      14.076   9.740  18.733  1.00  0.00     0.097 N 
HETATM   10  C11 UNL     1      14.685  10.225  19.920  1.00  0.00     0.299 C 
BRANCH   9  11
HETATM   11  C6  UNL     1      14.469   8.458  18.210  1.00  0.00     0.223 C 
HETATM   12  C7  UNL     1      14.452   7.331  19.183  1.00  0.00     0.036 C 
HETATM   13  C8  UNL     1      15.545   6.403  18.661  1.00  0.00     0.002 C 
HETATM   14  C9  UNL     1      16.625   7.364  18.250  1.00  0.00     0.002 C 
HETATM   15  C10 UNL     1      15.927   8.614  17.759  1.00  0.00     0.036 C 
ENDBRANCH   9  11
ENDBRANCH   5   7
BRANCH   1  16
HETATM   16  N2  UNL     1      12.985   7.994  23.564  1.00  0.00    -0.289 N 
HETATM   17  C2  UNL     1      13.395   7.409  24.548  1.00  0.00     0.103 C 
HETATM   18  C1  UNL     1      12.531   7.002  25.704  1.00  0.00     0.086 C 
HETATM   19  N1  UNL     1      14.796   7.065  24.653  1.00  0.00    -0.087 NA
ATOM     20  H2  UNL     1      13.752   8.162  22.914  1.00  0.00     0.188 HD
ENDBRANCH   1  16
TORSDOF 3
ENDMDL
MODEL 5
REMARK VINA RESULT: -5.595358517      1.707      4.742
REMARK  3 active torsions:
REMARK  status: ('A' for Active; 'I' for Inactive)
REMARK    1  A    between atoms: N2_4  and  N3_6 
REMARK       I    between atoms: C3_8  and  N5_10 
REMARK    2  A    between atoms: N5_10  and  C4_12 
REMARK    3  A    between atoms: N6_14  and  C6_15 
ROOT
HETATM    1  N3  UNL     1      15.441   8.544  17.909  1.00  0.00    -0.273 N 
ATOM      2  H3  UNL     1      15.667   8.487  16.916  1.00  0.00     0.189 HD
HETATM    3  C3  UNL     1      15.872   7.640  18.737  1.00  0.00     0.203 C 
HETATM    4  N4  UNL     1      16.665   6.549  18.318  1.00  0.00    -0.062 NA
HETATM    5  N5  UNL     1      15.527   7.751  20.099  1.00  0.00    -0.355 N 
ATOM      6  H5  UNL     1      15.284   8.658  20.499  1.00  0.00     0.162 HD
ENDROOT
BRANCH   5   7
HETATM    7  C4  UNL     1      15.522   6.557  20.923  1.00  0.00     0.141 C 
HETATM    8  C5  UNL     1      14.268   6.300  21.706  1.00  0.00     0.299 C 
HETATM    9  N6  UNL     1      15.041   6.398  22.932  1.00  0.00     0.097 N 
HETATM   10  C11 UNL     1      16.190   6.896  22.264  1.00  0.00     0.299 C 
BRANCH   9  11
HETATM   11  C6  UNL     1      14.430   7.188  23.969  1.00  0.00     0.223 C 
HETATM   12  C7  UNL     1      14.068   6.453  25.212  1.00  0.00     0.036 C 
HETATM   13  C8  UNL     1      12.862   7.227  25.737  1.00  0.00     0.002 C 
HETATM   14  C9  UNL     1      12.091   7.527  24.482  1.00  0.00     0.002 C 
HETATM   15  C10 UNL     1      13.112   7.712  23.381  1.00  0.00     0.036 C 
ENDBRANCH   9  11
ENDBRANCH   5   7
BRANCH   1  16
HETATM   16  N2  UNL     1      14.684   9.564  18.388  1.00  0.00    -0.289 N 
HETATM   17  C2  UNL     1      13.548   9.787  18.757  1.00  0.00     0.103 C 
HETATM   18  C1  UNL     1      12.456   8.758  18.782  1.00  0.00     0.086 C 
HETATM   19  N1  UNL     1      13.180  11.110  19.208  1.00  0.00    -0.087 NA
ATOM     20  H2  UNL     1      15.247  10.411  18.462  1.00  0.00     0.188 HD
ENDBRANCH   1  16
TORSDOF 3
ENDMDL
