MODEL 1
REMARK VINA RESULT: -4.563518254      0.000      0.000
REMARK  5 active torsions:
REMARK  status: ('A' for Active; 'I' for Inactive)
REMARK    1  A    between atoms: C2_2  and  C5_5 
REMARK       I    between atoms: C5_5  and  N1_7 
REMARK    2  A    between atoms: N1_7  and  C6_9 
REMARK    3  A    between atoms: C6_9  and  C7_10 
REMARK    4  A    between atoms: C7_10  and  N2_11 
REMARK    5  A    between atoms: C8_15  and  C9_16 
ROOT
HETATM    1  C7  UNL     1      13.937   8.066  23.144  1.00  0.00     0.159 A 
HETATM    2  C8  UNL     1      14.527   7.397  24.341  1.00  0.00     0.123 A 
HETATM    3  C10 UNL     1      14.768   6.794  23.012  1.00  0.00     0.002 A 
HETATM    4  C11 UNL     1      16.150   6.922  22.410  1.00  0.00     0.018 C 
HETATM    5  C12 UNL     1      13.993   5.606  22.527  1.00  0.00     0.018 C 
ENDROOT
BRANCH   1   6
HETATM    6  C6  UNL     1      14.584   9.282  22.537  1.00  0.00     0.163 C 
BRANCH   6   7
HETATM    7  N1  UNL     1      13.862   9.810  21.416  1.00  0.00    -0.358 N 
HETATM    8  C5  UNL     1      13.993   9.187  20.165  1.00  0.00     0.225 C 
HETATM    9  O1  UNL     1      14.736   8.164  19.993  1.00  0.00    -0.273 OA
ATOM     10  H1  UNL     1      13.261  10.627  21.525  1.00  0.00     0.162 HD
BRANCH   8  11
HETATM   11  C2  UNL     1      13.264   9.708  18.999  1.00  0.00     0.030 C 
HETATM   12  C1  UNL     1      14.006   9.468  17.718  1.00  0.00     0.024 C 
HETATM   13  C3  UNL     1      12.921  11.193  19.173  1.00  0.00     0.024 C 
HETATM   14  C4  UNL     1      11.912   8.994  18.867  1.00  0.00     0.024 C 
ENDBRANCH   8  11
ENDBRANCH   6   7
ENDBRANCH   1   6
BRANCH   1  15
HETATM   15  N2  UNL     1      12.498   7.947  23.029  1.00  0.00    -0.067 N 
ATOM     16  H23 UNL     1      12.086   8.878  22.964  1.00  0.00     0.275 HD
ATOM     17  H22 UNL     1      12.263   7.571  22.110  1.00  0.00     0.275 HD
ATOM     18  H21 UNL     1      12.011   7.411  23.747  1.00  0.00     0.275 HD
ENDBRANCH   1  15
BRANCH   2  19
HETATM   19  C9  UNL     1      13.639   6.736  25.326  1.00  0.00     0.238 C 
HETATM   20  N3  UNL     1      12.431   7.342  25.749  1.00  0.00    -0.062 NA
HETATM   21  O2  UNL     1      13.968   5.626  25.789  1.00  0.00    -0.276 OA
ENDBRANCH   2  19
TORSDOF 5
ENDMDL
MODEL 2
REMARK VINA RESULT: -4.536481142      2.932      4.056
REMARK  5 active torsions:
REMARK  status: ('A' for Active; 'I' for Inactive)
REMARK    1  A    between atoms: C2_2  and  C5_5 
REMARK       I    between atoms: C5_5  and  N1_7 
REMARK    2  A    between atoms: N1_7  and  C6_9 
REMARK    3  A    between atoms: C6_9  and  C7_10 
REMARK    4  A    between atoms: C7_10  and  N2_11 
REMARK    5  A    between atoms: C8_15  and  C9_16 
ROOT
HETATM    1  C7  UNL     1      14.445   7.022  19.155  1.00  0.00     0.159 A 
HETATM    2  C8  UNL     1      15.283   7.435  20.320  1.00  0.00     0.123 A 
HETATM    3  C10 UNL     1      15.907   7.420  18.979  1.00  0.00     0.002 A 
HETATM    4  C11 UNL     1      16.193   8.746  18.310  1.00  0.00     0.018 C 
HETATM    5  C12 UNL     1      16.796   6.299  18.530  1.00  0.00     0.018 C 
ENDROOT
BRANCH   1   6
HETATM    6  C6  UNL     1      13.473   7.978  18.519  1.00  0.00     0.163 C 
BRANCH   6   7
HETATM    7  N1  UNL     1      12.491   8.485  19.435  1.00  0.00    -0.358 N 
HETATM    8  C5  UNL     1      12.488   9.854  19.741  1.00  0.00     0.225 C 
HETATM    9  O1  UNL     1      13.331  10.664  19.231  1.00  0.00    -0.273 OA
ATOM     10  H1  UNL     1      11.806   7.859  19.857  1.00  0.00     0.162 HD
BRANCH   8  11
HETATM   11  C2  UNL     1      11.493  10.400  20.677  1.00  0.00     0.030 C 
HETATM   12  C1  UNL     1      11.568   9.744  22.023  1.00  0.00     0.024 C 
HETATM   13  C3  UNL     1      10.076  10.317  20.095  1.00  0.00     0.024 C 
HETATM   14  C4  UNL     1      11.751  11.896  20.899  1.00  0.00     0.024 C 
ENDBRANCH   8  11
ENDBRANCH   6   7
ENDBRANCH   1   6
BRANCH   1  15
HETATM   15  N2  UNL     1      14.121   5.610  19.110  1.00  0.00    -0.067 N 
ATOM     16  H23 UNL     1      14.535   5.143  19.917  1.00  0.00     0.275 HD
ATOM     17  H22 UNL     1      13.128   5.486  19.307  1.00  0.00     0.275 HD
ATOM     18  H21 UNL     1      14.364   5.099  18.261  1.00  0.00     0.275 HD
ENDBRANCH   1  15
BRANCH   2  19
HETATM   19  C9  UNL     1      15.660   6.436  21.346  1.00  0.00     0.238 C 
HETATM   20  N3  UNL     1      14.684   5.629  21.980  1.00  0.00    -0.062 NA
HETATM   21  O2  UNL     1      16.862   6.307  21.654  1.00  0.00    -0.276 OA
ENDBRANCH   2  19
TORSDOF 5
ENDMDL
MODEL 3
REMARK VINA RESULT: -4.153538230      2.002      3.115
REMARK  5 active torsions:
REMARK  status: ('A' for Active; 'I' for Inactive)
REMARK    1  A    between atoms: C2_2  and  C5_5 
REMARK       I    between atoms: C5_5  and  N1_7 
REMARK    2  A    between atoms: N1_7  and  C6_9 
REMARK    3  A    between atoms: C6_9  and  C7_10 
REMARK    4  A    between atoms: C7_10  and  N2_11 
REMARK    5  A    between atoms: C8_15  and  C9_16 
ROOT
HETATM    1  C7  UNL     1      14.084   8.032  22.763  1.00  0.00     0.159 A 
HETATM    2  C8  UNL     1      14.521   6.620  22.556  1.00  0.00     0.123 A 
HETATM    3  C10 UNL     1      14.798   7.254  23.863  1.00  0.00     0.002 A 
HETATM    4  C11 UNL     1      13.976   6.819  25.056  1.00  0.00     0.018 C 
HETATM    5  C12 UNL     1      16.153   7.793  24.212  1.00  0.00     0.018 C 
ENDROOT
BRANCH   1   6
HETATM    6  C6  UNL     1      12.651   8.364  23.083  1.00  0.00     0.163 C 
BRANCH   6   7
HETATM    7  N1  UNL     1      12.135   9.458  22.313  1.00  0.00    -0.358 N 
HETATM    8  C5  UNL     1      12.211   9.403  20.913  1.00  0.00     0.225 C 
HETATM    9  O1  UNL     1      12.726   8.408  20.302  1.00  0.00    -0.273 OA
ATOM     10  H1  UNL     1      11.717  10.266  22.777  1.00  0.00     0.162 HD
BRANCH   8  11
HETATM   11  C2  UNL     1      11.689  10.511  20.100  1.00  0.00     0.030 C 
HETATM   12  C1  UNL     1      10.482  10.107  19.306  1.00  0.00     0.024 C 
HETATM   13  C3  UNL     1      12.778  11.101  19.195  1.00  0.00     0.024 C 
HETATM   14  C4  UNL     1      11.252  11.666  21.011  1.00  0.00     0.024 C 
ENDBRANCH   8  11
ENDBRANCH   6   7
ENDBRANCH   1   6
BRANCH   1  15
HETATM   15  N2  UNL     1      14.850   9.020  22.030  1.00  0.00    -0.067 N 
ATOM     16  H23 UNL     1      15.411   8.551  21.318  1.00  0.00     0.275 HD
ATOM     17  H22 UNL     1      14.221   9.569  21.445  1.00  0.00     0.275 HD
ATOM     18  H21 UNL     1      15.445   9.649  22.569  1.00  0.00     0.275 HD
ENDBRANCH   1  15
BRANCH   2  19
HETATM   19  C9  UNL     1      15.619   6.322  21.607  1.00  0.00     0.238 C 
HETATM   20  N3  UNL     1      15.515   6.656  20.235  1.00  0.00    -0.062 NA
HETATM   21  O2  UNL     1      16.651   5.764  22.031  1.00  0.00    -0.276 OA
ENDBRANCH   2  19
TORSDOF 5
ENDMDL
MODEL 4
REMARK VINA RESULT: -4.127324922      1.999      3.195
REMARK  5 active torsions:
REMARK  status: ('A' for Active; 'I' for Inactive)
REMARK    1  A    between atoms: C2_2  and  C5_5 
REMARK       I    between atoms: C5_5  and  N1_7 
REMARK    2  A    between atoms: N1_7  and  C6_9 
REMARK    3  A    between atoms: C6_9  and  C7_10 
REMARK    4  A    between atoms: C7_10  and  N2_11 
REMARK    5  A    between atoms: C8_15  and  C9_16 
ROOT
HETATM    1  C7  UNL     1      14.079   8.024  22.770  1.00  0.00     0.159 A 
HETATM    2  C8  UNL     1      14.521   6.614  22.560  1.00  0.00     0.123 A 
HETATM    3  C10 UNL     1      14.807   7.250  23.864  1.00  0.00     0.002 A 
HETATM    4  C11 UNL     1      13.997   6.812  25.065  1.00  0.00     0.018 C 
HETATM    5  C12 UNL     1      16.162   7.796  24.201  1.00  0.00     0.018 C 
ENDROOT
BRANCH   1   6
HETATM    6  C6  UNL     1      12.648   8.348  23.102  1.00  0.00     0.163 C 
BRANCH   6   7
HETATM    7  N1  UNL     1      12.126   9.453  22.350  1.00  0.00    -0.358 N 
HETATM    8  C5  UNL     1      12.186   9.413  20.949  1.00  0.00     0.225 C 
HETATM    9  O1  UNL     1      12.691   8.424  20.321  1.00  0.00    -0.273 OA
ATOM     10  H1  UNL     1      11.716  10.257  22.828  1.00  0.00     0.162 HD
BRANCH   8  11
HETATM   11  C2  UNL     1      11.658  10.533  20.154  1.00  0.00     0.030 C 
HETATM   12  C1  UNL     1      11.236  11.685  21.016  1.00  0.00     0.024 C 
HETATM   13  C3  UNL     1      10.516  10.076  19.237  1.00  0.00     0.024 C 
HETATM   14  C4  UNL     1      12.746  11.062  19.211  1.00  0.00     0.024 C 
ENDBRANCH   8  11
ENDBRANCH   6   7
ENDBRANCH   1   6
BRANCH   1  15
HETATM   15  N2  UNL     1      14.834   9.014  22.028  1.00  0.00    -0.067 N 
ATOM     16  H23 UNL     1      15.305   8.561  21.245  1.00  0.00     0.275 HD
ATOM     17  H22 UNL     1      14.189   9.629  21.533  1.00  0.00     0.275 HD
ATOM     18  H21 UNL     1      15.507   9.577  22.548  1.00  0.00     0.275 HD
ENDBRANCH   1  15
BRANCH   2  19
HETATM   19  C9  UNL     1      15.612   6.319  21.602  1.00  0.00     0.238 C 
HETATM   20  N3  UNL     1      15.496   6.655  20.231  1.00  0.00    -0.062 NA
HETATM   21  O2  UNL     1      16.649   5.764  22.016  1.00  0.00    -0.276 OA
ENDBRANCH   2  19
TORSDOF 5
ENDMDL
MODEL 5
REMARK VINA RESULT: -4.029828977      1.262      1.423
REMARK  5 active torsions:
REMARK  status: ('A' for Active; 'I' for Inactive)
REMARK    1  A    between atoms: C2_2  and  C5_5 
REMARK       I    between atoms: C5_5  and  N1_7 
REMARK    2  A    between atoms: N1_7  and  C6_9 
REMARK    3  A    between atoms: C6_9  and  C7_10 
REMARK    4  A    between atoms: C7_10  and  N2_11 
REMARK    5  A    between atoms: C8_15  and  C9_16 
ROOT
HETATM    1  C7  UNL     1      13.847   8.022  23.230  1.00  0.00     0.159 A 
HETATM    2  C8  UNL     1      14.521   7.378  24.395  1.00  0.00     0.123 A 
HETATM    3  C10 UNL     1      14.729   6.790  23.054  1.00  0.00     0.002 A 
HETATM    4  C11 UNL     1      16.073   6.984  22.389  1.00  0.00     0.018 C 
HETATM    5  C12 UNL     1      13.988   5.568  22.601  1.00  0.00     0.018 C 
ENDROOT
BRANCH   1   6
HETATM    6  C6  UNL     1      14.407   9.268  22.599  1.00  0.00     0.163 C 
BRANCH   6   7
HETATM    7  N1  UNL     1      13.950   9.479  21.255  1.00  0.00    -0.358 N 
HETATM    8  C5  UNL     1      12.685  10.049  21.047  1.00  0.00     0.225 C 
HETATM    9  O1  UNL     1      11.926  10.386  22.016  1.00  0.00    -0.273 OA
ATOM     10  H1  UNL     1      14.537   9.219  20.462  1.00  0.00     0.162 HD
BRANCH   8  11
HETATM   11  C2  UNL     1      12.192  10.277  19.680  1.00  0.00     0.030 C 
HETATM   12  C1  UNL     1      12.968  11.348  18.974  1.00  0.00     0.024 C 
HETATM   13  C3  UNL     1      10.689  10.581  19.672  1.00  0.00     0.024 C 
HETATM   14  C4  UNL     1      12.349   8.997  18.849  1.00  0.00     0.024 C 
ENDBRANCH   8  11
ENDBRANCH   6   7
ENDBRANCH   1   6
BRANCH   1  15
HETATM   15  N2  UNL     1      12.410   7.835  23.181  1.00  0.00    -0.067 N 
ATOM     16  H23 UNL     1      12.182   6.891  23.491  1.00  0.00     0.275 HD
ATOM     17  H22 UNL     1      11.973   8.389  23.917  1.00  0.00     0.275 HD
ATOM     18  H21 UNL     1      11.942   8.022  22.294  1.00  0.00     0.275 HD
ENDBRANCH   1  15
BRANCH   2  19
HETATM   19  C9  UNL     1      13.713   6.674  25.418  1.00  0.00     0.238 C 
HETATM   20  N3  UNL     1      12.538   7.256  25.954  1.00  0.00    -0.062 NA
HETATM   21  O2  UNL     1      14.079   5.548  25.810  1.00  0.00    -0.276 OA
ENDBRANCH   2  19
TORSDOF 5
ENDMDL
