MODEL 1
REMARK VINA RESULT: -5.899846932      0.000      0.000
REMARK  9 active torsions:
REMARK  status: ('A' for Active; 'I' for Inactive)
REMARK    1  A    between atoms: O1_2  and  C2_3 
REMARK    2  A    between atoms: C2_3  and  O2_4 
REMARK    3  A    between atoms: C2_3  and  C3_6 
REMARK    4  A    between atoms: C4_7  and  N1_8 
REMARK    5  A    between atoms: C6_13  and  N2_14 
REMARK    6  A    between atoms: C7_18  and  O3_19 
REMARK    7  A    between atoms: O3_19  and  C8_20 
REMARK    8  A    between atoms: C11_33  and  O4_34 
REMARK    9  A    between atoms: C11_33  and  N8_36 
ROOT
HETATM    1  C3  UNL     1      25.228 -15.751  10.437  1.00  0.00     0.129 C 
HETATM    2  C4  UNL     1      24.293 -14.919  11.229  1.00  0.00     0.199 C 
HETATM    3  C5  UNL     1      23.678 -15.536  12.437  1.00  0.00     0.069 C 
HETATM    4  C6  UNL     1      24.386 -16.702  13.017  1.00  0.00     0.219 C 
HETATM    5  C7  UNL     1      25.316 -17.442  12.152  1.00  0.00     0.218 C 
HETATM    6  C11 UNL     1      25.224 -17.219  10.660  1.00  0.00     0.168 C 
ENDROOT
BRANCH   5   7
HETATM    7  O3  UNL     1      26.651 -17.063  12.537  1.00  0.00    -0.309 OA
BRANCH   7   8
HETATM    8  C8  UNL     1      27.413 -17.788  13.407  1.00  0.00     0.240 A 
HETATM    9  N3  UNL     1      28.704 -17.547  13.699  1.00  0.00    -0.295 N 
HETATM   10  C9  UNL     1      29.348 -18.348  14.587  1.00  0.00     0.209 A 
ATOM     11  H3  UNL     1      29.195 -16.770  13.258  1.00  0.00     0.172 HD
HETATM   12  N4  UNL     1      30.693 -18.062  14.864  1.00  0.00    -0.062 NA
HETATM   13  N5  UNL     1      28.755 -19.376  15.192  1.00  0.00    -0.163 N 
HETATM   14  C10 UNL     1      27.459 -19.624  14.903  1.00  0.00     0.681 A 
ATOM     15  H5  UNL     1      29.266 -19.960  15.854  1.00  0.00     0.187 HD
HETATM   16  N6  UNL     1      26.836 -20.595  15.452  1.00  0.00    -0.234 N 
HETATM   17  N7  UNL     1      26.826 -18.829  14.024  1.00  0.00    -0.155 N 
ATOM     18  H62 UNL     1      27.317 -21.199  16.120  1.00  0.00     0.174 HD
ATOM     19  H61 UNL     1      25.857 -20.782  15.234  1.00  0.00     0.174 HD
ATOM     20  H7  UNL     1      25.847 -19.026  13.814  1.00  0.00     0.188 HD
ENDBRANCH   7   8
ENDBRANCH   5   7
BRANCH   4  21
HETATM   21  N2  UNL     1      23.440 -17.648  13.619  1.00  0.00    -0.072 N 
ATOM     22  H23 UNL     1      22.555 -17.198  13.851  1.00  0.00     0.274 HD
ATOM     23  H22 UNL     1      23.096 -18.323  12.936  1.00  0.00     0.274 HD
ATOM     24  H21 UNL     1      23.851 -18.111  14.430  1.00  0.00     0.274 HD
ENDBRANCH   4  21
BRANCH   6  25
HETATM   25  O4  UNL     1      26.531 -17.626  10.213  1.00  0.00    -0.368 OA
ATOM     26  H4  UNL     1      26.765 -18.317  10.822  1.00  0.00     0.212 HD
ENDBRANCH   6  25
BRANCH   6  27
HETATM   27  N8  UNL     1      24.381 -18.052   9.950  1.00  0.00    -0.389 N 
HETATM   28  C12 UNL     1      23.180 -18.591  10.378  1.00  0.00     0.145 C 
HETATM   29  C13 UNL     1      25.077 -19.059   9.163  1.00  0.00     0.145 C 
ENDBRANCH   6  27
BRANCH   1  30
HETATM   30  C2  UNL     1      25.236 -15.311   8.989  1.00  0.00     0.267 C 
BRANCH  30  31
HETATM   31  O1  UNL     1      24.243 -15.904   8.215  1.00  0.00    -0.366 OA
HETATM   32  C1  UNL     1      24.728 -16.042   6.921  1.00  0.00     0.204 C 
ENDBRANCH  30  31
BRANCH  30  33
HETATM   33  O2  UNL     1      26.428 -15.844   8.385  1.00  0.00    -0.371 OA
ATOM     34  H2  UNL     1      26.808 -15.066   7.996  1.00  0.00     0.212 HD
ENDBRANCH  30  33
ENDBRANCH   1  30
BRANCH   2  35
HETATM   35  N1  UNL     1      23.298 -14.215  10.418  1.00  0.00    -0.074 N 
ATOM     36  H13 UNL     1      23.614 -14.134   9.451  1.00  0.00     0.274 HD
ATOM     37  H12 UNL     1      22.471 -14.795  10.280  1.00  0.00     0.274 HD
ATOM     38  H11 UNL     1      23.038 -13.301  10.788  1.00  0.00     0.274 HD
ENDBRANCH   2  35
TORSDOF 9
ENDMDL
MODEL 2
REMARK VINA RESULT: -5.433967644      0.243      1.618
REMARK  9 active torsions:
REMARK  status: ('A' for Active; 'I' for Inactive)
REMARK    1  A    between atoms: O1_2  and  C2_3 
REMARK    2  A    between atoms: C2_3  and  O2_4 
REMARK    3  A    between atoms: C2_3  and  C3_6 
REMARK    4  A    between atoms: C4_7  and  N1_8 
REMARK    5  A    between atoms: C6_13  and  N2_14 
REMARK    6  A    between atoms: C7_18  and  O3_19 
REMARK    7  A    between atoms: O3_19  and  C8_20 
REMARK    8  A    between atoms: C11_33  and  O4_34 
REMARK    9  A    between atoms: C11_33  and  N8_36 
ROOT
HETATM    1  C3  UNL     1      25.299 -15.718  10.640  1.00  0.00     0.129 C 
HETATM    2  C4  UNL     1      24.403 -14.898  11.487  1.00  0.00     0.199 C 
HETATM    3  C5  UNL     1      23.756 -15.566  12.652  1.00  0.00     0.069 C 
HETATM    4  C6  UNL     1      24.406 -16.801  13.149  1.00  0.00     0.219 C 
HETATM    5  C7  UNL     1      25.300 -17.525  12.235  1.00  0.00     0.218 C 
HETATM    6  C11 UNL     1      25.223 -17.196  10.762  1.00  0.00     0.168 C 
ENDROOT
BRANCH   5   7
HETATM    7  O3  UNL     1      26.651 -17.239  12.643  1.00  0.00    -0.309 OA
BRANCH   7   8
HETATM    8  C8  UNL     1      27.338 -18.000  13.544  1.00  0.00     0.240 A 
HETATM    9  N3  UNL     1      26.845 -19.067  14.200  1.00  0.00    -0.295 N 
HETATM   10  C9  UNL     1      27.639 -19.740  15.073  1.00  0.00     0.209 A 
ATOM     11  H3  UNL     1      25.883 -19.368  14.043  1.00  0.00     0.172 HD
HETATM   12  N4  UNL     1      27.085 -20.846  15.735  1.00  0.00    -0.062 NA
HETATM   13  N5  UNL     1      28.900 -19.390  15.316  1.00  0.00    -0.163 N 
HETATM   14  C10 UNL     1      29.402 -18.320  14.662  1.00  0.00     0.681 A 
ATOM     15  H5  UNL     1      29.472 -19.915  15.978  1.00  0.00     0.187 HD
HETATM   16  N6  UNL     1      30.606 -17.936  14.853  1.00  0.00    -0.234 N 
HETATM   17  N7  UNL     1      28.614 -17.657  13.799  1.00  0.00    -0.155 N 
ATOM     18  H62 UNL     1      31.205 -18.440  15.508  1.00  0.00     0.174 HD
ATOM     19  H61 UNL     1      30.985 -17.128  14.358  1.00  0.00     0.174 HD
ATOM     20  H7  UNL     1      29.003 -16.851  13.310  1.00  0.00     0.188 HD
ENDBRANCH   7   8
ENDBRANCH   5   7
BRANCH   4  21
HETATM   21  N2  UNL     1      23.413 -17.739  13.687  1.00  0.00    -0.072 N 
ATOM     22  H23 UNL     1      22.485 -17.566  13.301  1.00  0.00     0.274 HD
ATOM     23  H22 UNL     1      23.556 -18.684  13.329  1.00  0.00     0.274 HD
ATOM     24  H21 UNL     1      23.406 -17.721  14.707  1.00  0.00     0.274 HD
ENDBRANCH   4  21
BRANCH   6  25
HETATM   25  O4  UNL     1      26.509 -17.635  10.286  1.00  0.00    -0.368 OA
ATOM     26  H4  UNL     1      26.649 -18.451  10.754  1.00  0.00     0.212 HD
ENDBRANCH   6  25
BRANCH   6  27
HETATM   27  N8  UNL     1      24.342 -17.937   9.997  1.00  0.00    -0.389 N 
HETATM   28  C12 UNL     1      23.085 -18.384  10.366  1.00  0.00     0.145 C 
HETATM   29  C13 UNL     1      24.982 -18.977   9.207  1.00  0.00     0.145 C 
ENDBRANCH   6  27
BRANCH   1  30
HETATM   30  C2  UNL     1      25.332 -15.182   9.225  1.00  0.00     0.267 C 
BRANCH  30  31
HETATM   31  O1  UNL     1      24.230 -15.548   8.459  1.00  0.00    -0.366 OA
HETATM   32  C1  UNL     1      24.663 -15.769   7.158  1.00  0.00     0.204 C 
ENDBRANCH  30  31
BRANCH  30  33
HETATM   33  O2  UNL     1      26.399 -15.855   8.535  1.00  0.00    -0.371 OA
ATOM     34  H2  UNL     1      26.082 -16.750   8.523  1.00  0.00     0.212 HD
ENDBRANCH  30  33
ENDBRANCH   1  30
BRANCH   2  35
HETATM   35  N1  UNL     1      23.446 -14.092  10.728  1.00  0.00    -0.074 N 
ATOM     36  H13 UNL     1      23.180 -14.568   9.866  1.00  0.00     0.274 HD
ATOM     37  H12 UNL     1      22.541 -14.071  11.198  1.00  0.00     0.274 HD
ATOM     38  H11 UNL     1      23.771 -13.146  10.530  1.00  0.00     0.274 HD
ENDBRANCH   2  35
TORSDOF 9
ENDMDL
MODEL 3
REMARK VINA RESULT: -5.072590176      2.031      3.519
REMARK  9 active torsions:
REMARK  status: ('A' for Active; 'I' for Inactive)
REMARK    1  A    between atoms: O1_2  and  C2_3 
REMARK    2  A    between atoms: C2_3  and  O2_4 
REMARK    3  A    between atoms: C2_3  and  C3_6 
REMARK    4  A    between atoms: C4_7  and  N1_8 
REMARK    5  A    between atoms: C6_13  and  N2_14 
REMARK    6  A    between atoms: C7_18  and  O3_19 
REMARK    7  A    between atoms: O3_19  and  C8_20 
REMARK    8  A    between atoms: C11_33  and  O4_34 
REMARK    9  A    between atoms: C11_33  and  N8_36 
ROOT
HETATM    1  C3  UNL     1      23.893 -15.710  10.707  1.00  0.00     0.129 C 
HETATM    2  C4  UNL     1      23.051 -16.927  10.772  1.00  0.00     0.199 C 
HETATM    3  C5  UNL     1      23.683 -18.222  10.390  1.00  0.00     0.069 C 
HETATM    4  C6  UNL     1      25.163 -18.277  10.452  1.00  0.00     0.219 C 
HETATM    5  C7  UNL     1      25.902 -17.008  10.409  1.00  0.00     0.218 C 
HETATM    6  C11 UNL     1      25.164 -15.775   9.942  1.00  0.00     0.168 C 
ENDROOT
BRANCH   5   7
HETATM    7  O3  UNL     1      26.349 -16.729  11.749  1.00  0.00    -0.309 OA
BRANCH   7   8
HETATM    8  C8  UNL     1      25.999 -17.488  12.828  1.00  0.00     0.240 A 
HETATM    9  N3  UNL     1      26.469 -18.719  13.101  1.00  0.00    -0.295 N 
HETATM   10  C9  UNL     1      26.037 -19.367  14.213  1.00  0.00     0.209 A 
ATOM     11  H3  UNL     1      27.145 -19.161  12.478  1.00  0.00     0.172 HD
HETATM   12  N4  UNL     1      26.553 -20.648  14.460  1.00  0.00    -0.062 NA
HETATM   13  N5  UNL     1      25.156 -18.837  15.060  1.00  0.00    -0.163 N 
HETATM   14  C10 UNL     1      24.680 -17.602  14.793  1.00  0.00     0.681 A 
ATOM     15  H5  UNL     1      24.851 -19.350  15.887  1.00  0.00     0.187 HD
HETATM   16  N6  UNL     1      23.834 -17.040  15.568  1.00  0.00    -0.234 N 
HETATM   17  N7  UNL     1      25.110 -16.964  13.691  1.00  0.00    -0.155 N 
ATOM     18  H62 UNL     1      23.507 -17.525  16.404  1.00  0.00     0.174 HD
ATOM     19  H61 UNL     1      23.474 -16.107  15.366  1.00  0.00     0.174 HD
ATOM     20  H7  UNL     1      24.743 -16.031  13.499  1.00  0.00     0.188 HD
ENDBRANCH   7   8
ENDBRANCH   5   7
BRANCH   4  21
HETATM   21  N2  UNL     1      25.700 -19.176   9.423  1.00  0.00    -0.072 N 
ATOM     22  H23 UNL     1      25.576 -20.156   9.678  1.00  0.00     0.274 HD
ATOM     23  H22 UNL     1      25.129 -19.163   8.577  1.00  0.00     0.274 HD
ATOM     24  H21 UNL     1      26.676 -18.960   9.220  1.00  0.00     0.274 HD
ENDBRANCH   4  21
BRANCH   6  25
HETATM   25  O4  UNL     1      25.952 -14.715  10.516  1.00  0.00    -0.368 OA
ATOM     26  H4  UNL     1      26.283 -14.251   9.756  1.00  0.00     0.212 HD
ENDBRANCH   6  25
BRANCH   6  27
HETATM   27  N8  UNL     1      25.205 -15.492   8.589  1.00  0.00    -0.389 N 
HETATM   28  C12 UNL     1      24.169 -15.603   7.679  1.00  0.00     0.145 C 
HETATM   29  C13 UNL     1      26.433 -15.921   7.937  1.00  0.00     0.145 C 
ENDBRANCH   6  27
BRANCH   1  30
HETATM   30  C2  UNL     1      23.040 -14.486  10.452  1.00  0.00     0.267 C 
BRANCH  30  31
HETATM   31  O1  UNL     1      23.577 -13.310  10.965  1.00  0.00    -0.366 OA
HETATM   32  C1  UNL     1      22.843 -12.954  12.090  1.00  0.00     0.204 C 
ENDBRANCH  30  31
BRANCH  30  33
HETATM   33  O2  UNL     1      21.845 -14.625  11.240  1.00  0.00    -0.371 OA
ATOM     34  H2  UNL     1      21.326 -15.206  10.697  1.00  0.00     0.212 HD
ENDBRANCH  30  33
ENDBRANCH   1  30
BRANCH   2  35
HETATM   35  N1  UNL     1      21.734 -16.767  10.153  1.00  0.00    -0.074 N 
ATOM     36  H13 UNL     1      21.023 -17.264  10.689  1.00  0.00     0.274 HD
ATOM     37  H12 UNL     1      21.398 -15.811  10.266  1.00  0.00     0.274 HD
ATOM     38  H11 UNL     1      21.704 -17.045   9.172  1.00  0.00     0.274 HD
ENDBRANCH   2  35
TORSDOF 9
ENDMDL
MODEL 4
REMARK VINA RESULT: -4.842460231      1.963      3.615
REMARK  9 active torsions:
REMARK  status: ('A' for Active; 'I' for Inactive)
REMARK    1  A    between atoms: O1_2  and  C2_3 
REMARK    2  A    between atoms: C2_3  and  O2_4 
REMARK    3  A    between atoms: C2_3  and  C3_6 
REMARK    4  A    between atoms: C4_7  and  N1_8 
REMARK    5  A    between atoms: C6_13  and  N2_14 
REMARK    6  A    between atoms: C7_18  and  O3_19 
REMARK    7  A    between atoms: O3_19  and  C8_20 
REMARK    8  A    between atoms: C11_33  and  O4_34 
REMARK    9  A    between atoms: C11_33  and  N8_36 
ROOT
HETATM    1  C3  UNL     1      23.908 -15.692  10.698  1.00  0.00     0.129 C 
HETATM    2  C4  UNL     1      23.070 -16.911  10.779  1.00  0.00     0.199 C 
HETATM    3  C5  UNL     1      23.705 -18.207  10.405  1.00  0.00     0.069 C 
HETATM    4  C6  UNL     1      25.184 -18.257  10.458  1.00  0.00     0.219 C 
HETATM    5  C7  UNL     1      25.920 -16.986  10.399  1.00  0.00     0.218 C 
HETATM    6  C11 UNL     1      25.174 -15.759   9.926  1.00  0.00     0.168 C 
ENDROOT
BRANCH   5   7
HETATM    7  O3  UNL     1      26.374 -16.693  11.734  1.00  0.00    -0.309 OA
BRANCH   7   8
HETATM    8  C8  UNL     1      25.891 -17.325  12.843  1.00  0.00     0.240 A 
HETATM    9  N3  UNL     1      24.823 -16.932  13.562  1.00  0.00    -0.295 N 
HETATM   10  C9  UNL     1      24.447 -17.655  14.648  1.00  0.00     0.209 A 
ATOM     11  H3  UNL     1      24.300 -16.099  13.293  1.00  0.00     0.172 HD
HETATM   12  N4  UNL     1      23.328 -17.211  15.369  1.00  0.00    -0.062 NA
HETATM   13  N5  UNL     1      25.093 -18.750  15.045  1.00  0.00    -0.163 N 
HETATM   14  C10 UNL     1      26.166 -19.150  14.329  1.00  0.00     0.681 A 
ATOM     15  H5  UNL     1      24.786 -19.271  15.866  1.00  0.00     0.187 HD
HETATM   16  N6  UNL     1      26.827 -20.193  14.659  1.00  0.00    -0.234 N 
HETATM   17  N7  UNL     1      26.535 -18.432  13.254  1.00  0.00    -0.155 N 
ATOM     18  H62 UNL     1      26.547 -20.738  15.474  1.00  0.00     0.174 HD
ATOM     19  H61 UNL     1      27.637 -20.495  14.118  1.00  0.00     0.174 HD
ATOM     20  H7  UNL     1      27.347 -18.744  12.721  1.00  0.00     0.188 HD
ENDBRANCH   7   8
ENDBRANCH   5   7
BRANCH   4  21
HETATM   21  N2  UNL     1      25.718 -19.163   9.433  1.00  0.00    -0.072 N 
ATOM     22  H23 UNL     1      25.747 -18.717   8.516  1.00  0.00     0.274 HD
ATOM     23  H22 UNL     1      26.717 -19.325   9.559  1.00  0.00     0.274 HD
ATOM     24  H21 UNL     1      25.195 -20.038   9.410  1.00  0.00     0.274 HD
ENDBRANCH   4  21
BRANCH   6  25
HETATM   25  O4  UNL     1      25.962 -14.692  10.486  1.00  0.00    -0.368 OA
ATOM     26  H4  UNL     1      26.854 -15.006  10.393  1.00  0.00     0.212 HD
ENDBRANCH   6  25
BRANCH   6  27
HETATM   27  N8  UNL     1      25.206 -15.488   8.571  1.00  0.00    -0.389 N 
HETATM   28  C12 UNL     1      24.167 -15.621   7.666  1.00  0.00     0.145 C 
HETATM   29  C13 UNL     1      26.436 -15.906   7.917  1.00  0.00     0.145 C 
ENDBRANCH   6  27
BRANCH   1  30
HETATM   30  C2  UNL     1      23.049 -14.473  10.438  1.00  0.00     0.267 C 
BRANCH  30  31
HETATM   31  O1  UNL     1      23.562 -13.298  10.978  1.00  0.00    -0.366 OA
HETATM   32  C1  UNL     1      22.760 -12.928  12.050  1.00  0.00     0.204 C 
ENDBRANCH  30  31
BRANCH  30  33
HETATM   33  O2  UNL     1      21.837 -14.633  11.196  1.00  0.00    -0.371 OA
ATOM     34  H2  UNL     1      21.431 -13.781  11.086  1.00  0.00     0.212 HD
ENDBRANCH  30  33
ENDBRANCH   1  30
BRANCH   2  35
HETATM   35  N1  UNL     1      21.749 -16.761  10.167  1.00  0.00    -0.074 N 
ATOM     36  H13 UNL     1      21.144 -16.188  10.755  1.00  0.00     0.274 HD
ATOM     37  H12 UNL     1      21.801 -16.165   9.341  1.00  0.00     0.274 HD
ATOM     38  H11 UNL     1      21.297 -17.647   9.943  1.00  0.00     0.274 HD
ENDBRANCH   2  35
TORSDOF 9
ENDMDL
MODEL 5
REMARK VINA RESULT: -4.824048212      1.844      2.890
REMARK  9 active torsions:
REMARK  status: ('A' for Active; 'I' for Inactive)
REMARK    1  A    between atoms: O1_2  and  C2_3 
REMARK    2  A    between atoms: C2_3  and  O2_4 
REMARK    3  A    between atoms: C2_3  and  C3_6 
REMARK    4  A    between atoms: C4_7  and  N1_8 
REMARK    5  A    between atoms: C6_13  and  N2_14 
REMARK    6  A    between atoms: C7_18  and  O3_19 
REMARK    7  A    between atoms: O3_19  and  C8_20 
REMARK    8  A    between atoms: C11_33  and  O4_34 
REMARK    9  A    between atoms: C11_33  and  N8_36 
ROOT
HETATM    1  C3  UNL     1      23.808 -15.730  10.842  1.00  0.00     0.129 C 
HETATM    2  C4  UNL     1      22.986 -16.962  10.882  1.00  0.00     0.199 C 
HETATM    3  C5  UNL     1      23.671 -18.255  10.599  1.00  0.00     0.069 C 
HETATM    4  C6  UNL     1      25.141 -18.277  10.782  1.00  0.00     0.219 C 
HETATM    5  C7  UNL     1      25.858 -16.995  10.755  1.00  0.00     0.218 C 
HETATM    6  C11 UNL     1      25.138 -15.794  10.186  1.00  0.00     0.168 C 
ENDROOT
BRANCH   5   7
HETATM    7  O3  UNL     1      26.189 -16.661  12.116  1.00  0.00    -0.309 OA
BRANCH   7   8
HETATM    8  C8  UNL     1      26.874 -17.499  12.947  1.00  0.00     0.240 A 
HETATM    9  N3  UNL     1      28.192 -17.428  13.212  1.00  0.00    -0.295 N 
HETATM   10  C9  UNL     1      28.751 -18.328  14.062  1.00  0.00     0.209 A 
ATOM     11  H3  UNL     1      28.766 -16.705  12.778  1.00  0.00     0.172 HD
HETATM   12  N4  UNL     1      30.127 -18.218  14.311  1.00  0.00    -0.062 NA
HETATM   13  N5  UNL     1      28.049 -19.292  14.655  1.00  0.00    -0.163 N 
HETATM   14  C10 UNL     1      26.726 -19.369  14.393  1.00  0.00     0.681 A 
ATOM     15  H5  UNL     1      28.498 -19.953  15.288  1.00  0.00     0.187 HD
HETATM   16  N6  UNL     1      26.000 -20.272  14.933  1.00  0.00    -0.234 N 
HETATM   17  N7  UNL     1      26.176 -18.477  13.552  1.00  0.00    -0.155 N 
ATOM     18  H62 UNL     1      26.417 -20.949  15.571  1.00  0.00     0.174 HD
ATOM     19  H61 UNL     1      25.001 -20.330  14.735  1.00  0.00     0.174 HD
ATOM     20  H7  UNL     1      25.176 -18.545  13.362  1.00  0.00     0.188 HD
ENDBRANCH   7   8
ENDBRANCH   5   7
BRANCH   4  21
HETATM   21  N2  UNL     1      25.777 -19.198   9.833  1.00  0.00    -0.072 N 
ATOM     22  H23 UNL     1      25.092 -19.628   9.211  1.00  0.00     0.274 HD
ATOM     23  H22 UNL     1      26.328 -18.699   9.136  1.00  0.00     0.274 HD
ATOM     24  H21 UNL     1      26.334 -19.900  10.320  1.00  0.00     0.274 HD
ENDBRANCH   4  21
BRANCH   6  25
HETATM   25  O4  UNL     1      25.857 -14.699  10.784  1.00  0.00    -0.368 OA
ATOM     26  H4  UNL     1      26.688 -15.090  11.028  1.00  0.00     0.212 HD
ENDBRANCH   6  25
BRANCH   6  27
HETATM   27  N8  UNL     1      25.285 -15.556   8.832  1.00  0.00    -0.389 N 
HETATM   28  C12 UNL     1      24.292 -15.565   7.868  1.00  0.00     0.145 C 
HETATM   29  C13 UNL     1      26.482 -16.150   8.258  1.00  0.00     0.145 C 
ENDBRANCH   6  27
BRANCH   1  30
HETATM   30  C2  UNL     1      22.957 -14.533  10.476  1.00  0.00     0.267 C 
BRANCH  30  31
HETATM   31  O1  UNL     1      23.499 -13.315  10.871  1.00  0.00    -0.366 OA
HETATM   32  C1  UNL     1      22.827 -12.891  12.010  1.00  0.00     0.204 C 
ENDBRANCH  30  31
BRANCH  30  33
HETATM   33  O2  UNL     1      21.766 -14.592  11.281  1.00  0.00    -0.371 OA
ATOM     34  H2  UNL     1      21.411 -15.437  11.032  1.00  0.00     0.212 HD
ENDBRANCH  30  33
ENDBRANCH   1  30
BRANCH   2  35
HETATM   35  N1  UNL     1      21.721 -16.851  10.153  1.00  0.00    -0.074 N 
ATOM     36  H13 UNL     1      21.397 -15.884  10.141  1.00  0.00     0.274 HD
ATOM     37  H12 UNL     1      21.869 -16.996   9.154  1.00  0.00     0.274 HD
ATOM     38  H11 UNL     1      20.990 -17.470  10.502  1.00  0.00     0.274 HD
ENDBRANCH   2  35
TORSDOF 9
ENDMDL
