MODEL 1
REMARK VINA RESULT: -9.435808750      0.000      0.000
REMARK  8 active torsions:
REMARK  status: ('A' for Active; 'I' for Inactive)
REMARK       I    between atoms: C1_2  and  N10_31 
REMARK    1  A    between atoms: N2_3  and  N3_5 
REMARK    2  A    between atoms: C2_7  and  N4_8 
REMARK    3  A    between atoms: C2_7  and  C7_24 
REMARK    4  A    between atoms: C3_10  and  C4_12 
REMARK    5  A    between atoms: C6_21  and  O2_22 
REMARK    6  A    between atoms: C7_24  and  O3_25 
REMARK    7  A    between atoms: N9_27  and  O4_29 
REMARK    8  A    between atoms: N10_31  and  N11_33 
ROOT
HETATM    1  N3  UNL     1      23.567 -16.862  13.035  1.00  0.00    -0.279 N 
ATOM      2  H3  UNL     1      22.568 -16.658  13.081  1.00  0.00     0.189 HD
HETATM    3  C2  UNL     1      23.974 -17.129  14.166  1.00  0.00     0.175 C 
ENDROOT
BRANCH   3   4
HETATM    4  N4  UNL     1      25.340 -17.464  14.429  1.00  0.00    -0.324 N 
HETATM    5  C3  UNL     1      25.948 -18.470  13.917  1.00  0.00     0.150 C 
HETATM    6  N5  UNL     1      25.305 -19.349  13.029  1.00  0.00    -0.080 NA
ATOM      7  H4  UNL     1      25.864 -16.865  15.066  1.00  0.00     0.169 HD
BRANCH   5   8
HETATM    8  C4  UNL     1      27.336 -18.692  14.278  1.00  0.00     0.140 A 
HETATM    9  N6  UNL     1      27.678 -19.619  15.206  1.00  0.00    -0.290 N 
HETATM   10  N7  UNL     1      28.925 -19.850  15.560  1.00  0.00    -0.251 N 
ATOM     11  H6  UNL     1      26.937 -20.160  15.651  1.00  0.00     0.187 HD
HETATM   12  C5  UNL     1      29.971 -19.182  15.024  1.00  0.00     0.340 A 
ATOM     13  H7  UNL     1      29.109 -20.564  16.266  1.00  0.00     0.191 HD
HETATM   14  O1  UNL     1      31.169 -19.393  15.353  1.00  0.00    -0.245 OA
HETATM   15  N8  UNL     1      29.686 -18.251  14.097  1.00  0.00    -0.286 N 
HETATM   16  C6  UNL     1      28.392 -18.006  13.728  1.00  0.00     0.176 A 
ATOM     17  H8  UNL     1      30.444 -17.722  13.665  1.00  0.00     0.172 HD
BRANCH  16  18
HETATM   18  O2  UNL     1      28.135 -17.040  12.770  1.00  0.00    -0.344 OA
ATOM     19  H2  UNL     1      28.686 -17.004  11.997  1.00  0.00     0.219 HD
ENDBRANCH  16  18
ENDBRANCH   5   8
ENDBRANCH   3   4
BRANCH   3  20
HETATM   20  C7  UNL     1      23.058 -17.112  15.351  1.00  0.00     0.206 C 
HETATM   21  N9  UNL     1      23.291 -17.787  16.407  1.00  0.00    -0.244 N 
ATOM     22  H9  UNL     1      24.139 -18.353  16.426  1.00  0.00     0.196 HD
BRANCH  20  23
HETATM   23  O3  UNL     1      21.937 -16.310  15.228  1.00  0.00    -0.342 OA
ATOM     24  H3  UNL     1      22.108 -15.392  15.052  1.00  0.00     0.219 HD
ENDBRANCH  20  23
BRANCH  21  25
HETATM   25  O4  UNL     1      22.499 -17.809  17.507  1.00  0.00    -0.288 OA
ATOM     26  H4  UNL     1      22.495 -18.496  18.163  1.00  0.00     0.244 HD
ENDBRANCH  21  25
ENDBRANCH   3  20
BRANCH   1  27
HETATM   27  N2  UNL     1      23.957 -16.751  11.820  1.00  0.00    -0.271 N 
HETATM   28  C1  UNL     1      24.278 -15.937  10.939  1.00  0.00     0.226 C 
HETATM   29  N1  UNL     1      24.297 -14.517  11.100  1.00  0.00    -0.060 NA
HETATM   30  N10 UNL     1      24.658 -16.489   9.648  1.00  0.00    -0.212 N 
ATOM     31  H10 UNL     1      24.335 -16.064   8.779  1.00  0.00     0.196 HD
ATOM     32  H2  UNL     1      24.035 -17.689  11.427  1.00  0.00     0.189 HD
BRANCH  30  33
HETATM   33  N11 UNL     1      25.469 -17.610   9.634  1.00  0.00    -0.036 N 
HETATM   34  O5  UNL     1      26.549 -17.674  10.255  1.00  0.00    -0.516 OA
HETATM   35  O6  UNL     1      25.068 -18.713   8.895  1.00  0.00    -0.516 OA
ENDBRANCH  30  33
ENDBRANCH   1  27
TORSDOF 8
ENDMDL
MODEL 2
REMARK VINA RESULT: -9.005909364      1.606      5.599
REMARK  8 active torsions:
REMARK  status: ('A' for Active; 'I' for Inactive)
REMARK       I    between atoms: C1_2  and  N10_31 
REMARK    1  A    between atoms: N2_3  and  N3_5 
REMARK    2  A    between atoms: C2_7  and  N4_8 
REMARK    3  A    between atoms: C2_7  and  C7_24 
REMARK    4  A    between atoms: C3_10  and  C4_12 
REMARK    5  A    between atoms: C6_21  and  O2_22 
REMARK    6  A    between atoms: C7_24  and  O3_25 
REMARK    7  A    between atoms: N9_27  and  O4_29 
REMARK    8  A    between atoms: N10_31  and  N11_33 
ROOT
HETATM    1  N3  UNL     1      25.404 -18.086  15.245  1.00  0.00    -0.279 N 
ATOM      2  H3  UNL     1      25.204 -18.377  16.202  1.00  0.00     0.189 HD
HETATM    3  C2  UNL     1      24.426 -17.487  14.796  1.00  0.00     0.175 C 
ENDROOT
BRANCH   3   4
HETATM    4  N4  UNL     1      24.399 -16.948  13.470  1.00  0.00    -0.324 N 
HETATM    5  C3  UNL     1      24.452 -17.656  12.403  1.00  0.00     0.150 C 
HETATM    6  N5  UNL     1      24.542 -19.058  12.448  1.00  0.00    -0.080 NA
ATOM      7  H4  UNL     1      24.334 -15.936  13.368  1.00  0.00     0.169 HD
BRANCH   5   8
HETATM    8  C4  UNL     1      24.419 -16.973  11.123  1.00  0.00     0.140 A 
HETATM    9  N6  UNL     1      23.381 -16.169  10.785  1.00  0.00    -0.290 N 
HETATM   10  N7  UNL     1      23.316 -15.531   9.635  1.00  0.00    -0.251 N 
ATOM     11  H6  UNL     1      22.618 -16.053  11.450  1.00  0.00     0.187 HD
HETATM   12  C5  UNL     1      24.281 -15.625   8.693  1.00  0.00     0.340 A 
ATOM     13  H7  UNL     1      22.504 -14.942   9.448  1.00  0.00     0.191 HD
HETATM   14  O1  UNL     1      24.231 -15.021   7.588  1.00  0.00    -0.245 OA
HETATM   15  N8  UNL     1      25.333 -16.411   8.978  1.00  0.00    -0.286 N 
HETATM   16  C6  UNL     1      25.405 -17.076  10.171  1.00  0.00     0.176 A 
ATOM     17  H8  UNL     1      26.087 -16.511   8.297  1.00  0.00     0.172 HD
BRANCH  16  18
HETATM   18  O2  UNL     1      26.504 -17.876  10.432  1.00  0.00    -0.344 OA
ATOM     19  H2  UNL     1      27.037 -17.688  11.196  1.00  0.00     0.219 HD
ENDBRANCH  16  18
ENDBRANCH   5   8
ENDBRANCH   3   4
BRANCH   3  20
HETATM   20  C7  UNL     1      23.187 -17.290  15.614  1.00  0.00     0.206 C 
HETATM   21  N9  UNL     1      23.033 -17.816  16.765  1.00  0.00    -0.244 N 
ATOM     22  H9  UNL     1      23.796 -18.389  17.125  1.00  0.00     0.196 HD
BRANCH  20  23
HETATM   23  O3  UNL     1      22.213 -16.492  15.038  1.00  0.00    -0.342 OA
ATOM     24  H3  UNL     1      21.749 -15.917  15.635  1.00  0.00     0.219 HD
ENDBRANCH  20  23
BRANCH  21  25
HETATM   25  O4  UNL     1      21.935 -17.672  17.546  1.00  0.00    -0.288 OA
ATOM     26  H4  UNL     1      21.892 -17.885  18.471  1.00  0.00     0.244 HD
ENDBRANCH  21  25
ENDBRANCH   3  20
BRANCH   1  27
HETATM   27  N2  UNL     1      26.584 -18.471  14.931  1.00  0.00    -0.271 N 
HETATM   28  C1  UNL     1      27.575 -18.205  14.232  1.00  0.00     0.226 C 
HETATM   29  N1  UNL     1      27.681 -17.087  13.348  1.00  0.00    -0.060 NA
HETATM   30  N10 UNL     1      28.705 -19.115  14.330  1.00  0.00    -0.212 N 
ATOM     31  H10 UNL     1      29.216 -19.411  13.498  1.00  0.00     0.196 HD
ATOM     32  H2  UNL     1      26.788 -19.321  15.457  1.00  0.00     0.189 HD
BRANCH  30  33
HETATM   33  N11 UNL     1      29.069 -19.568  15.586  1.00  0.00    -0.036 N 
HETATM   34  O5  UNL     1      29.915 -18.990  16.297  1.00  0.00    -0.516 OA
HETATM   35  O6  UNL     1      28.468 -20.715  16.080  1.00  0.00    -0.516 OA
ENDBRANCH  30  33
ENDBRANCH   1  27
TORSDOF 8
ENDMDL
MODEL 3
REMARK VINA RESULT: -8.845362538      1.842      2.305
REMARK  8 active torsions:
REMARK  status: ('A' for Active; 'I' for Inactive)
REMARK       I    between atoms: C1_2  and  N10_31 
REMARK    1  A    between atoms: N2_3  and  N3_5 
REMARK    2  A    between atoms: C2_7  and  N4_8 
REMARK    3  A    between atoms: C2_7  and  C7_24 
REMARK    4  A    between atoms: C3_10  and  C4_12 
REMARK    5  A    between atoms: C6_21  and  O2_22 
REMARK    6  A    between atoms: C7_24  and  O3_25 
REMARK    7  A    between atoms: N9_27  and  O4_29 
REMARK    8  A    between atoms: N10_31  and  N11_33 
ROOT
HETATM    1  N3  UNL     1      23.454 -16.525  13.688  1.00  0.00    -0.279 N 
ATOM      2  H3  UNL     1      22.448 -16.378  13.764  1.00  0.00     0.189 HD
HETATM    3  C2  UNL     1      23.837 -17.178  14.659  1.00  0.00     0.175 C 
ENDROOT
BRANCH   3   4
HETATM    4  N4  UNL     1      25.207 -17.552  14.840  1.00  0.00    -0.324 N 
HETATM    5  C3  UNL     1      25.757 -18.568  14.284  1.00  0.00     0.150 C 
HETATM    6  N5  UNL     1      25.040 -19.420  13.426  1.00  0.00    -0.080 NA
ATOM      7  H4  UNL     1      25.782 -16.973  15.451  1.00  0.00     0.169 HD
BRANCH   5   8
HETATM    8  C4  UNL     1      27.156 -18.830  14.561  1.00  0.00     0.140 A 
HETATM    9  N6  UNL     1      28.126 -17.985  14.130  1.00  0.00    -0.290 N 
HETATM   10  N7  UNL     1      29.405 -18.186  14.363  1.00  0.00    -0.251 N 
ATOM     11  H6  UNL     1      27.851 -17.157  13.602  1.00  0.00     0.187 HD
HETATM   12  C5  UNL     1      29.861 -19.255  15.054  1.00  0.00     0.340 A 
ATOM     13  H7  UNL     1      30.080 -17.508  14.009  1.00  0.00     0.191 HD
HETATM   14  O1  UNL     1      31.083 -19.461  15.284  1.00  0.00    -0.245 OA
HETATM   15  N8  UNL     1      28.941 -20.125  15.504  1.00  0.00    -0.286 N 
HETATM   16  C6  UNL     1      27.610 -19.920  15.263  1.00  0.00     0.176 A 
ATOM     17  H8  UNL     1      29.238 -20.947  16.031  1.00  0.00     0.172 HD
BRANCH  16  18
HETATM   18  O2  UNL     1      26.689 -20.836  15.742  1.00  0.00    -0.344 OA
ATOM     19  H2  UNL     1      26.776 -21.748  15.488  1.00  0.00     0.219 HD
ENDBRANCH  16  18
ENDBRANCH   5   8
ENDBRANCH   3   4
BRANCH   3  20
HETATM   20  C7  UNL     1      22.886 -17.620  15.729  1.00  0.00     0.206 C 
HETATM   21  N9  UNL     1      23.221 -17.696  16.957  1.00  0.00    -0.244 N 
ATOM     22  H9  UNL     1      24.178 -17.441  17.199  1.00  0.00     0.196 HD
BRANCH  20  23
HETATM   23  O3  UNL     1      21.610 -17.941  15.298  1.00  0.00    -0.342 OA
ATOM     24  H3  UNL     1      20.905 -17.688  15.881  1.00  0.00     0.219 HD
ENDBRANCH  20  23
BRANCH  21  25
HETATM   25  O4  UNL     1      22.404 -18.089  17.964  1.00  0.00    -0.288 OA
ATOM     26  H4  UNL     1      21.467 -17.938  17.998  1.00  0.00     0.244 HD
ENDBRANCH  21  25
ENDBRANCH   3  20
BRANCH   1  27
HETATM   27  N2  UNL     1      23.877 -15.966  12.617  1.00  0.00    -0.271 N 
HETATM   28  C1  UNL     1      24.802 -15.952  11.788  1.00  0.00     0.226 C 
HETATM   29  N1  UNL     1      25.957 -16.793  11.832  1.00  0.00    -0.060 NA
HETATM   30  N10 UNL     1      24.685 -14.997  10.697  1.00  0.00    -0.212 N 
ATOM     31  H10 UNL     1      25.491 -14.453  10.387  1.00  0.00     0.196 HD
ATOM     32  H2  UNL     1      23.192 -15.263  12.337  1.00  0.00     0.189 HD
BRANCH  30  33
HETATM   33  N11 UNL     1      23.450 -14.849  10.092  1.00  0.00    -0.036 N 
HETATM   34  O5  UNL     1      23.185 -15.314   8.966  1.00  0.00    -0.516 OA
HETATM   35  O6  UNL     1      22.459 -14.150  10.764  1.00  0.00    -0.516 OA
ENDBRANCH  30  33
ENDBRANCH   1  27
TORSDOF 8
ENDMDL
MODEL 4
REMARK VINA RESULT: -8.840261283      2.264      3.038
REMARK  8 active torsions:
REMARK  status: ('A' for Active; 'I' for Inactive)
REMARK       I    between atoms: C1_2  and  N10_31 
REMARK    1  A    between atoms: N2_3  and  N3_5 
REMARK    2  A    between atoms: C2_7  and  N4_8 
REMARK    3  A    between atoms: C2_7  and  C7_24 
REMARK    4  A    between atoms: C3_10  and  C4_12 
REMARK    5  A    between atoms: C6_21  and  O2_22 
REMARK    6  A    between atoms: C7_24  and  O3_25 
REMARK    7  A    between atoms: N9_27  and  O4_29 
REMARK    8  A    between atoms: N10_31  and  N11_33 
ROOT
HETATM    1  N3  UNL     1      24.508 -16.261  10.641  1.00  0.00    -0.279 N 
ATOM      2  H3  UNL     1      23.612 -15.865  10.355  1.00  0.00     0.189 HD
HETATM    3  C2  UNL     1      24.604 -16.188  11.866  1.00  0.00     0.175 C 
ENDROOT
BRANCH   3   4
HETATM    4  N4  UNL     1      25.753 -16.665  12.575  1.00  0.00    -0.324 N 
HETATM    5  C3  UNL     1      25.932 -17.887  12.918  1.00  0.00     0.150 C 
HETATM    6  N5  UNL     1      24.990 -18.886  12.618  1.00  0.00    -0.080 NA
ATOM      7  H4  UNL     1      26.475 -15.990  12.822  1.00  0.00     0.169 HD
BRANCH   5   8
HETATM    8  C4  UNL     1      27.145 -18.229  13.638  1.00  0.00     0.140 A 
HETATM    9  N6  UNL     1      28.345 -17.717  13.269  1.00  0.00    -0.290 N 
HETATM   10  N7  UNL     1      29.467 -18.000  13.897  1.00  0.00    -0.251 N 
ATOM     11  H6  UNL     1      28.380 -17.084  12.470  1.00  0.00     0.187 HD
HETATM   12  C5  UNL     1      29.516 -18.828  14.965  1.00  0.00     0.340 A 
ATOM     13  H7  UNL     1      30.334 -17.578  13.564  1.00  0.00     0.191 HD
HETATM   14  O1  UNL     1      30.582 -19.108  15.575  1.00  0.00    -0.245 OA
HETATM   15  N8  UNL     1      28.352 -19.363  15.372  1.00  0.00    -0.286 N 
HETATM   16  C6  UNL     1      27.184 -19.072  14.722  1.00  0.00     0.176 A 
ATOM     17  H8  UNL     1      28.340 -19.993  16.175  1.00  0.00     0.172 HD
BRANCH  16  18
HETATM   18  O2  UNL     1      26.004 -19.641  15.169  1.00  0.00    -0.344 OA
ATOM     19  H2  UNL     1      25.971 -20.581  15.305  1.00  0.00     0.219 HD
ENDBRANCH  16  18
ENDBRANCH   5   8
ENDBRANCH   3   4
BRANCH   3  20
HETATM   20  C7  UNL     1      23.520 -15.580  12.702  1.00  0.00     0.206 C 
HETATM   21  N9  UNL     1      22.935 -14.493  12.383  1.00  0.00    -0.244 N 
ATOM     22  H9  UNL     1      23.232 -14.036  11.521  1.00  0.00     0.196 HD
BRANCH  20  23
HETATM   23  O3  UNL     1      23.188 -16.280  13.849  1.00  0.00    -0.342 OA
ATOM     24  H3  UNL     1      23.921 -16.633  14.339  1.00  0.00     0.219 HD
ENDBRANCH  20  23
BRANCH  21  25
HETATM   25  O4  UNL     1      21.950 -13.899  13.100  1.00  0.00    -0.288 OA
ATOM     26  H4  UNL     1      21.961 -12.999  13.402  1.00  0.00     0.244 HD
ENDBRANCH  21  25
ENDBRANCH   3  20
BRANCH   1  27
HETATM   27  N2  UNL     1      25.137 -16.659   9.600  1.00  0.00    -0.271 N 
HETATM   28  C1  UNL     1      25.353 -17.640   8.870  1.00  0.00     0.226 C 
HETATM   29  N1  UNL     1      24.797 -18.944   9.060  1.00  0.00    -0.060 NA
HETATM   30  N10 UNL     1      26.244 -17.430   7.741  1.00  0.00    -0.212 N 
ATOM     31  H10 UNL     1      26.954 -18.120   7.495  1.00  0.00     0.196 HD
ATOM     32  H2  UNL     1      25.663 -15.868   9.227  1.00  0.00     0.189 HD
BRANCH  30  33
HETATM   33  N11 UNL     1      26.101 -16.265   7.008  1.00  0.00    -0.036 N 
HETATM   34  O5  UNL     1      27.062 -15.528   6.709  1.00  0.00    -0.516 OA
HETATM   35  O6  UNL     1      24.834 -15.896   6.585  1.00  0.00    -0.516 OA
ENDBRANCH  30  33
ENDBRANCH   1  27
TORSDOF 8
ENDMDL
MODEL 5
REMARK VINA RESULT: -8.792236560      1.476      5.458
REMARK  8 active torsions:
REMARK  status: ('A' for Active; 'I' for Inactive)
REMARK       I    between atoms: C1_2  and  N10_31 
REMARK    1  A    between atoms: N2_3  and  N3_5 
REMARK    2  A    between atoms: C2_7  and  N4_8 
REMARK    3  A    between atoms: C2_7  and  C7_24 
REMARK    4  A    between atoms: C3_10  and  C4_12 
REMARK    5  A    between atoms: C6_21  and  O2_22 
REMARK    6  A    between atoms: C7_24  and  O3_25 
REMARK    7  A    between atoms: N9_27  and  O4_29 
REMARK    8  A    between atoms: N10_31  and  N11_33 
ROOT
HETATM    1  N3  UNL     1      25.224 -18.094  15.389  1.00  0.00    -0.279 N 
ATOM      2  H3  UNL     1      24.978 -18.376  16.339  1.00  0.00     0.189 HD
HETATM    3  C2  UNL     1      24.276 -17.482  14.896  1.00  0.00     0.175 C 
ENDROOT
BRANCH   3   4
HETATM    4  N4  UNL     1      24.315 -16.951  13.567  1.00  0.00    -0.324 N 
HETATM    5  C3  UNL     1      24.369 -17.669  12.506  1.00  0.00     0.150 C 
HETATM    6  N5  UNL     1      24.394 -19.073  12.562  1.00  0.00    -0.080 NA
ATOM      7  H4  UNL     1      24.298 -15.938  13.457  1.00  0.00     0.169 HD
BRANCH   5   8
HETATM    8  C4  UNL     1      24.406 -16.994  11.222  1.00  0.00     0.140 A 
HETATM    9  N6  UNL     1      23.389 -16.191  10.822  1.00  0.00    -0.290 N 
HETATM   10  N7  UNL     1      23.387 -15.561   9.667  1.00  0.00    -0.251 N 
ATOM     11  H6  UNL     1      22.590 -16.071  11.445  1.00  0.00     0.187 HD
HETATM   12  C5  UNL     1      24.402 -15.662   8.779  1.00  0.00     0.340 A 
ATOM     13  H7  UNL     1      22.587 -14.973   9.432  1.00  0.00     0.191 HD
HETATM   14  O1  UNL     1      24.413 -15.064   7.670  1.00  0.00    -0.245 OA
HETATM   15  N8  UNL     1      25.437 -16.446   9.126  1.00  0.00    -0.286 N 
HETATM   16  C6  UNL     1      25.442 -17.103  10.326  1.00  0.00     0.176 A 
ATOM     17  H8  UNL     1      26.226 -16.551   8.488  1.00  0.00     0.172 HD
BRANCH  16  18
HETATM   18  O2  UNL     1      26.525 -17.903  10.651  1.00  0.00    -0.344 OA
ATOM     19  H2  UNL     1      27.397 -17.526  10.627  1.00  0.00     0.219 HD
ENDBRANCH  16  18
ENDBRANCH   5   8
ENDBRANCH   3   4
BRANCH   3  20
HETATM   20  C7  UNL     1      23.007 -17.258  15.659  1.00  0.00     0.206 C 
HETATM   21  N9  UNL     1      22.776 -17.812  16.784  1.00  0.00    -0.244 N 
ATOM     22  H9  UNL     1      23.495 -18.428  17.161  1.00  0.00     0.196 HD
BRANCH  20  23
HETATM   23  O3  UNL     1      22.096 -16.402  15.064  1.00  0.00    -0.342 OA
ATOM     24  H3  UNL     1      22.171 -15.488  15.312  1.00  0.00     0.219 HD
ENDBRANCH  20  23
BRANCH  21  25
HETATM   25  O4  UNL     1      21.648 -17.647  17.516  1.00  0.00    -0.288 OA
ATOM     26  H4  UNL     1      20.959 -18.293  17.613  1.00  0.00     0.244 HD
ENDBRANCH  21  25
ENDBRANCH   3  20
BRANCH   1  27
HETATM   27  N2  UNL     1      26.409 -18.502  15.128  1.00  0.00    -0.271 N 
HETATM   28  C1  UNL     1      27.081 -19.493  14.797  1.00  0.00     0.226 C 
HETATM   29  N1  UNL     1      26.554 -20.799  14.556  1.00  0.00    -0.060 NA
HETATM   30  N10 UNL     1      28.513 -19.290  14.651  1.00  0.00    -0.212 N 
ATOM     31  H10 UNL     1      29.180 -19.976  15.007  1.00  0.00     0.196 HD
ATOM     32  H2  UNL     1      27.045 -17.711  15.232  1.00  0.00     0.189 HD
BRANCH  30  33
HETATM   33  N11 UNL     1      28.946 -18.140  14.016  1.00  0.00    -0.036 N 
HETATM   34  O5  UNL     1      28.320 -17.605  13.079  1.00  0.00    -0.516 OA
HETATM   35  O6  UNL     1      30.129 -17.552  14.436  1.00  0.00    -0.516 OA
ENDBRANCH  30  33
ENDBRANCH   1  27
TORSDOF 8
ENDMDL
