MODEL 1
REMARK VINA RESULT: -7.517789926      0.000      0.000
REMARK  10 active torsions:
REMARK  status: ('A' for Active; 'I' for Inactive)
REMARK    1  A    between atoms: N1_1  and  C1_4 
REMARK    2  A    between atoms: C2_10  and  C3_11 
REMARK    3  A    between atoms: C4_14  and  N5_15 
REMARK    4  A    between atoms: N5_15  and  C5_16 
REMARK    5  A    between atoms: C5_16  and  O2_17 
REMARK    6  A    between atoms: C5_16  and  C6_19 
REMARK    7  A    between atoms: C6_19  and  N6_20 
REMARK    8  A    between atoms: C9_27  and  C10_28 
REMARK    9  A    between atoms: C10_28  and  O4_29 
REMARK   10  A    between atoms: C11_31  and  N7_32 
ROOT
HETATM    1  C3  UNL     1      26.299 -18.633  14.502  1.00  0.00     0.183 A 
HETATM    2  N4  UNL     1      25.230 -18.329  15.213  1.00  0.00    -0.308 N 
ATOM      3  H4  UNL     1      25.137 -18.735  16.144  1.00  0.00     0.170 HD
HETATM    4  C4  UNL     1      24.223 -17.483  14.755  1.00  0.00     0.207 A 
HETATM    5  C7  UNL     1      24.408 -16.959  13.469  1.00  0.00     0.124 A 
HETATM    6  C8  UNL     1      25.531 -17.295  12.759  1.00  0.00     0.096 A 
HETATM    7  O3  UNL     1      26.413 -18.113  13.314  1.00  0.00    -0.293 OA
HETATM    8  C9  UNL     1      25.760 -16.759  11.404  1.00  0.00     0.109 C 
HETATM    9  C11 UNL     1      24.450 -16.466  10.737  1.00  0.00     0.287 C 
HETATM   10  C12 UNL     1      23.608 -15.616  11.615  1.00  0.00     0.253 C 
HETATM   11  O5  UNL     1      23.098 -14.530  11.273  1.00  0.00    -0.271 OA
HETATM   12  N8  UNL     1      23.380 -16.100  12.949  1.00  0.00    -0.319 N 
ATOM     13  H8  UNL     1      22.549 -15.853  13.486  1.00  0.00     0.169 HD
ENDROOT
BRANCH   1  14
HETATM   14  C2  UNL     1      27.346 -19.539  15.032  1.00  0.00     0.153 A 
HETATM   15  C1  UNL     1      27.276 -20.868  15.356  1.00  0.00     0.154 A 
HETATM   16  N2  UNL     1      28.487 -21.245  15.795  1.00  0.00    -0.224 N 
HETATM   17  O1  UNL     1      29.254 -20.201  15.739  1.00  0.00    -0.155 OA
ATOM     18  H2  UNL     1      28.755 -22.176  16.112  1.00  0.00     0.198 HD
HETATM   19  N3  UNL     1      28.596 -19.175  15.289  1.00  0.00    -0.234 N 
ATOM     20  H3  UNL     1      28.979 -18.239  15.154  1.00  0.00     0.197 HD
BRANCH  15  21
HETATM   21  N1  UNL     1      26.200 -21.581  15.238  1.00  0.00    -0.382 N 
ATOM     22  H12 UNL     1      26.200 -22.598  15.166  1.00  0.00     0.157 HD
ATOM     23  H11 UNL     1      25.230 -21.269  15.200  1.00  0.00     0.157 HD
ENDBRANCH  15  21
ENDBRANCH   1  14
BRANCH   4  24
HETATM   24  N5  UNL     1      23.273 -17.228  15.423  1.00  0.00    -0.394 NA
BRANCH  24  25
HETATM   25  C5  UNL     1      22.119 -17.282  16.088  1.00  0.00     0.325 C 
BRANCH  25  26
HETATM   26  O2  UNL     1      21.413 -18.511  16.046  1.00  0.00    -0.364 OA
ATOM     27  H2  UNL     1      21.511 -19.088  16.795  1.00  0.00     0.213 HD
ENDBRANCH  25  26
BRANCH  25  28
HETATM   28  C6  UNL     1      22.219 -17.006  17.606  1.00  0.00     0.297 C 
BRANCH  28  29
HETATM   29  N6  UNL     1      22.202 -18.253  18.323  1.00  0.00    -0.074 N 
ATOM     30  H63 UNL     1      22.549 -19.027  17.757  1.00  0.00     0.274 HD
ATOM     31  H62 UNL     1      22.907 -18.284  19.060  1.00  0.00     0.274 HD
ATOM     32  H61 UNL     1      21.263 -18.428  18.681  1.00  0.00     0.274 HD
ENDBRANCH  28  29
ENDBRANCH  25  28
ENDBRANCH  24  25
ENDBRANCH   4  24
BRANCH   8  33
HETATM   33  C10 UNL     1      26.614 -17.685  10.585  1.00  0.00     0.178 C 
BRANCH  33  34
HETATM   34  O4  UNL     1      26.424 -17.333   9.239  1.00  0.00    -0.400 OA
ATOM     35  H4  UNL     1      25.738 -17.896   8.901  1.00  0.00     0.209 HD
ENDBRANCH  33  34
ENDBRANCH   8  33
BRANCH   9  36
HETATM   36  N7  UNL     1      23.813 -17.736  10.429  1.00  0.00    -0.066 N 
ATOM     37  H73 UNL     1      24.403 -18.349   9.864  1.00  0.00     0.275 HD
ATOM     38  H72 UNL     1      23.727 -18.344  11.244  1.00  0.00     0.275 HD
ATOM     39  H71 UNL     1      22.914 -17.537   9.988  1.00  0.00     0.275 HD
ENDBRANCH   9  36
TORSDOF 10
ENDMDL
MODEL 2
REMARK VINA RESULT: -7.469444940      0.546      1.132
REMARK  10 active torsions:
REMARK  status: ('A' for Active; 'I' for Inactive)
REMARK    1  A    between atoms: N1_1  and  C1_4 
REMARK    2  A    between atoms: C2_10  and  C3_11 
REMARK    3  A    between atoms: C4_14  and  N5_15 
REMARK    4  A    between atoms: N5_15  and  C5_16 
REMARK    5  A    between atoms: C5_16  and  O2_17 
REMARK    6  A    between atoms: C5_16  and  C6_19 
REMARK    7  A    between atoms: C6_19  and  N6_20 
REMARK    8  A    between atoms: C9_27  and  C10_28 
REMARK    9  A    between atoms: C10_28  and  O4_29 
REMARK   10  A    between atoms: C11_31  and  N7_32 
ROOT
HETATM    1  C3  UNL     1      26.132 -18.757  14.505  1.00  0.00     0.183 A 
HETATM    2  N4  UNL     1      25.057 -18.426  15.194  1.00  0.00    -0.308 N 
ATOM      3  H4  UNL     1      24.913 -18.860  16.106  1.00  0.00     0.170 HD
HETATM    4  C4  UNL     1      24.108 -17.513  14.738  1.00  0.00     0.207 A 
HETATM    5  C7  UNL     1      24.361 -16.952  13.479  1.00  0.00     0.124 A 
HETATM    6  C8  UNL     1      25.488 -17.318  12.792  1.00  0.00     0.096 A 
HETATM    7  O3  UNL     1      26.311 -18.200  13.342  1.00  0.00    -0.293 OA
HETATM    8  C9  UNL     1      25.788 -16.744  11.467  1.00  0.00     0.109 C 
HETATM    9  C11 UNL     1      24.517 -16.362  10.771  1.00  0.00     0.287 C 
HETATM   10  C12 UNL     1      23.689 -15.502  11.655  1.00  0.00     0.253 C 
HETATM   11  O5  UNL     1      23.245 -14.380  11.339  1.00  0.00    -0.271 OA
HETATM   12  N8  UNL     1      23.394 -16.024  12.961  1.00  0.00    -0.319 N 
ATOM     13  H8  UNL     1      22.559 -15.755  13.482  1.00  0.00     0.169 HD
ENDROOT
BRANCH   1  14
HETATM   14  C2  UNL     1      27.115 -19.734  15.031  1.00  0.00     0.153 A 
HETATM   15  C1  UNL     1      28.449 -19.581  15.299  1.00  0.00     0.154 A 
HETATM   16  N2  UNL     1      28.909 -20.754  15.762  1.00  0.00    -0.224 N 
HETATM   17  O1  UNL     1      27.907 -21.576  15.776  1.00  0.00    -0.155 OA
ATOM     18  H2  UNL     1      29.865 -20.960  16.049  1.00  0.00     0.198 HD
HETATM   19  N3  UNL     1      26.830 -20.991  15.346  1.00  0.00    -0.234 N 
ATOM     20  H3  UNL     1      25.912 -21.429  15.262  1.00  0.00     0.197 HD
BRANCH  15  21
HETATM   21  N1  UNL     1      29.097 -18.473  15.116  1.00  0.00    -0.382 N 
ATOM     22  H12 UNL     1      30.110 -18.420  15.016  1.00  0.00     0.157 HD
ATOM     23  H11 UNL     1      28.730 -17.524  15.045  1.00  0.00     0.157 HD
ENDBRANCH  15  21
ENDBRANCH   1  14
BRANCH   4  24
HETATM   24  N5  UNL     1      23.150 -17.236  15.385  1.00  0.00    -0.394 NA
BRANCH  24  25
HETATM   25  C5  UNL     1      22.022 -17.280  16.095  1.00  0.00     0.325 C 
BRANCH  25  26
HETATM   26  O2  UNL     1      21.299 -18.501  16.071  1.00  0.00    -0.364 OA
ATOM     27  H2  UNL     1      20.353 -18.437  16.012  1.00  0.00     0.213 HD
ENDBRANCH  25  26
BRANCH  25  28
HETATM   28  C6  UNL     1      22.185 -17.018  17.610  1.00  0.00     0.297 C 
BRANCH  28  29
HETATM   29  N6  UNL     1      22.202 -18.272  18.315  1.00  0.00    -0.074 N 
ATOM     30  H63 UNL     1      21.728 -18.212  19.216  1.00  0.00     0.274 HD
ATOM     31  H62 UNL     1      21.598 -18.968  17.878  1.00  0.00     0.274 HD
ATOM     32  H61 UNL     1      23.163 -18.599  18.406  1.00  0.00     0.274 HD
ENDBRANCH  28  29
ENDBRANCH  25  28
ENDBRANCH  24  25
ENDBRANCH   4  24
BRANCH   8  33
HETATM   33  C10 UNL     1      26.622 -17.682  10.639  1.00  0.00     0.178 C 
BRANCH  33  34
HETATM   34  O4  UNL     1      26.456 -17.300   9.298  1.00  0.00    -0.400 OA
ATOM     35  H4  UNL     1      27.284 -17.463   8.861  1.00  0.00     0.209 HD
ENDBRANCH  33  34
ENDBRANCH   8  33
BRANCH   9  36
HETATM   36  N7  UNL     1      23.828 -17.585  10.395  1.00  0.00    -0.066 N 
ATOM     37  H73 UNL     1      23.736 -17.692   9.384  1.00  0.00     0.275 HD
ATOM     38  H72 UNL     1      24.385 -18.422  10.570  1.00  0.00     0.275 HD
ATOM     39  H71 UNL     1      22.929 -17.600  10.877  1.00  0.00     0.275 HD
ENDBRANCH   9  36
TORSDOF 10
ENDMDL
MODEL 3
REMARK VINA RESULT: -7.144434627      2.754      6.085
REMARK  10 active torsions:
REMARK  status: ('A' for Active; 'I' for Inactive)
REMARK    1  A    between atoms: N1_1  and  C1_4 
REMARK    2  A    between atoms: C2_10  and  C3_11 
REMARK    3  A    between atoms: C4_14  and  N5_15 
REMARK    4  A    between atoms: N5_15  and  C5_16 
REMARK    5  A    between atoms: C5_16  and  O2_17 
REMARK    6  A    between atoms: C5_16  and  C6_19 
REMARK    7  A    between atoms: C6_19  and  N6_20 
REMARK    8  A    between atoms: C9_27  and  C10_28 
REMARK    9  A    between atoms: C10_28  and  O4_29 
REMARK   10  A    between atoms: C11_31  and  N7_32 
ROOT
HETATM    1  C3  UNL     1      24.552 -16.242  10.021  1.00  0.00     0.183 A 
HETATM    2  N4  UNL     1      23.855 -15.221  10.483  1.00  0.00    -0.308 N 
ATOM      3  H4  UNL     1      23.607 -14.472   9.838  1.00  0.00     0.170 HD
HETATM    4  C4  UNL     1      23.442 -15.117  11.810  1.00  0.00     0.207 A 
HETATM    5  C7  UNL     1      23.814 -16.177  12.648  1.00  0.00     0.124 A 
HETATM    6  C8  UNL     1      24.538 -17.221  12.133  1.00  0.00     0.096 A 
HETATM    7  O3  UNL     1      24.866 -17.196  10.850  1.00  0.00    -0.293 OA
HETATM    8  C9  UNL     1      24.942 -18.355  12.985  1.00  0.00     0.109 C 
HETATM    9  C11 UNL     1      25.089 -17.905  14.407  1.00  0.00     0.287 C 
HETATM   10  C12 UNL     1      23.862 -17.195  14.848  1.00  0.00     0.253 C 
HETATM   11  O5  UNL     1      23.199 -17.488  15.863  1.00  0.00    -0.271 OA
HETATM   12  N8  UNL     1      23.429 -16.095  14.030  1.00  0.00    -0.319 N 
ATOM     13  H8  UNL     1      22.888 -15.315  14.403  1.00  0.00     0.169 HD
ENDROOT
BRANCH   1  14
HETATM   14  C2  UNL     1      24.970 -16.310   8.601  1.00  0.00     0.153 A 
HETATM   15  C1  UNL     1      25.544 -17.338   7.902  1.00  0.00     0.154 A 
HETATM   16  N2  UNL     1      25.736 -16.917   6.641  1.00  0.00    -0.224 N 
HETATM   17  O1  UNL     1      25.300 -15.698   6.577  1.00  0.00    -0.155 OA
ATOM     18  H2  UNL     1      26.146 -17.454   5.878  1.00  0.00     0.198 HD
HETATM   19  N3  UNL     1      24.840 -15.316   7.731  1.00  0.00    -0.234 N 
ATOM     20  H3  UNL     1      24.444 -14.399   7.935  1.00  0.00     0.197 HD
BRANCH  15  21
HETATM   21  N1  UNL     1      25.829 -18.491   8.422  1.00  0.00    -0.382 N 
ATOM     22  H12 UNL     1      26.550 -19.113   8.058  1.00  0.00     0.157 HD
ATOM     23  H11 UNL     1      25.408 -18.945   9.232  1.00  0.00     0.157 HD
ENDBRANCH  15  21
ENDBRANCH   1  14
BRANCH   4  24
HETATM   24  N5  UNL     1      22.813 -14.184  12.194  1.00  0.00    -0.394 NA
BRANCH  24  25
HETATM   25  C5  UNL     1      21.832 -13.343  12.521  1.00  0.00     0.325 C 
BRANCH  25  26
HETATM   26  O2  UNL     1      21.324 -13.435  13.843  1.00  0.00    -0.364 OA
ATOM     27  H2  UNL     1      21.845 -13.035  14.530  1.00  0.00     0.213 HD
ENDBRANCH  25  26
BRANCH  25  28
HETATM   28  C6  UNL     1      22.181 -11.842  12.401  1.00  0.00     0.297 C 
BRANCH  28  29
HETATM   29  N6  UNL     1      21.749 -11.349  11.120  1.00  0.00    -0.074 N 
ATOM     30  H63 UNL     1      22.380 -10.638  10.749  1.00  0.00     0.274 HD
ATOM     31  H62 UNL     1      21.861 -12.043  10.382  1.00  0.00     0.274 HD
ATOM     32  H61 UNL     1      20.789 -11.013  11.190  1.00  0.00     0.274 HD
ENDBRANCH  28  29
ENDBRANCH  25  28
ENDBRANCH  24  25
ENDBRANCH   4  24
BRANCH   8  33
HETATM   33  C10 UNL     1      26.194 -19.008  12.469  1.00  0.00     0.178 C 
BRANCH  33  34
HETATM   34  O4  UNL     1      27.035 -17.978  12.018  1.00  0.00    -0.400 OA
ATOM     35  H4  UNL     1      26.603 -17.158  12.226  1.00  0.00     0.209 HD
ENDBRANCH  33  34
ENDBRANCH   8  33
BRANCH   9  36
HETATM   36  N7  UNL     1      26.270 -17.060  14.488  1.00  0.00    -0.066 N 
ATOM     37  H73 UNL     1      27.137 -17.596  14.544  1.00  0.00     0.275 HD
ATOM     38  H72 UNL     1      26.468 -16.573  13.614  1.00  0.00     0.275 HD
ATOM     39  H71 UNL     1      26.147 -16.425  15.277  1.00  0.00     0.275 HD
ENDBRANCH   9  36
TORSDOF 10
ENDMDL
MODEL 4
REMARK VINA RESULT: -6.691003780      2.440      6.017
REMARK  10 active torsions:
REMARK  status: ('A' for Active; 'I' for Inactive)
REMARK    1  A    between atoms: N1_1  and  C1_4 
REMARK    2  A    between atoms: C2_10  and  C3_11 
REMARK    3  A    between atoms: C4_14  and  N5_15 
REMARK    4  A    between atoms: N5_15  and  C5_16 
REMARK    5  A    between atoms: C5_16  and  O2_17 
REMARK    6  A    between atoms: C5_16  and  C6_19 
REMARK    7  A    between atoms: C6_19  and  N6_20 
REMARK    8  A    between atoms: C9_27  and  C10_28 
REMARK    9  A    between atoms: C10_28  and  O4_29 
REMARK   10  A    between atoms: C11_31  and  N7_32 
ROOT
HETATM    1  C3  UNL     1      24.906 -17.133  10.282  1.00  0.00     0.183 A 
HETATM    2  N4  UNL     1      24.271 -16.002  10.523  1.00  0.00    -0.308 N 
ATOM      3  H4  UNL     1      24.129 -15.352   9.749  1.00  0.00     0.170 HD
HETATM    4  C4  UNL     1      23.787 -15.651  11.781  1.00  0.00     0.207 A 
HETATM    5  C7  UNL     1      24.014 -16.583  12.802  1.00  0.00     0.124 A 
HETATM    6  C8  UNL     1      24.676 -17.749  12.515  1.00  0.00     0.096 A 
HETATM    7  O3  UNL     1      25.085 -17.959  11.273  1.00  0.00    -0.293 OA
HETATM    8  C9  UNL     1      24.929 -18.754  13.565  1.00  0.00     0.109 C 
HETATM    9  C11 UNL     1      25.025 -18.089  14.904  1.00  0.00     0.287 C 
HETATM   10  C12 UNL     1      23.838 -17.227  15.133  1.00  0.00     0.253 C 
HETATM   11  O5  UNL     1      23.090 -17.300  16.129  1.00  0.00    -0.271 OA
HETATM   12  N8  UNL     1      23.552 -16.248  14.121  1.00  0.00    -0.319 N 
ATOM     13  H8  UNL     1      23.057 -15.379  14.323  1.00  0.00     0.169 HD
ENDROOT
BRANCH   1  14
HETATM   14  C2  UNL     1      25.404 -17.465   8.926  1.00  0.00     0.153 A 
HETATM   15  C1  UNL     1      25.385 -16.720   7.777  1.00  0.00     0.154 A 
HETATM   16  N2  UNL     1      25.955 -17.453   6.807  1.00  0.00    -0.224 N 
HETATM   17  O1  UNL     1      26.302 -18.583   7.338  1.00  0.00    -0.155 OA
ATOM     18  H2  UNL     1      26.090 -17.173   5.835  1.00  0.00     0.198 HD
HETATM   19  N3  UNL     1      25.984 -18.612   8.597  1.00  0.00    -0.234 N 
ATOM     20  H3  UNL     1      26.153 -19.393   9.232  1.00  0.00     0.197 HD
BRANCH  15  21
HETATM   21  N1  UNL     1      24.890 -15.524   7.702  1.00  0.00    -0.382 N 
ATOM     22  H12 UNL     1      25.228 -14.810   7.058  1.00  0.00     0.157 HD
ATOM     23  H11 UNL     1      24.127 -15.116   8.241  1.00  0.00     0.157 HD
ENDBRANCH  15  21
ENDBRANCH   1  14
BRANCH   4  24
HETATM   24  N5  UNL     1      23.217 -14.623  11.964  1.00  0.00    -0.394 NA
BRANCH  24  25
HETATM   25  C5  UNL     1      22.289 -13.679  12.119  1.00  0.00     0.325 C 
BRANCH  25  26
HETATM   26  O2  UNL     1      21.641 -13.620  13.379  1.00  0.00    -0.364 OA
ATOM     27  H2  UNL     1      21.669 -12.788  13.837  1.00  0.00     0.213 HD
ENDBRANCH  25  26
BRANCH  25  28
HETATM   28  C6  UNL     1      22.786 -12.227  11.931  1.00  0.00     0.297 C 
BRANCH  28  29
HETATM   29  N6  UNL     1      21.769 -11.452  11.273  1.00  0.00    -0.074 N 
ATOM     30  H63 UNL     1      22.138 -10.926  10.482  1.00  0.00     0.274 HD
ATOM     31  H62 UNL     1      21.107 -12.037  10.764  1.00  0.00     0.274 HD
ATOM     32  H61 UNL     1      21.305 -10.851  11.954  1.00  0.00     0.274 HD
ENDBRANCH  28  29
ENDBRANCH  25  28
ENDBRANCH  24  25
ENDBRANCH   4  24
BRANCH   8  33
HETATM   33  C10 UNL     1      26.150 -19.574  13.255  1.00  0.00     0.178 C 
BRANCH  33  34
HETATM   34  O4  UNL     1      26.427 -20.341  14.398  1.00  0.00    -0.400 OA
ATOM     35  H4  UNL     1      26.174 -19.817  15.149  1.00  0.00     0.209 HD
ENDBRANCH  33  34
ENDBRANCH   8  33
BRANCH   9  36
HETATM   36  N7  UNL     1      26.266 -17.332  14.939  1.00  0.00    -0.066 N 
ATOM     37  H73 UNL     1      27.006 -17.760  14.381  1.00  0.00     0.275 HD
ATOM     38  H72 UNL     1      26.206 -16.450  14.430  1.00  0.00     0.275 HD
ATOM     39  H71 UNL     1      26.530 -17.208  15.916  1.00  0.00     0.275 HD
ENDBRANCH   9  36
TORSDOF 10
ENDMDL
MODEL 5
REMARK VINA RESULT: -5.828991627      2.645      6.274
REMARK  10 active torsions:
REMARK  status: ('A' for Active; 'I' for Inactive)
REMARK    1  A    between atoms: N1_1  and  C1_4 
REMARK    2  A    between atoms: C2_10  and  C3_11 
REMARK    3  A    between atoms: C4_14  and  N5_15 
REMARK    4  A    between atoms: N5_15  and  C5_16 
REMARK    5  A    between atoms: C5_16  and  O2_17 
REMARK    6  A    between atoms: C5_16  and  C6_19 
REMARK    7  A    between atoms: C6_19  and  N6_20 
REMARK    8  A    between atoms: C9_27  and  C10_28 
REMARK    9  A    between atoms: C10_28  and  O4_29 
REMARK   10  A    between atoms: C11_31  and  N7_32 
ROOT
HETATM    1  C3  UNL     1      23.505 -14.489  11.622  1.00  0.00     0.183 A 
HETATM    2  N4  UNL     1      24.020 -15.217  12.593  1.00  0.00    -0.308 N 
ATOM      3  H4  UNL     1      23.914 -14.890  13.553  1.00  0.00     0.170 HD
HETATM    4  C4  UNL     1      24.701 -16.413  12.372  1.00  0.00     0.207 A 
HETATM    5  C7  UNL     1      24.815 -16.809  11.033  1.00  0.00     0.124 A 
HETATM    6  C8  UNL     1      24.267 -16.027  10.050  1.00  0.00     0.096 A 
HETATM    7  O3  UNL     1      23.644 -14.911  10.398  1.00  0.00    -0.293 OA
HETATM    8  C9  UNL     1      24.364 -16.416   8.631  1.00  0.00     0.109 C 
HETATM    9  C11 UNL     1      25.596 -17.239   8.405  1.00  0.00     0.287 C 
HETATM   10  C12 UNL     1      25.642 -18.366   9.369  1.00  0.00     0.253 C 
HETATM   11  O5  UNL     1      25.768 -19.566   9.052  1.00  0.00    -0.271 OA
HETATM   12  N8  UNL     1      25.532 -18.024  10.761  1.00  0.00    -0.319 N 
ATOM     13  H8  UNL     1      25.934 -18.601  11.500  1.00  0.00     0.169 HD
ENDROOT
BRANCH   1  14
HETATM   14  C2  UNL     1      22.788 -13.222  11.905  1.00  0.00     0.153 A 
HETATM   15  C1  UNL     1      21.871 -12.931  12.879  1.00  0.00     0.154 A 
HETATM   16  N2  UNL     1      21.508 -11.647  12.726  1.00  0.00    -0.224 N 
HETATM   17  O1  UNL     1      22.170 -11.183  11.713  1.00  0.00    -0.155 OA
ATOM     18  H2  UNL     1      20.838 -11.134  13.299  1.00  0.00     0.198 HD
HETATM   19  N3  UNL     1      22.937 -12.102  11.209  1.00  0.00    -0.234 N 
ATOM     20  H3  UNL     1      23.555 -11.982  10.406  1.00  0.00     0.197 HD
BRANCH  15  21
HETATM   21  N1  UNL     1      21.465 -13.787  13.764  1.00  0.00    -0.382 N 
ATOM     22  H12 UNL     1      20.834 -13.553  14.530  1.00  0.00     0.157 HD
ATOM     23  H11 UNL     1      21.692 -14.778  13.843  1.00  0.00     0.157 HD
ENDBRANCH  15  21
ENDBRANCH   1  14
BRANCH   4  24
HETATM   24  N5  UNL     1      25.151 -17.047  13.272  1.00  0.00    -0.394 NA
BRANCH  24  25
HETATM   25  C5  UNL     1      25.630 -17.443  14.451  1.00  0.00     0.325 C 
BRANCH  25  26
HETATM   26  O2  UNL     1      24.695 -17.982  15.373  1.00  0.00    -0.364 OA
ATOM     27  H2  UNL     1      25.045 -18.329  16.185  1.00  0.00     0.213 HD
ENDBRANCH  25  26
BRANCH  25  28
HETATM   28  C6  UNL     1      26.710 -18.547  14.388  1.00  0.00     0.297 C 
BRANCH  28  29
HETATM   29  N6  UNL     1      26.097 -19.832  14.593  1.00  0.00    -0.074 N 
ATOM     30  H63 UNL     1      26.194 -20.156  15.555  1.00  0.00     0.274 HD
ATOM     31  H62 UNL     1      25.079 -19.783  14.558  1.00  0.00     0.274 HD
ATOM     32  H61 UNL     1      26.473 -20.501  13.921  1.00  0.00     0.274 HD
ENDBRANCH  28  29
ENDBRANCH  25  28
ENDBRANCH  24  25
ENDBRANCH   4  24
BRANCH   8  33
HETATM   33  C10 UNL     1      24.317 -15.215   7.729  1.00  0.00     0.178 C 
BRANCH  33  34
HETATM   34  O4  UNL     1      24.464 -15.685   6.414  1.00  0.00    -0.400 OA
ATOM     35  H4  UNL     1      24.594 -14.924   5.862  1.00  0.00     0.209 HD
ENDBRANCH  33  34
ENDBRANCH   8  33
BRANCH   9  36
HETATM   36  N7  UNL     1      26.749 -16.361   8.532  1.00  0.00    -0.066 N 
ATOM     37  H73 UNL     1      27.172 -16.131   7.632  1.00  0.00     0.275 HD
ATOM     38  H72 UNL     1      26.495 -15.413   8.809  1.00  0.00     0.275 HD
ATOM     39  H71 UNL     1      27.406 -16.799   9.177  1.00  0.00     0.275 HD
ENDBRANCH   9  36
TORSDOF 10
ENDMDL
