MODEL 1
REMARK VINA RESULT: -9.025342738      0.000      0.000
REMARK  6 active torsions:
REMARK  status: ('A' for Active; 'I' for Inactive)
REMARK    1  A    between atoms: C3_4  and  C4_5 
REMARK    2  A    between atoms: C5_8  and  N3_9 
REMARK       I    between atoms: N3_9  and  C6_11 
REMARK    3  A    between atoms: N5_13  and  O1_15 
REMARK    4  A    between atoms: N8_21  and  C7_22 
REMARK    5  A    between atoms: C7_22  and  N9_23 
REMARK    6  A    between atoms: C9_25  and  O2_26 
ROOT
HETATM    1  C4  UNL     1      25.533 -18.005  13.626  1.00  0.00     0.261 C 
HETATM    2  N2  UNL     1      24.997 -17.968  14.950  1.00  0.00    -0.197 N 
ATOM      3  H2  UNL     1      25.495 -18.419  15.717  1.00  0.00     0.180 HD
HETATM    4  C5  UNL     1      23.878 -17.363  15.169  1.00  0.00     0.698 C 
HETATM    5  N6  UNL     1      23.242 -16.760  14.070  1.00  0.00    -0.117 N 
ATOM      6  H6  UNL     1      22.235 -16.604  14.103  1.00  0.00     0.207 HD
HETATM    7  N7  UNL     1      23.941 -16.373  12.951  1.00  0.00    -0.223 N 
ATOM      8  H7  UNL     1      23.535 -15.771  12.235  1.00  0.00     0.209 HD
HETATM    9  N8  UNL     1      25.220 -16.852  12.863  1.00  0.00    -0.248 N 
ENDROOT
BRANCH   4  10
HETATM   10  N3  UNL     1      23.285 -17.284  16.450  1.00  0.00    -0.161 N 
HETATM   11  C6  UNL     1      21.974 -17.763  16.679  1.00  0.00     0.226 C 
HETATM   12  N4  UNL     1      21.124 -17.245  17.690  1.00  0.00    -0.061 NA
HETATM   13  N5  UNL     1      21.551 -18.717  15.922  1.00  0.00    -0.240 N 
ATOM     14  H5  UNL     1      22.174 -19.078  15.200  1.00  0.00     0.197 HD
ATOM     15  H3  UNL     1      23.811 -16.875  17.222  1.00  0.00     0.187 HD
BRANCH  13  16
HETATM   16  O1  UNL     1      20.300 -19.266  16.044  1.00  0.00    -0.287 OA
ATOM     17  H1  UNL     1      20.066 -20.107  15.666  1.00  0.00     0.244 HD
ENDBRANCH  13  16
ENDBRANCH   4  10
BRANCH   1  18
HETATM   18  C3  UNL     1      27.032 -18.065  13.781  1.00  0.00     0.020 A 
HETATM   19  C2  UNL     1      27.719 -18.677  14.820  1.00  0.00     0.122 A 
HETATM   20  N1  UNL     1      29.050 -18.525  14.614  1.00  0.00    -0.307 N 
HETATM   21  C1  UNL     1      30.151 -18.987  15.419  1.00  0.00     0.177 C 
HETATM   22  N11 UNL     1      29.189 -17.839  13.482  1.00  0.00    -0.310 N 
HETATM   23  C11 UNL     1      27.987 -17.550  12.960  1.00  0.00     0.119 A 
ATOM     24  H11 UNL     1      30.082 -17.571  13.069  1.00  0.00     0.186 HD
ENDBRANCH   1  18
BRANCH   9  25
HETATM   25  C7  UNL     1      25.833 -16.788  11.583  1.00  0.00     0.193 C 
BRANCH  25  26
HETATM   26  N9  UNL     1      24.963 -16.557  10.478  1.00  0.00    -0.191 NA
HETATM   27  C8  UNL     1      24.869 -17.789   9.712  1.00  0.00     0.149 C 
HETATM   28  C9  UNL     1      25.966 -17.626   8.681  1.00  0.00     0.149 C 
HETATM   29  C10 UNL     1      25.981 -16.137   8.472  1.00  0.00     0.162 C 
HETATM   30  N10 UNL     1      25.337 -15.561   9.610  1.00  0.00    -0.157 NA
BRANCH  28  31
HETATM   31  O2  UNL     1      25.619 -18.309   7.513  1.00  0.00    -0.393 OA
ATOM     32  H2  UNL     1      24.920 -17.846   7.067  1.00  0.00     0.210 HD
ENDBRANCH  28  31
ENDBRANCH  25  26
ENDBRANCH   9  25
TORSDOF 6
ENDMDL
MODEL 2
REMARK VINA RESULT: -8.483961176      0.989      1.215
REMARK  6 active torsions:
REMARK  status: ('A' for Active; 'I' for Inactive)
REMARK    1  A    between atoms: C3_4  and  C4_5 
REMARK    2  A    between atoms: C5_8  and  N3_9 
REMARK       I    between atoms: N3_9  and  C6_11 
REMARK    3  A    between atoms: N5_13  and  O1_15 
REMARK    4  A    between atoms: N8_21  and  C7_22 
REMARK    5  A    between atoms: C7_22  and  N9_23 
REMARK    6  A    between atoms: C9_25  and  O2_26 
ROOT
HETATM    1  C4  UNL     1      25.455 -17.950  13.663  1.00  0.00     0.261 C 
HETATM    2  N2  UNL     1      24.970 -18.009  15.005  1.00  0.00    -0.197 N 
ATOM      3  H2  UNL     1      25.499 -18.509  15.720  1.00  0.00     0.180 HD
HETATM    4  C5  UNL     1      23.859 -17.426  15.309  1.00  0.00     0.698 C 
HETATM    5  N6  UNL     1      23.180 -16.752  14.280  1.00  0.00    -0.117 N 
ATOM      6  H6  UNL     1      22.173 -16.605  14.362  1.00  0.00     0.207 HD
HETATM    7  N7  UNL     1      23.833 -16.285  13.165  1.00  0.00    -0.223 N 
ATOM      8  H7  UNL     1      23.398 -15.637  12.509  1.00  0.00     0.209 HD
HETATM    9  N8  UNL     1      25.109 -16.749  12.995  1.00  0.00    -0.248 N 
ENDROOT
BRANCH   4  10
HETATM   10  N3  UNL     1      23.316 -17.440  16.615  1.00  0.00    -0.161 N 
HETATM   11  C6  UNL     1      21.979 -17.839  16.845  1.00  0.00     0.226 C 
HETATM   12  N4  UNL     1      21.206 -17.369  17.938  1.00  0.00    -0.061 NA
HETATM   13  N5  UNL     1      21.455 -18.670  16.010  1.00  0.00    -0.240 N 
ATOM     14  H5  UNL     1      22.023 -18.998  15.230  1.00  0.00     0.197 HD
ATOM     15  H3  UNL     1      23.897 -17.159  17.403  1.00  0.00     0.187 HD
BRANCH  13  16
HETATM   16  O1  UNL     1      20.169 -19.132  16.124  1.00  0.00    -0.287 OA
ATOM     17  H1  UNL     1      19.625 -18.961  16.884  1.00  0.00     0.244 HD
ENDBRANCH  13  16
ENDBRANCH   4  10
BRANCH   1  18
HETATM   18  C3  UNL     1      26.959 -18.013  13.755  1.00  0.00     0.020 A 
HETATM   19  C2  UNL     1      27.688 -18.565  14.799  1.00  0.00     0.122 A 
HETATM   20  N1  UNL     1      29.009 -18.436  14.526  1.00  0.00    -0.307 N 
HETATM   21  C1  UNL     1      30.142 -18.856  15.309  1.00  0.00     0.177 C 
HETATM   22  N11 UNL     1      29.101 -17.822  13.348  1.00  0.00    -0.310 N 
HETATM   23  C11 UNL     1      27.879 -17.557  12.863  1.00  0.00     0.119 A 
ATOM     24  H11 UNL     1      29.977 -17.587  12.880  1.00  0.00     0.186 HD
ENDBRANCH   1  18
BRANCH   9  25
HETATM   25  C7  UNL     1      25.672 -16.592  11.699  1.00  0.00     0.193 C 
BRANCH  25  26
HETATM   26  N9  UNL     1      24.991 -17.247  10.632  1.00  0.00    -0.191 NA
HETATM   27  C8  UNL     1      25.467 -16.686   9.380  1.00  0.00     0.149 C 
HETATM   28  C9  UNL     1      24.479 -15.568   9.117  1.00  0.00     0.149 C 
HETATM   29  C10 UNL     1      23.219 -16.113   9.730  1.00  0.00     0.162 C 
HETATM   30  N10 UNL     1      23.621 -17.143  10.635  1.00  0.00    -0.157 NA
BRANCH  28  31
HETATM   31  O2  UNL     1      24.343 -15.375   7.740  1.00  0.00    -0.393 OA
ATOM     32  H2  UNL     1      24.489 -16.197   7.286  1.00  0.00     0.210 HD
ENDBRANCH  28  31
ENDBRANCH  25  26
ENDBRANCH   9  25
TORSDOF 6
ENDMDL
MODEL 3
REMARK VINA RESULT: -8.185511661      3.167      5.531
REMARK  6 active torsions:
REMARK  status: ('A' for Active; 'I' for Inactive)
REMARK    1  A    between atoms: C3_4  and  C4_5 
REMARK    2  A    between atoms: C5_8  and  N3_9 
REMARK       I    between atoms: N3_9  and  C6_11 
REMARK    3  A    between atoms: N5_13  and  O1_15 
REMARK    4  A    between atoms: N8_21  and  C7_22 
REMARK    5  A    between atoms: C7_22  and  N9_23 
REMARK    6  A    between atoms: C9_25  and  O2_26 
ROOT
HETATM    1  C4  UNL     1      24.788 -15.767  11.616  1.00  0.00     0.261 C 
HETATM    2  N2  UNL     1      25.052 -16.403  12.867  1.00  0.00    -0.197 N 
ATOM      3  H2  UNL     1      24.930 -15.890  13.740  1.00  0.00     0.180 HD
HETATM    4  C5  UNL     1      25.446 -17.632  12.888  1.00  0.00     0.698 C 
HETATM    5  N6  UNL     1      25.592 -18.286  11.651  1.00  0.00    -0.117 N 
ATOM      6  H6  UNL     1      26.224 -19.084  11.583  1.00  0.00     0.207 HD
HETATM    7  N7  UNL     1      24.907 -17.879  10.531  1.00  0.00    -0.223 N 
ATOM      8  H7  UNL     1      24.856 -18.449   9.687  1.00  0.00     0.209 HD
HETATM    9  N8  UNL     1      24.299 -16.657  10.627  1.00  0.00    -0.248 N 
ENDROOT
BRANCH   4  10
HETATM   10  N3  UNL     1      25.728 -18.330  14.085  1.00  0.00    -0.161 N 
HETATM   11  C6  UNL     1      27.050 -18.702  14.421  1.00  0.00     0.226 C 
HETATM   12  N4  UNL     1      27.359 -19.825  15.231  1.00  0.00    -0.061 NA
HETATM   13  N5  UNL     1      28.007 -17.972  13.958  1.00  0.00    -0.240 N 
ATOM     14  H5  UNL     1      27.769 -17.169  13.377  1.00  0.00     0.197 HD
ATOM     15  H3  UNL     1      24.964 -18.569  14.718  1.00  0.00     0.187 HD
BRANCH  13  16
HETATM   16  O1  UNL     1      29.330 -18.228  14.212  1.00  0.00    -0.287 OA
ATOM     17  H1  UNL     1      29.684 -18.291  15.092  1.00  0.00     0.244 HD
ENDBRANCH  13  16
ENDBRANCH   4  10
BRANCH   1  18
HETATM   18  C3  UNL     1      23.717 -14.739  11.885  1.00  0.00     0.020 A 
HETATM   19  C2  UNL     1      23.751 -13.408  11.496  1.00  0.00     0.122 A 
HETATM   20  N1  UNL     1      22.614 -12.801  11.915  1.00  0.00    -0.307 N 
HETATM   21  C1  UNL     1      22.202 -11.431  11.746  1.00  0.00     0.177 C 
HETATM   22  N11 UNL     1      21.893 -13.725  12.546  1.00  0.00    -0.310 N 
HETATM   23  C11 UNL     1      22.537 -14.902  12.542  1.00  0.00     0.119 A 
ATOM     24  H11 UNL     1      20.981 -13.561  12.973  1.00  0.00     0.186 HD
ENDBRANCH   1  18
BRANCH   9  25
HETATM   25  C7  UNL     1      23.907 -16.048   9.404  1.00  0.00     0.193 C 
BRANCH  25  26
HETATM   26  N9  UNL     1      24.949 -15.462   8.629  1.00  0.00    -0.191 NA
HETATM   27  C8  UNL     1      24.413 -15.142   7.317  1.00  0.00     0.149 C 
HETATM   28  C9  UNL     1      24.729 -16.387   6.514  1.00  0.00     0.149 C 
HETATM   29  C10 UNL     1      26.006 -16.856   7.154  1.00  0.00     0.162 C 
HETATM   30  N10 UNL     1      26.069 -16.233   8.438  1.00  0.00    -0.157 NA
BRANCH  28  31
HETATM   31  O2  UNL     1      24.916 -16.045   5.173  1.00  0.00    -0.393 OA
ATOM     32  H2  UNL     1      25.845 -15.976   4.987  1.00  0.00     0.210 HD
ENDBRANCH  28  31
ENDBRANCH  25  26
ENDBRANCH   9  25
TORSDOF 6
ENDMDL
MODEL 4
REMARK VINA RESULT: -7.740712056      3.429      5.609
REMARK  6 active torsions:
REMARK  status: ('A' for Active; 'I' for Inactive)
REMARK    1  A    between atoms: C3_4  and  C4_5 
REMARK    2  A    between atoms: C5_8  and  N3_9 
REMARK       I    between atoms: N3_9  and  C6_11 
REMARK    3  A    between atoms: N5_13  and  O1_15 
REMARK    4  A    between atoms: N8_21  and  C7_22 
REMARK    5  A    between atoms: C7_22  and  N9_23 
REMARK    6  A    between atoms: C9_25  and  O2_26 
ROOT
HETATM    1  C4  UNL     1      24.261 -17.236  12.008  1.00  0.00     0.261 C 
HETATM    2  N2  UNL     1      24.882 -18.334  12.679  1.00  0.00    -0.197 N 
ATOM      3  H2  UNL     1      25.166 -19.161  12.154  1.00  0.00     0.180 HD
HETATM    4  C5  UNL     1      25.082 -18.273  13.952  1.00  0.00     0.698 C 
HETATM    5  N6  UNL     1      24.670 -17.104  14.617  1.00  0.00    -0.117 N 
ATOM      6  H6  UNL     1      24.466 -17.147  15.616  1.00  0.00     0.207 HD
HETATM    7  N7  UNL     1      24.536 -15.906  13.958  1.00  0.00    -0.223 N 
ATOM      8  H7  UNL     1      24.425 -15.021  14.453  1.00  0.00     0.209 HD
HETATM    9  N8  UNL     1      24.561 -15.980  12.592  1.00  0.00    -0.248 N 
ENDROOT
BRANCH   4  10
HETATM   10  N3  UNL     1      25.690 -19.318  14.686  1.00  0.00    -0.161 N 
HETATM   11  C6  UNL     1      27.097 -19.409  14.800  1.00  0.00     0.226 C 
HETATM   12  N4  UNL     1      27.783 -20.636  14.993  1.00  0.00    -0.061 NA
HETATM   13  N5  UNL     1      27.770 -18.311  14.722  1.00  0.00    -0.240 N 
ATOM     14  H5  UNL     1      27.262 -17.438  14.583  1.00  0.00     0.197 HD
ATOM     15  H3  UNL     1      25.105 -20.018  15.141  1.00  0.00     0.187 HD
BRANCH  13  16
HETATM   16  O1  UNL     1      29.137 -18.267  14.817  1.00  0.00    -0.287 OA
ATOM     17  H1  UNL     1      29.635 -17.463  14.729  1.00  0.00     0.244 HD
ENDBRANCH  13  16
ENDBRANCH   4  10
BRANCH   1  18
HETATM   18  C3  UNL     1      24.811 -17.237  10.603  1.00  0.00     0.020 A 
HETATM   19  C2  UNL     1      24.397 -16.412   9.567  1.00  0.00     0.122 A 
HETATM   20  N1  UNL     1      25.121 -16.704   8.459  1.00  0.00    -0.307 N 
HETATM   21  C1  UNL     1      25.049 -16.115   7.147  1.00  0.00     0.177 C 
HETATM   22  N11 UNL     1      25.960 -17.681   8.794  1.00  0.00    -0.310 N 
HETATM   23  C11 UNL     1      25.793 -18.020  10.081  1.00  0.00     0.119 A 
ATOM     24  H11 UNL     1      26.635 -18.112   8.161  1.00  0.00     0.186 HD
ENDBRANCH   1  18
BRANCH   9  25
HETATM   25  C7  UNL     1      24.066 -14.850  11.887  1.00  0.00     0.193 C 
BRANCH  25  26
HETATM   26  N9  UNL     1      22.668 -14.597  12.005  1.00  0.00    -0.191 NA
HETATM   27  C8  UNL     1      22.282 -13.686  10.941  1.00  0.00     0.149 C 
HETATM   28  C9  UNL     1      22.425 -12.327  11.595  1.00  0.00     0.149 C 
HETATM   29  C10 UNL     1      22.089 -12.633  13.028  1.00  0.00     0.162 C 
HETATM   30  N10 UNL     1      22.251 -14.043  13.191  1.00  0.00    -0.157 NA
BRANCH  28  31
HETATM   31  O2  UNL     1      21.513 -11.435  11.028  1.00  0.00    -0.393 OA
ATOM     32  H2  UNL     1      21.499 -10.629  11.531  1.00  0.00     0.210 HD
ENDBRANCH  28  31
ENDBRANCH  25  26
ENDBRANCH   9  25
TORSDOF 6
ENDMDL
MODEL 5
REMARK VINA RESULT: -7.530327796      3.089      5.398
REMARK  6 active torsions:
REMARK  status: ('A' for Active; 'I' for Inactive)
REMARK    1  A    between atoms: C3_4  and  C4_5 
REMARK    2  A    between atoms: C5_8  and  N3_9 
REMARK       I    between atoms: N3_9  and  C6_11 
REMARK    3  A    between atoms: N5_13  and  O1_15 
REMARK    4  A    between atoms: N8_21  and  C7_22 
REMARK    5  A    between atoms: C7_22  and  N9_23 
REMARK    6  A    between atoms: C9_25  and  O2_26 
ROOT
HETATM    1  C4  UNL     1      24.872 -15.916  11.686  1.00  0.00     0.261 C 
HETATM    2  N2  UNL     1      24.984 -16.601  12.935  1.00  0.00    -0.197 N 
ATOM      3  H2  UNL     1      24.771 -16.117  13.806  1.00  0.00     0.180 HD
HETATM    4  C5  UNL     1      25.357 -17.836  12.953  1.00  0.00     0.698 C 
HETATM    5  N6  UNL     1      25.634 -18.448  11.718  1.00  0.00    -0.117 N 
ATOM      6  H6  UNL     1      26.259 -19.254  11.692  1.00  0.00     0.207 HD
HETATM    7  N7  UNL     1      25.086 -17.989  10.544  1.00  0.00    -0.223 N 
ATOM      8  H7  UNL     1      25.123 -18.527   9.679  1.00  0.00     0.209 HD
HETATM    9  N8  UNL     1      24.487 -16.761  10.616  1.00  0.00    -0.248 N 
ENDROOT
BRANCH   4  10
HETATM   10  N3  UNL     1      25.491 -18.581  14.148  1.00  0.00    -0.161 N 
HETATM   11  C6  UNL     1      26.761 -18.997  14.612  1.00  0.00     0.226 C 
HETATM   12  N4  UNL     1      26.956 -20.154  15.409  1.00  0.00    -0.061 NA
HETATM   13  N5  UNL     1      27.778 -18.275  14.282  1.00  0.00    -0.240 N 
ATOM     14  H5  UNL     1      27.621 -17.447  13.709  1.00  0.00     0.197 HD
ATOM     15  H3  UNL     1      24.659 -18.822  14.685  1.00  0.00     0.187 HD
BRANCH  13  16
HETATM   16  O1  UNL     1      29.060 -18.573  14.669  1.00  0.00    -0.287 OA
ATOM     17  H1  UNL     1      29.728 -17.909  14.796  1.00  0.00     0.244 HD
ENDBRANCH  13  16
ENDBRANCH   4  10
BRANCH   1  18
HETATM   18  C3  UNL     1      23.791 -14.880  11.870  1.00  0.00     0.020 A 
HETATM   19  C2  UNL     1      23.881 -13.539  11.524  1.00  0.00     0.122 A 
HETATM   20  N1  UNL     1      22.715 -12.926  11.839  1.00  0.00    -0.307 N 
HETATM   21  C1  UNL     1      22.339 -11.547  11.667  1.00  0.00     0.177 C 
HETATM   22  N11 UNL     1      21.921 -13.856  12.366  1.00  0.00    -0.310 N 
HETATM   23  C11 UNL     1      22.547 -15.042  12.396  1.00  0.00     0.119 A 
ATOM     24  H11 UNL     1      20.971 -13.690  12.701  1.00  0.00     0.186 HD
ENDBRANCH   1  18
BRANCH   9  25
HETATM   25  C7  UNL     1      24.244 -16.102   9.380  1.00  0.00     0.193 C 
BRANCH  25  26
HETATM   26  N9  UNL     1      24.595 -16.823   8.202  1.00  0.00    -0.191 NA
HETATM   27  C8  UNL     1      26.043 -16.941   8.157  1.00  0.00     0.149 C 
HETATM   28  C9  UNL     1      26.452 -15.727   7.349  1.00  0.00     0.149 C 
HETATM   29  C10 UNL     1      25.280 -15.560   6.421  1.00  0.00     0.162 C 
HETATM   30  N10 UNL     1      24.191 -16.271   7.011  1.00  0.00    -0.157 NA
BRANCH  28  31
HETATM   31  O2  UNL     1      27.630 -16.003   6.650  1.00  0.00    -0.393 OA
ATOM     32  H2  UNL     1      28.063 -15.190   6.420  1.00  0.00     0.210 HD
ENDBRANCH  28  31
ENDBRANCH  25  26
ENDBRANCH   9  25
TORSDOF 6
ENDMDL
