MODEL 1
REMARK VINA RESULT: -5.784922768      0.000      0.000
REMARK  2 active torsions:
REMARK  status: ('A' for Active; 'I' for Inactive)
REMARK    1  A    between atoms: C5_5  and  C6_6 
REMARK    2  A    between atoms: C6_6  and  C7_7 
ROOT
HETATM    1  C6  UNL     1      29.487  31.371  41.280  1.00  0.00     0.192 C 
HETATM    2  N2  UNL     1      29.823  30.740  42.571  1.00  0.00    -0.330 N 
ATOM      3  H2  UNL     1      29.122  30.787  43.310  1.00  0.00     0.165 HD
HETATM    4  C8  UNL     1      30.897  30.153  42.834  1.00  0.00     0.192 C 
HETATM    5  N3  UNL     1      31.056  29.591  44.159  1.00  0.00    -0.063 NA
HETATM    6  N4  UNL     1      31.970  30.125  41.893  1.00  0.00    -0.305 N 
ATOM      7  H4  UNL     1      32.833  29.628  42.113  1.00  0.00     0.171 HD
HETATM    8  C9  UNL     1      31.839  30.728  40.767  1.00  0.00     0.192 C 
HETATM    9  N5  UNL     1      32.862  30.705  39.779  1.00  0.00    -0.063 NA
HETATM   10  N6  UNL     1      30.702  31.582  40.574  1.00  0.00    -0.330 N 
ATOM     11  H6  UNL     1      30.767  32.357  39.915  1.00  0.00     0.165 HD
ENDROOT
BRANCH   1  12
HETATM   12  C5  UNL     1      28.639  32.546  41.650  1.00  0.00     0.046 C 
HETATM   13  C4  UNL     1      28.313  33.429  40.492  1.00  0.00     0.019 C 
HETATM   14  C2  UNL     1      28.197  34.863  41.025  1.00  0.00    -0.040 C 
HETATM   15  C1  UNL     1      29.066  35.682  40.116  1.00  0.00     0.015 C 
HETATM   16  C3  UNL     1      26.778  35.300  40.843  1.00  0.00     0.015 C 
HETATM   17  C11 UNL     1      28.636  34.765  42.435  1.00  0.00    -0.040 C 
HETATM   18  C10 UNL     1      29.546  33.561  42.430  1.00  0.00     0.019 C 
HETATM   19  C12 UNL     1      29.450  35.970  42.886  1.00  0.00     0.015 C 
HETATM   20  C13 UNL     1      27.582  34.538  43.467  1.00  0.00     0.015 C 
ENDBRANCH   1  12
BRANCH   1  21
HETATM   21  C7  UNL     1      28.670  30.406  40.501  1.00  0.00     0.280 C 
HETATM   22  N1  UNL     1      27.474  30.016  41.225  1.00  0.00    -0.058 NA
HETATM   23  O1  UNL     1      28.906  29.981  39.412  1.00  0.00    -0.272 OA
ENDBRANCH   1  21
TORSDOF 2
ENDMDL
MODEL 2
REMARK VINA RESULT: -5.703094437      2.594      4.242
REMARK  2 active torsions:
REMARK  status: ('A' for Active; 'I' for Inactive)
REMARK    1  A    between atoms: C5_5  and  C6_6 
REMARK    2  A    between atoms: C6_6  and  C7_7 
ROOT
HETATM    1  C6  UNL     1      29.588  32.094  39.223  1.00  0.00     0.192 C 
HETATM    2  N2  UNL     1      29.357  32.782  37.939  1.00  0.00    -0.330 N 
ATOM      3  H2  UNL     1      29.553  33.782  37.902  1.00  0.00     0.165 HD
HETATM    4  C8  UNL     1      28.939  32.240  36.890  1.00  0.00     0.192 C 
HETATM    5  N3  UNL     1      28.769  33.073  35.717  1.00  0.00    -0.063 NA
HETATM    6  N4  UNL     1      28.548  30.867  36.876  1.00  0.00    -0.305 N 
ATOM      7  H4  UNL     1      28.226  30.433  36.011  1.00  0.00     0.171 HD
HETATM    8  C9  UNL     1      28.606  30.183  37.961  1.00  0.00     0.192 C 
HETATM    9  N5  UNL     1      28.261  28.804  37.998  1.00  0.00    -0.063 NA
HETATM   10  N6  UNL     1      28.866  30.870  39.193  1.00  0.00    -0.330 N 
ATOM     11  H6  UNL     1      28.524  30.473  40.068  1.00  0.00     0.165 HD
ENDROOT
BRANCH   1  12
HETATM   12  C5  UNL     1      29.255  33.119  40.259  1.00  0.00     0.046 C 
HETATM   13  C4  UNL     1      28.373  32.599  41.345  1.00  0.00     0.019 C 
HETATM   14  C2  UNL     1      27.495  33.763  41.822  1.00  0.00    -0.040 C 
HETATM   15  C1  UNL     1      26.095  33.222  41.800  1.00  0.00     0.015 C 
HETATM   16  C3  UNL     1      27.867  34.058  43.241  1.00  0.00     0.015 C 
HETATM   17  C11 UNL     1      27.788  34.856  40.868  1.00  0.00    -0.040 C 
HETATM   18  C10 UNL     1      28.227  34.120  39.626  1.00  0.00     0.019 C 
HETATM   19  C12 UNL     1      26.557  35.680  40.518  1.00  0.00     0.015 C 
HETATM   20  C13 UNL     1      28.868  35.817  41.238  1.00  0.00     0.015 C 
ENDBRANCH   1  12
BRANCH   1  21
HETATM   21  C7  UNL     1      31.035  31.766  39.309  1.00  0.00     0.280 C 
HETATM   22  N1  UNL     1      31.314  30.888  40.430  1.00  0.00    -0.058 NA
HETATM   23  O1  UNL     1      31.898  32.134  38.574  1.00  0.00    -0.272 OA
ENDBRANCH   1  21
TORSDOF 2
ENDMDL
MODEL 3
REMARK VINA RESULT: -5.621739379      1.447      1.780
REMARK  2 active torsions:
REMARK  status: ('A' for Active; 'I' for Inactive)
REMARK    1  A    between atoms: C5_5  and  C6_6 
REMARK    2  A    between atoms: C6_6  and  C7_7 
ROOT
HETATM    1  C6  UNL     1      29.482  31.688  39.848  1.00  0.00     0.192 C 
HETATM    2  N2  UNL     1      29.957  31.034  41.082  1.00  0.00    -0.330 N 
ATOM      3  H2  UNL     1      29.261  30.822  41.797  1.00  0.00     0.165 HD
HETATM    4  C8  UNL     1      31.144  30.717  41.325  1.00  0.00     0.192 C 
HETATM    5  N3  UNL     1      31.429  30.079  42.594  1.00  0.00    -0.063 NA
HETATM    6  N4  UNL     1      32.196  31.061  40.425  1.00  0.00    -0.305 N 
ATOM      7  H4  UNL     1      33.156  30.782  40.626  1.00  0.00     0.171 HD
HETATM    8  C9  UNL     1      31.925  31.725  39.360  1.00  0.00     0.192 C 
HETATM    9  N5  UNL     1      32.929  32.067  38.412  1.00  0.00    -0.063 NA
HETATM   10  N6  UNL     1      30.609  32.275  39.210  1.00  0.00    -0.330 N 
ATOM     11  H6  UNL     1      30.478  33.106  38.634  1.00  0.00     0.165 HD
ENDROOT
BRANCH   1  12
HETATM   12  C5  UNL     1      28.357  32.563  40.300  1.00  0.00     0.046 C 
HETATM   13  C4  UNL     1      28.549  34.002  39.956  1.00  0.00     0.019 C 
HETATM   14  C2  UNL     1      27.877  34.832  41.058  1.00  0.00    -0.040 C 
HETATM   15  C1  UNL     1      28.917  35.830  41.475  1.00  0.00     0.015 C 
HETATM   16  C3  UNL     1      26.735  35.572  40.434  1.00  0.00     0.015 C 
HETATM   17  C11 UNL     1      27.482  33.835  42.077  1.00  0.00    -0.040 C 
HETATM   18  C10 UNL     1      28.465  32.711  41.859  1.00  0.00     0.019 C 
HETATM   19  C12 UNL     1      27.657  34.344  43.501  1.00  0.00     0.015 C 
HETATM   20  C13 UNL     1      26.106  33.266  41.982  1.00  0.00     0.015 C 
ENDBRANCH   1  12
BRANCH   1  21
HETATM   21  C7  UNL     1      28.949  30.633  38.949  1.00  0.00     0.280 C 
HETATM   22  N1  UNL     1      28.989  31.049  37.559  1.00  0.00    -0.058 NA
HETATM   23  O1  UNL     1      28.540  29.559  39.267  1.00  0.00    -0.272 OA
ENDBRANCH   1  21
TORSDOF 2
ENDMDL
MODEL 4
REMARK VINA RESULT: -5.477623105      6.184      7.583
REMARK  2 active torsions:
REMARK  status: ('A' for Active; 'I' for Inactive)
REMARK    1  A    between atoms: C5_5  and  C6_6 
REMARK    2  A    between atoms: C6_6  and  C7_7 
ROOT
HETATM    1  C6  UNL     1      28.663  32.605  35.369  1.00  0.00     0.192 C 
HETATM    2  N2  UNL     1      28.622  31.195  35.800  1.00  0.00    -0.330 N 
ATOM      3  H2  UNL     1      28.503  30.488  35.076  1.00  0.00     0.165 HD
HETATM    4  C8  UNL     1      28.720  30.795  36.983  1.00  0.00     0.192 C 
HETATM    5  N3  UNL     1      28.657  29.368  37.223  1.00  0.00    -0.063 NA
HETATM    6  N4  UNL     1      28.791  31.718  38.069  1.00  0.00    -0.305 N 
ATOM      7  H4  UNL     1      28.888  31.379  39.026  1.00  0.00     0.171 HD
HETATM    8  C9  UNL     1      28.733  32.979  37.832  1.00  0.00     0.192 C 
HETATM    9  N5  UNL     1      28.833  33.944  38.871  1.00  0.00    -0.063 NA
HETATM   10  N6  UNL     1      28.393  33.413  36.507  1.00  0.00    -0.330 N 
ATOM     11  H6  UNL     1      27.947  34.321  36.379  1.00  0.00     0.165 HD
ENDROOT
BRANCH   1  12
HETATM   12  C5  UNL     1      27.741  32.662  34.194  1.00  0.00     0.046 C 
HETATM   13  C4  UNL     1      27.963  33.853  33.323  1.00  0.00     0.019 C 
HETATM   14  C2  UNL     1      26.606  34.242  32.721  1.00  0.00    -0.040 C 
HETATM   15  C1  UNL     1      26.477  35.714  32.986  1.00  0.00     0.015 C 
HETATM   16  C3  UNL     1      26.691  34.034  31.241  1.00  0.00     0.015 C 
HETATM   17  C11 UNL     1      25.635  33.366  33.412  1.00  0.00    -0.040 C 
HETATM   18  C10 UNL     1      26.318  33.060  34.722  1.00  0.00     0.019 C 
HETATM   19  C12 UNL     1      24.319  34.067  33.719  1.00  0.00     0.015 C 
HETATM   20  C13 UNL     1      25.296  32.068  32.758  1.00  0.00     0.015 C 
ENDBRANCH   1  12
BRANCH   1  21
HETATM   21  C7  UNL     1      30.047  32.903  34.918  1.00  0.00     0.280 C 
HETATM   22  N1  UNL     1      30.488  34.206  35.381  1.00  0.00    -0.058 NA
HETATM   23  O1  UNL     1      30.757  32.198  34.271  1.00  0.00    -0.272 OA
ENDBRANCH   1  21
TORSDOF 2
ENDMDL
MODEL 5
REMARK VINA RESULT: -5.372708113      2.117      4.156
REMARK  2 active torsions:
REMARK  status: ('A' for Active; 'I' for Inactive)
REMARK    1  A    between atoms: C5_5  and  C6_6 
REMARK    2  A    between atoms: C6_6  and  C7_7 
ROOT
HETATM    1  C6  UNL     1      29.520  31.903  39.970  1.00  0.00     0.192 C 
HETATM    2  N2  UNL     1      29.256  31.330  38.636  1.00  0.00    -0.330 N 
ATOM      3  H2  UNL     1      29.717  31.767  37.839  1.00  0.00     0.165 HD
HETATM    4  C8  UNL     1      28.511  30.351  38.403  1.00  0.00     0.192 C 
HETATM    5  N3  UNL     1      28.366  29.922  37.027  1.00  0.00    -0.063 NA
HETATM    6  N4  UNL     1      27.751  29.739  39.444  1.00  0.00    -0.305 N 
ATOM      7  H4  UNL     1      27.161  28.931  39.243  1.00  0.00     0.171 HD
HETATM    8  C9  UNL     1      27.815  30.213  40.636  1.00  0.00     0.192 C 
HETATM    9  N5  UNL     1      27.105  29.623  41.718  1.00  0.00    -0.063 NA
HETATM   10  N6  UNL     1      28.487  31.463  40.841  1.00  0.00    -0.330 N 
ATOM     11  H6  UNL     1      28.218  32.050  41.630  1.00  0.00     0.165 HD
ENDROOT
BRANCH   1  12
HETATM   12  C5  UNL     1      29.694  33.367  39.717  1.00  0.00     0.046 C 
HETATM   13  C4  UNL     1      28.954  34.227  40.685  1.00  0.00     0.019 C 
HETATM   14  C2  UNL     1      28.535  35.502  39.941  1.00  0.00    -0.040 C 
HETATM   15  C1  UNL     1      27.070  35.651  40.230  1.00  0.00     0.015 C 
HETATM   16  C3  UNL     1      29.260  36.651  40.568  1.00  0.00     0.015 C 
HETATM   17  C11 UNL     1      28.899  35.238  38.532  1.00  0.00    -0.040 C 
HETATM   18  C10 UNL     1      28.858  33.732  38.441  1.00  0.00     0.019 C 
HETATM   19  C12 UNL     1      27.885  35.798  37.544  1.00  0.00     0.015 C 
HETATM   20  C13 UNL     1      30.247  35.688  38.076  1.00  0.00     0.015 C 
ENDBRANCH   1  12
BRANCH   1  21
HETATM   21  C7  UNL     1      30.803  31.337  40.462  1.00  0.00     0.280 C 
HETATM   22  N1  UNL     1      31.859  31.479  39.477  1.00  0.00    -0.058 NA
HETATM   23  O1  UNL     1      31.003  30.833  41.524  1.00  0.00    -0.272 OA
ENDBRANCH   1  21
TORSDOF 2
ENDMDL
