MODEL 1
REMARK VINA RESULT: -6.784467624      0.000      0.000
REMARK  2 active torsions:
REMARK  status: ('A' for Active; 'I' for Inactive)
REMARK    1  A    between atoms: N2_5  and  C4_6 
REMARK    2  A    between atoms: C9_18  and  N7_19 
ROOT
HETATM    1  C4  UNL     1      25.497  31.988  33.717  1.00  0.00     0.141 A 
HETATM    2  N3  UNL     1      24.635  30.914  33.660  1.00  0.00    -0.326 N 
ATOM      3  H3  UNL     1      23.772  31.023  33.130  1.00  0.00     0.169 HD
HETATM    4  C5  UNL     1      24.857  29.748  34.252  1.00  0.00     0.123 A 
HETATM    5  N4  UNL     1      24.000  28.754  34.166  1.00  0.00    -0.384 N 
ATOM      6  H41 UNL     1      24.170  27.856  34.621  1.00  0.00     0.157 HD
ATOM      7  H42 UNL     1      23.143  28.887  33.629  1.00  0.00     0.157 HD
HETATM    8  C6  UNL     1      26.009  29.568  34.975  1.00  0.00     0.115 A 
HETATM    9  C7  UNL     1      26.302  28.318  35.639  1.00  0.00     0.105 C 
HETATM   10  N5  UNL     1      26.558  27.316  36.167  1.00  0.00    -0.191 NA
HETATM   11  C8  UNL     1      26.891  30.606  35.058  1.00  0.00     0.107 A 
HETATM   12  N6  UNL     1      28.116  30.497  35.797  1.00  0.00    -0.098 NA
HETATM   13  C9  UNL     1      26.656  31.851  34.429  1.00  0.00     0.172 A 
ENDROOT
BRANCH  13  14
HETATM   14  N7  UNL     1      27.616  32.864  34.613  1.00  0.00    -0.110 N 
HETATM   15  O1  UNL     1      27.517  33.727  35.494  1.00  0.00    -0.532 OA
HETATM   16  O2  UNL     1      28.727  32.885  33.809  1.00  0.00    -0.532 OA
ENDBRANCH  13  14
BRANCH   1  17
HETATM   17  N2  UNL     1      25.117  33.180  33.063  1.00  0.00    -0.359 N 
HETATM   18  C3  UNL     1      25.613  33.387  31.695  1.00  0.00     0.168 C 
HETATM   19  C2  UNL     1      24.705  34.324  30.922  1.00  0.00     0.077 C 
HETATM   20  N1  UNL     1      24.607  35.552  31.599  1.00  0.00    -0.394 N 
HETATM   21  C1  UNL     1      23.722  36.529  31.089  1.00  0.00     0.148 C 
HETATM   22  C11 UNL     1      24.879  35.578  32.979  1.00  0.00     0.141 C 
HETATM   23  C10 UNL     1      24.337  34.250  33.590  1.00  0.00     0.144 C 
ENDBRANCH   1  17
TORSDOF 2
ENDMDL
MODEL 2
REMARK VINA RESULT: -6.768314620      0.330      1.127
REMARK  2 active torsions:
REMARK  status: ('A' for Active; 'I' for Inactive)
REMARK    1  A    between atoms: N2_5  and  C4_6 
REMARK    2  A    between atoms: C9_18  and  N7_19 
ROOT
HETATM    1  C4  UNL     1      25.641  31.844  33.658  1.00  0.00     0.141 A 
HETATM    2  N3  UNL     1      24.776  30.781  33.515  1.00  0.00    -0.326 N 
ATOM      3  H3  UNL     1      23.969  30.902  32.904  1.00  0.00     0.169 HD
HETATM    4  C5  UNL     1      24.925  29.611  34.120  1.00  0.00     0.123 A 
HETATM    5  N4  UNL     1      24.069  28.628  33.949  1.00  0.00    -0.384 N 
ATOM      6  H41 UNL     1      24.183  27.727  34.414  1.00  0.00     0.157 HD
ATOM      7  H42 UNL     1      23.270  28.773  33.332  1.00  0.00     0.157 HD
HETATM    8  C6  UNL     1      26.001  29.415  34.950  1.00  0.00     0.115 A 
HETATM    9  C7  UNL     1      26.214  28.159  35.634  1.00  0.00     0.105 C 
HETATM   10  N5  UNL     1      26.405  27.153  36.181  1.00  0.00    -0.191 NA
HETATM   11  C8  UNL     1      26.882  30.441  35.122  1.00  0.00     0.107 A 
HETATM   12  N6  UNL     1      28.029  30.316  35.975  1.00  0.00    -0.098 NA
HETATM   13  C9  UNL     1      26.724  31.691  34.478  1.00  0.00     0.172 A 
ENDROOT
BRANCH  13  14
HETATM   14  N7  UNL     1      27.675  32.692  34.757  1.00  0.00    -0.110 N 
HETATM   15  O1  UNL     1      27.518  33.531  35.653  1.00  0.00    -0.532 OA
HETATM   16  O2  UNL     1      28.840  32.726  34.035  1.00  0.00    -0.532 OA
ENDBRANCH  13  14
BRANCH   1  17
HETATM   17  N2  UNL     1      25.340  33.043  32.976  1.00  0.00    -0.359 N 
HETATM   18  C3  UNL     1      24.350  33.939  33.591  1.00  0.00     0.168 C 
HETATM   19  C2  UNL     1      24.552  35.371  33.133  1.00  0.00     0.077 C 
HETATM   20  N1  UNL     1      24.468  35.435  31.732  1.00  0.00    -0.394 N 
HETATM   21  C1  UNL     1      24.730  36.673  31.102  1.00  0.00     0.148 C 
HETATM   22  C11 UNL     1      24.714  34.263  30.993  1.00  0.00     0.141 C 
HETATM   23  C10 UNL     1      25.850  33.480  31.719  1.00  0.00     0.144 C 
ENDBRANCH   1  17
TORSDOF 2
ENDMDL
MODEL 3
REMARK VINA RESULT: -6.704281496      2.974      4.432
REMARK  2 active torsions:
REMARK  status: ('A' for Active; 'I' for Inactive)
REMARK    1  A    between atoms: N2_5  and  C4_6 
REMARK    2  A    between atoms: C9_18  and  N7_19 
ROOT
HETATM    1  C4  UNL     1      26.295  29.955  34.979  1.00  0.00     0.141 A 
HETATM    2  N3  UNL     1      26.683  28.868  35.732  1.00  0.00    -0.326 N 
ATOM      3  H3  UNL     1      27.505  28.969  36.327  1.00  0.00     0.169 HD
HETATM    4  C5  UNL     1      26.058  27.698  35.732  1.00  0.00     0.123 A 
HETATM    5  N4  UNL     1      26.471  26.692  36.470  1.00  0.00    -0.384 N 
ATOM      6  H41 UNL     1      25.990  25.792  36.471  1.00  0.00     0.157 HD
ATOM      7  H42 UNL     1      27.295  26.818  37.058  1.00  0.00     0.157 HD
HETATM    8  C6  UNL     1      24.949  27.529  34.942  1.00  0.00     0.115 A 
HETATM    9  C7  UNL     1      24.228  26.276  34.904  1.00  0.00     0.105 C 
HETATM   10  N5  UNL     1      23.630  25.281  34.872  1.00  0.00    -0.191 NA
HETATM   11  C8  UNL     1      24.529  28.578  34.179  1.00  0.00     0.107 A 
HETATM   12  N6  UNL     1      23.380  28.479  33.325  1.00  0.00    -0.098 NA
HETATM   13  C9  UNL     1      25.196  29.826  34.176  1.00  0.00     0.172 A 
ENDROOT
BRANCH  13  14
HETATM   14  N7  UNL     1      24.697  30.829  33.322  1.00  0.00    -0.110 N 
HETATM   15  O1  UNL     1      25.116  30.993  32.169  1.00  0.00    -0.532 OA
HETATM   16  O2  UNL     1      23.684  31.640  33.764  1.00  0.00    -0.532 OA
ENDBRANCH  13  14
BRANCH   1  17
HETATM   17  N2  UNL     1      27.075  31.129  35.055  1.00  0.00    -0.359 N 
HETATM   18  C3  UNL     1      28.083  31.201  36.122  1.00  0.00     0.168 C 
HETATM   19  C2  UNL     1      29.200  32.159  35.753  1.00  0.00     0.077 C 
HETATM   20  N1  UNL     1      28.665  33.433  35.498  1.00  0.00    -0.394 N 
HETATM   21  C1  UNL     1      29.537  34.446  35.038  1.00  0.00     0.148 C 
HETATM   22  C11 UNL     1      27.309  33.527  35.136  1.00  0.00     0.141 C 
HETATM   23  C10 UNL     1      26.974  32.295  34.242  1.00  0.00     0.144 C 
ENDBRANCH   1  17
TORSDOF 2
ENDMDL
MODEL 4
REMARK VINA RESULT: -6.618649921      2.205      2.596
REMARK  2 active torsions:
REMARK  status: ('A' for Active; 'I' for Inactive)
REMARK    1  A    between atoms: N2_5  and  C4_6 
REMARK    2  A    between atoms: C9_18  and  N7_19 
ROOT
HETATM    1  C4  UNL     1      27.143  31.565  34.727  1.00  0.00     0.141 A 
HETATM    2  N3  UNL     1      26.086  30.826  34.240  1.00  0.00    -0.326 N 
ATOM      3  H3  UNL     1      25.487  31.258  33.537  1.00  0.00     0.169 HD
HETATM    4  C5  UNL     1      25.799  29.591  34.626  1.00  0.00     0.123 A 
HETATM    5  N4  UNL     1      24.777  28.929  34.128  1.00  0.00    -0.384 N 
ATOM      6  H41 UNL     1      24.555  27.978  34.425  1.00  0.00     0.157 HD
ATOM      7  H42 UNL     1      24.192  29.382  33.426  1.00  0.00     0.157 HD
HETATM    8  C6  UNL     1      26.586  28.981  35.571  1.00  0.00     0.115 A 
HETATM    9  C7  UNL     1      26.320  27.636  36.028  1.00  0.00     0.105 C 
HETATM   10  N5  UNL     1      26.127  26.551  36.396  1.00  0.00    -0.191 NA
HETATM   11  C8  UNL     1      27.642  29.676  36.081  1.00  0.00     0.107 A 
HETATM   12  N6  UNL     1      28.509  29.109  37.074  1.00  0.00    -0.098 NA
HETATM   13  C9  UNL     1      27.950  30.995  35.672  1.00  0.00     0.172 A 
ENDROOT
BRANCH  13  14
HETATM   14  N7  UNL     1      29.042  31.632  36.293  1.00  0.00    -0.110 N 
HETATM   15  O1  UNL     1      28.921  32.321  37.313  1.00  0.00    -0.532 OA
HETATM   16  O2  UNL     1      30.299  31.459  35.773  1.00  0.00    -0.532 OA
ENDBRANCH  13  14
BRANCH   1  17
HETATM   17  N2  UNL     1      27.311  32.882  34.246  1.00  0.00    -0.359 N 
HETATM   18  C3  UNL     1      26.199  33.822  34.453  1.00  0.00     0.168 C 
HETATM   19  C2  UNL     1      26.693  35.256  34.460  1.00  0.00     0.077 C 
HETATM   20  N1  UNL     1      27.353  35.535  33.251  1.00  0.00    -0.394 N 
HETATM   21  C1  UNL     1      27.976  36.795  33.104  1.00  0.00     0.148 C 
HETATM   22  C11 UNL     1      27.878  34.458  32.513  1.00  0.00     0.141 C 
HETATM   23  C10 UNL     1      28.423  33.412  33.532  1.00  0.00     0.144 C 
ENDBRANCH   1  17
TORSDOF 2
ENDMDL
MODEL 5
REMARK VINA RESULT: -6.586699229      3.527      5.768
REMARK  2 active torsions:
REMARK  status: ('A' for Active; 'I' for Inactive)
REMARK    1  A    between atoms: N2_5  and  C4_6 
REMARK    2  A    between atoms: C9_18  and  N7_19 
ROOT
HETATM    1  C4  UNL     1      27.680  30.100  36.580  1.00  0.00     0.141 A 
HETATM    2  N3  UNL     1      27.420  28.784  36.895  1.00  0.00    -0.326 N 
ATOM      3  H3  UNL     1      27.868  28.395  37.725  1.00  0.00     0.169 HD
HETATM    4  C5  UNL     1      26.626  27.990  36.190  1.00  0.00     0.123 A 
HETATM    5  N4  UNL     1      26.413  26.739  36.535  1.00  0.00    -0.384 N 
ATOM      6  H41 UNL     1      25.802  26.128  35.993  1.00  0.00     0.157 HD
ATOM      7  H42 UNL     1      26.871  26.374  37.370  1.00  0.00     0.157 HD
HETATM    8  C6  UNL     1      26.009  28.482  35.067  1.00  0.00     0.115 A 
HETATM    9  C7  UNL     1      25.133  27.662  34.261  1.00  0.00     0.105 C 
HETATM   10  N5  UNL     1      24.416  27.020  33.611  1.00  0.00    -0.191 NA
HETATM   11  C8  UNL     1      26.239  29.779  34.716  1.00  0.00     0.107 A 
HETATM   12  N6  UNL     1      25.633  30.366  33.555  1.00  0.00    -0.098 NA
HETATM   13  C9  UNL     1      27.086  30.628  35.467  1.00  0.00     0.172 A 
ENDROOT
BRANCH  13  14
HETATM   14  N7  UNL     1      27.281  31.939  34.992  1.00  0.00    -0.110 N 
HETATM   15  O1  UNL     1      26.535  32.878  35.298  1.00  0.00    -0.532 OA
HETATM   16  O2  UNL     1      28.357  32.204  34.185  1.00  0.00    -0.532 OA
ENDBRANCH  13  14
BRANCH   1  17
HETATM   17  N2  UNL     1      28.572  30.818  37.406  1.00  0.00    -0.359 N 
HETATM   18  C3  UNL     1      28.384  30.706  38.859  1.00  0.00     0.168 C 
HETATM   19  C2  UNL     1      29.677  30.988  39.600  1.00  0.00     0.077 C 
HETATM   20  N1  UNL     1      30.144  32.271  39.264  1.00  0.00    -0.394 N 
HETATM   21  C1  UNL     1      31.395  32.683  39.774  1.00  0.00     0.148 C 
HETATM   22  C11 UNL     1      29.716  32.840  38.050  1.00  0.00     0.141 C 
HETATM   23  C10 UNL     1      29.622  31.691  37.000  1.00  0.00     0.144 C 
ENDBRANCH   1  17
TORSDOF 2
ENDMDL
