MODEL 1
REMARK VINA RESULT: -6.187406869      0.000      0.000
REMARK  8 active torsions:
REMARK  status: ('A' for Active; 'I' for Inactive)
REMARK    1  A    between atoms: N1_2  and  C2_3 
REMARK    2  A    between atoms: N1_2  and  C8_13 
REMARK    3  A    between atoms: C2_3  and  C3_4 
REMARK    4  A    between atoms: C3_4  and  O1_8 
REMARK    5  A    between atoms: O1_8  and  C4_9 
REMARK    6  A    between atoms: C9_16  and  N4_17 
REMARK    7  A    between atoms: C10_22  and  N6_23 
REMARK    8  A    between atoms: C11_26  and  N7_27 
ROOT
HETATM    1  C8  UNL     1      27.309  29.243  36.939  1.00  0.00     0.156 A 
HETATM    2  N3  UNL     1      26.809  28.007  37.114  1.00  0.00    -0.174 N 
ATOM      3  H3  UNL     1      27.182  27.427  37.865  1.00  0.00     0.186 HD
HETATM    4  C9  UNL     1      25.833  27.510  36.332  1.00  0.00     0.679 A 
HETATM    5  N5  UNL     1      25.293  28.210  35.324  1.00  0.00    -0.175 N 
ATOM      6  H5  UNL     1      24.555  27.809  34.745  1.00  0.00     0.186 HD
HETATM    7  C10 UNL     1      25.749  29.452  35.096  1.00  0.00     0.151 A 
HETATM    8  C11 UNL     1      26.753  29.977  35.893  1.00  0.00     0.191 A 
ENDROOT
BRANCH   1   9
HETATM    9  N1  UNL     1      28.326  29.835  37.717  1.00  0.00    -0.362 N 
HETATM   10  C1  UNL     1      29.703  29.368  37.473  1.00  0.00     0.152 C 
BRANCH   9  11
HETATM   11  C2  UNL     1      28.180  30.828  38.730  1.00  0.00     0.207 C 
BRANCH  11  12
HETATM   12  C3  UNL     1      28.142  30.181  40.057  1.00  0.00     0.130 C 
HETATM   13  N2  UNL     1      27.183  29.441  40.379  1.00  0.00    -0.382 N 
ATOM     14  H22 UNL     1      26.412  29.273  39.732  1.00  0.00     0.158 HD
ATOM     15  H21 UNL     1      27.157  28.995  41.295  1.00  0.00     0.158 HD
BRANCH  12  16
HETATM   16  O1  UNL     1      29.171  30.405  40.920  1.00  0.00    -0.328 OA
BRANCH  16  17
HETATM   17  C4  UNL     1      29.411  31.532  41.673  1.00  0.00     0.058 C 
HETATM   18  C5  UNL     1      30.559  32.390  41.195  1.00  0.00     0.045 C 
HETATM   19  C6  UNL     1      28.235  32.369  42.043  1.00  0.00     0.045 C 
HETATM   20  C7  UNL     1      29.915  30.971  43.038  1.00  0.00     0.045 C 
ENDBRANCH  16  17
ENDBRANCH  12  16
ENDBRANCH  11  12
ENDBRANCH   9  11
ENDBRANCH   1   9
BRANCH   8  21
HETATM   21  N7  UNL     1      27.246  31.268  35.636  1.00  0.00    -0.108 N 
HETATM   22  O2  UNL     1      26.606  32.281  35.888  1.00  0.00    -0.531 OA
HETATM   23  O3  UNL     1      28.518  31.390  35.070  1.00  0.00    -0.531 OA
ENDBRANCH   8  21
BRANCH   4  24
HETATM   24  N4  UNL     1      25.395  26.315  36.559  1.00  0.00    -0.234 N 
ATOM     25  H42 UNL     1      25.726  25.823  37.388  1.00  0.00     0.174 HD
ATOM     26  H41 UNL     1      24.734  25.898  35.904  1.00  0.00     0.174 HD
ENDBRANCH   4  24
BRANCH   7  27
HETATM   27  N6  UNL     1      25.245  30.143  34.138  1.00  0.00    -0.383 N 
ATOM     28  H62 UNL     1      24.404  29.827  33.655  1.00  0.00     0.157 HD
ATOM     29  H61 UNL     1      25.694  31.015  33.858  1.00  0.00     0.157 HD
ENDBRANCH   7  27
TORSDOF 8
ENDMDL
MODEL 2
REMARK VINA RESULT: -5.934435334      1.239      1.745
REMARK  8 active torsions:
REMARK  status: ('A' for Active; 'I' for Inactive)
REMARK    1  A    between atoms: N1_2  and  C2_3 
REMARK    2  A    between atoms: N1_2  and  C8_13 
REMARK    3  A    between atoms: C2_3  and  C3_4 
REMARK    4  A    between atoms: C3_4  and  O1_8 
REMARK    5  A    between atoms: O1_8  and  C4_9 
REMARK    6  A    between atoms: C9_16  and  N4_17 
REMARK    7  A    between atoms: C10_22  and  N6_23 
REMARK    8  A    between atoms: C11_26  and  N7_27 
ROOT
HETATM    1  C8  UNL     1      27.798  29.324  37.142  1.00  0.00     0.156 A 
HETATM    2  N3  UNL     1      26.941  28.288  37.127  1.00  0.00    -0.174 N 
ATOM      3  H3  UNL     1      27.156  27.462  37.684  1.00  0.00     0.186 HD
HETATM    4  C9  UNL     1      25.808  28.305  36.399  1.00  0.00     0.679 A 
HETATM    5  N5  UNL     1      25.457  29.353  35.641  1.00  0.00    -0.175 N 
ATOM      6  H5  UNL     1      24.593  29.340  35.099  1.00  0.00     0.186 HD
HETATM    7  C10 UNL     1      26.271  30.420  35.612  1.00  0.00     0.151 A 
HETATM    8  C11 UNL     1      27.440  30.417  36.355  1.00  0.00     0.191 A 
ENDROOT
BRANCH   1   9
HETATM    9  N1  UNL     1      29.001  29.383  37.879  1.00  0.00    -0.362 N 
HETATM   10  C1  UNL     1      30.182  28.743  37.271  1.00  0.00     0.152 C 
BRANCH   9  11
HETATM   11  C2  UNL     1      29.209  29.979  39.157  1.00  0.00     0.207 C 
BRANCH  11  12
HETATM   12  C3  UNL     1      27.918  30.096  39.865  1.00  0.00     0.130 C 
HETATM   13  N2  UNL     1      27.315  29.073  40.267  1.00  0.00    -0.382 N 
ATOM     14  H22 UNL     1      27.704  28.143  40.112  1.00  0.00     0.158 HD
ATOM     15  H21 UNL     1      26.424  29.154  40.755  1.00  0.00     0.158 HD
BRANCH  12  16
HETATM   16  O1  UNL     1      27.399  31.338  40.072  1.00  0.00    -0.328 OA
BRANCH  16  17
HETATM   17  C4  UNL     1      27.514  32.126  41.195  1.00  0.00     0.058 C 
HETATM   18  C5  UNL     1      26.230  32.341  41.962  1.00  0.00     0.045 C 
HETATM   19  C6  UNL     1      28.646  31.835  42.119  1.00  0.00     0.045 C 
HETATM   20  C7  UNL     1      27.846  33.541  40.630  1.00  0.00     0.045 C 
ENDBRANCH  16  17
ENDBRANCH  12  16
ENDBRANCH  11  12
ENDBRANCH   9  11
ENDBRANCH   1   9
BRANCH   8  21
HETATM   21  N7  UNL     1      28.304  31.525  36.304  1.00  0.00    -0.108 N 
HETATM   22  O2  UNL     1      28.212  32.469  37.077  1.00  0.00    -0.531 OA
HETATM   23  O3  UNL     1      29.304  31.539  35.328  1.00  0.00    -0.531 OA
ENDBRANCH   8  21
BRANCH   4  24
HETATM   24  N4  UNL     1      25.025  27.277  36.434  1.00  0.00    -0.234 N 
ATOM     25  H42 UNL     1      25.312  26.463  36.977  1.00  0.00     0.174 HD
ATOM     26  H41 UNL     1      24.147  27.307  35.917  1.00  0.00     0.174 HD
ENDBRANCH   4  24
BRANCH   7  27
HETATM   27  N6  UNL     1      25.955  31.436  34.895  1.00  0.00    -0.383 N 
ATOM     28  H62 UNL     1      26.418  31.608  34.002  1.00  0.00     0.157 HD
ATOM     29  H61 UNL     1      25.234  32.078  35.224  1.00  0.00     0.157 HD
ENDBRANCH   7  27
TORSDOF 8
ENDMDL
MODEL 3
REMARK VINA RESULT: -5.847945009      1.191      1.656
REMARK  8 active torsions:
REMARK  status: ('A' for Active; 'I' for Inactive)
REMARK    1  A    between atoms: N1_2  and  C2_3 
REMARK    2  A    between atoms: N1_2  and  C8_13 
REMARK    3  A    between atoms: C2_3  and  C3_4 
REMARK    4  A    between atoms: C3_4  and  O1_8 
REMARK    5  A    between atoms: O1_8  and  C4_9 
REMARK    6  A    between atoms: C9_16  and  N4_17 
REMARK    7  A    between atoms: C10_22  and  N6_23 
REMARK    8  A    between atoms: C11_26  and  N7_27 
ROOT
HETATM    1  C8  UNL     1      27.749  29.352  37.072  1.00  0.00     0.156 A 
HETATM    2  N3  UNL     1      26.898  28.311  37.095  1.00  0.00    -0.174 N 
ATOM      3  H3  UNL     1      27.118  27.506  37.681  1.00  0.00     0.186 HD
HETATM    4  C9  UNL     1      25.763  28.295  36.370  1.00  0.00     0.679 A 
HETATM    5  N5  UNL     1      25.405  29.312  35.574  1.00  0.00    -0.175 N 
ATOM      6  H5  UNL     1      24.540  29.274  35.034  1.00  0.00     0.186 HD
HETATM    7  C10 UNL     1      26.213  30.382  35.506  1.00  0.00     0.151 A 
HETATM    8  C11 UNL     1      27.383  30.413  36.247  1.00  0.00     0.191 A 
ENDROOT
BRANCH   1   9
HETATM    9  N1  UNL     1      28.951  29.444  37.804  1.00  0.00    -0.362 N 
HETATM   10  C1  UNL     1      30.135  28.786  37.221  1.00  0.00     0.152 C 
BRANCH   9  11
HETATM   11  C2  UNL     1      29.158  30.090  39.058  1.00  0.00     0.207 C 
BRANCH  11  12
HETATM   12  C3  UNL     1      27.893  30.112  39.820  1.00  0.00     0.130 C 
HETATM   13  N2  UNL     1      27.356  29.043  40.194  1.00  0.00    -0.382 N 
ATOM     14  H22 UNL     1      27.781  28.141  39.981  1.00  0.00     0.158 HD
ATOM     15  H21 UNL     1      26.483  29.057  40.720  1.00  0.00     0.158 HD
BRANCH  12  16
HETATM   16  O1  UNL     1      27.325  31.316  40.105  1.00  0.00    -0.328 OA
BRANCH  16  17
HETATM   17  C4  UNL     1      27.695  32.214  41.080  1.00  0.00     0.058 C 
HETATM   18  C5  UNL     1      28.684  31.688  42.095  1.00  0.00     0.045 C 
HETATM   19  C6  UNL     1      28.062  33.588  40.638  1.00  0.00     0.045 C 
HETATM   20  C7  UNL     1      26.392  32.423  41.912  1.00  0.00     0.045 C 
ENDBRANCH  16  17
ENDBRANCH  12  16
ENDBRANCH  11  12
ENDBRANCH   9  11
ENDBRANCH   1   9
BRANCH   8  21
HETATM   21  N7  UNL     1      28.240  31.524  36.154  1.00  0.00    -0.108 N 
HETATM   22  O2  UNL     1      29.173  31.573  35.364  1.00  0.00    -0.531 OA
HETATM   23  O3  UNL     1      28.008  32.611  37.002  1.00  0.00    -0.531 OA
ENDBRANCH   8  21
BRANCH   4  24
HETATM   24  N4  UNL     1      24.987  27.264  36.442  1.00  0.00    -0.234 N 
ATOM     25  H42 UNL     1      24.566  27.032  37.342  1.00  0.00     0.174 HD
ATOM     26  H41 UNL     1      24.819  26.711  35.602  1.00  0.00     0.174 HD
ENDBRANCH   4  24
BRANCH   7  27
HETATM   27  N6  UNL     1      25.889  31.371  34.753  1.00  0.00    -0.383 N 
ATOM     28  H62 UNL     1      25.557  32.246  35.158  1.00  0.00     0.157 HD
ATOM     29  H61 UNL     1      25.964  31.276  33.741  1.00  0.00     0.157 HD
ENDBRANCH   7  27
TORSDOF 8
ENDMDL
MODEL 4
REMARK VINA RESULT: -5.661897309      2.786      6.011
REMARK  8 active torsions:
REMARK  status: ('A' for Active; 'I' for Inactive)
REMARK    1  A    between atoms: N1_2  and  C2_3 
REMARK    2  A    between atoms: N1_2  and  C8_13 
REMARK    3  A    between atoms: C2_3  and  C3_4 
REMARK    4  A    between atoms: C3_4  and  O1_8 
REMARK    5  A    between atoms: O1_8  and  C4_9 
REMARK    6  A    between atoms: C9_16  and  N4_17 
REMARK    7  A    between atoms: C10_22  and  N6_23 
REMARK    8  A    between atoms: C11_26  and  N7_27 
ROOT
HETATM    1  C8  UNL     1      27.397  30.598  36.230  1.00  0.00     0.156 A 
HETATM    2  N3  UNL     1      26.597  29.737  35.577  1.00  0.00    -0.174 N 
ATOM      3  H3  UNL     1      26.256  29.988  34.649  1.00  0.00     0.186 HD
HETATM    4  C9  UNL     1      26.230  28.555  36.107  1.00  0.00     0.679 A 
HETATM    5  N5  UNL     1      26.635  28.156  37.321  1.00  0.00    -0.175 N 
ATOM      6  H5  UNL     1      26.342  27.255  37.700  1.00  0.00     0.186 HD
HETATM    7  C10 UNL     1      27.436  28.971  38.026  1.00  0.00     0.151 A 
HETATM    8  C11 UNL     1      27.821  30.190  37.493  1.00  0.00     0.191 A 
ENDROOT
BRANCH   1   9
HETATM    9  N1  UNL     1      27.828  31.850  35.741  1.00  0.00    -0.362 N 
HETATM   10  C1  UNL     1      29.247  31.960  35.358  1.00  0.00     0.152 C 
BRANCH   9  11
HETATM   11  C2  UNL     1      27.051  33.036  35.586  1.00  0.00     0.207 C 
BRANCH  11  12
HETATM   12  C3  UNL     1      26.626  33.169  34.178  1.00  0.00     0.130 C 
HETATM   13  N2  UNL     1      27.015  34.137  33.483  1.00  0.00    -0.382 N 
ATOM     14  H22 UNL     1      27.632  34.849  33.875  1.00  0.00     0.158 HD
ATOM     15  H21 UNL     1      26.721  34.229  32.511  1.00  0.00     0.158 HD
BRANCH  12  16
HETATM   16  O1  UNL     1      25.803  32.219  33.654  1.00  0.00    -0.328 OA
BRANCH  16  17
HETATM   17  C4  UNL     1      24.489  32.359  33.269  1.00  0.00     0.058 C 
HETATM   18  C5  UNL     1      23.761  33.530  33.887  1.00  0.00     0.045 C 
HETATM   19  C6  UNL     1      24.190  32.251  31.814  1.00  0.00     0.045 C 
HETATM   20  C7  UNL     1      23.781  31.117  33.891  1.00  0.00     0.045 C 
ENDBRANCH  16  17
ENDBRANCH  12  16
ENDBRANCH  11  12
ENDBRANCH   9  11
ENDBRANCH   1   9
BRANCH   8  21
HETATM   21  N7  UNL     1      28.640  31.053  38.243  1.00  0.00    -0.108 N 
HETATM   22  O2  UNL     1      28.197  32.020  38.849  1.00  0.00    -0.531 OA
HETATM   23  O3  UNL     1      30.010  30.788  38.293  1.00  0.00    -0.531 OA
ENDBRANCH   8  21
BRANCH   4  24
HETATM   24  N4  UNL     1      25.463  27.772  35.423  1.00  0.00    -0.234 N 
ATOM     25  H42 UNL     1      24.657  28.174  34.944  1.00  0.00     0.174 HD
ATOM     26  H41 UNL     1      25.682  26.777  35.382  1.00  0.00     0.174 HD
ENDBRANCH   4  24
BRANCH   7  27
HETATM   27  N6  UNL     1      27.839  28.609  39.190  1.00  0.00    -0.383 N 
ATOM     28  H62 UNL     1      28.813  28.349  39.345  1.00  0.00     0.157 HD
ATOM     29  H61 UNL     1      27.176  28.580  39.964  1.00  0.00     0.157 HD
ENDBRANCH   7  27
TORSDOF 8
ENDMDL
MODEL 5
REMARK VINA RESULT: -5.629242069      2.815      5.022
REMARK  8 active torsions:
REMARK  status: ('A' for Active; 'I' for Inactive)
REMARK    1  A    between atoms: N1_2  and  C2_3 
REMARK    2  A    between atoms: N1_2  and  C8_13 
REMARK    3  A    between atoms: C2_3  and  C3_4 
REMARK    4  A    between atoms: C3_4  and  O1_8 
REMARK    5  A    between atoms: O1_8  and  C4_9 
REMARK    6  A    between atoms: C9_16  and  N4_17 
REMARK    7  A    between atoms: C10_22  and  N6_23 
REMARK    8  A    between atoms: C11_26  and  N7_27 
ROOT
HETATM    1  C8  UNL     1      27.838  30.972  36.831  1.00  0.00     0.156 A 
HETATM    2  N3  UNL     1      27.137  31.402  35.766  1.00  0.00    -0.174 N 
ATOM      3  H3  UNL     1      27.309  32.341  35.409  1.00  0.00     0.186 HD
HETATM    4  C9  UNL     1      26.216  30.633  35.155  1.00  0.00     0.679 A 
HETATM    5  N5  UNL     1      25.933  29.389  35.566  1.00  0.00    -0.175 N 
ATOM      6  H5  UNL     1      25.229  28.827  35.086  1.00  0.00     0.186 HD
HETATM    7  C10 UNL     1      26.597  28.901  36.626  1.00  0.00     0.151 A 
HETATM    8  C11 UNL     1      27.547  29.680  37.264  1.00  0.00     0.191 A 
ENDROOT
BRANCH   1   9
HETATM    9  N1  UNL     1      28.819  31.715  37.521  1.00  0.00    -0.362 N 
HETATM   10  C1  UNL     1      28.333  32.728  38.477  1.00  0.00     0.152 C 
BRANCH   9  11
HETATM   11  C2  UNL     1      30.235  31.614  37.394  1.00  0.00     0.207 C 
BRANCH  11  12
HETATM   12  C3  UNL     1      30.573  31.000  36.095  1.00  0.00     0.130 C 
HETATM   13  N2  UNL     1      31.164  29.896  36.045  1.00  0.00    -0.382 N 
ATOM     14  H22 UNL     1      31.422  29.402  36.900  1.00  0.00     0.158 HD
ATOM     15  H21 UNL     1      31.398  29.472  35.148  1.00  0.00     0.158 HD
BRANCH  12  16
HETATM   16  O1  UNL     1      30.229  31.659  34.954  1.00  0.00    -0.328 OA
BRANCH  16  17
HETATM   17  C4  UNL     1      30.711  32.865  34.497  1.00  0.00     0.058 C 
HETATM   18  C5  UNL     1      29.929  34.078  34.943  1.00  0.00     0.045 C 
HETATM   19  C6  UNL     1      32.177  33.102  34.612  1.00  0.00     0.045 C 
HETATM   20  C7  UNL     1      30.460  32.811  32.959  1.00  0.00     0.045 C 
ENDBRANCH  16  17
ENDBRANCH  12  16
ENDBRANCH  11  12
ENDBRANCH   9  11
ENDBRANCH   1   9
BRANCH   8  21
HETATM   21  N7  UNL     1      28.224  29.176  38.389  1.00  0.00    -0.108 N 
HETATM   22  O2  UNL     1      27.838  29.373  39.534  1.00  0.00    -0.531 OA
HETATM   23  O3  UNL     1      29.381  28.421  38.182  1.00  0.00    -0.531 OA
ENDBRANCH   8  21
BRANCH   4  24
HETATM   24  N4  UNL     1      25.583  31.106  34.133  1.00  0.00    -0.234 N 
ATOM     25  H42 UNL     1      24.571  31.220  34.195  1.00  0.00     0.174 HD
ATOM     26  H41 UNL     1      26.109  31.348  33.294  1.00  0.00     0.174 HD
ENDBRANCH   4  24
BRANCH   7  27
HETATM   27  N6  UNL     1      26.344  27.710  37.036  1.00  0.00    -0.383 N 
ATOM     28  H62 UNL     1      25.799  27.067  36.461  1.00  0.00     0.157 HD
ATOM     29  H61 UNL     1      26.692  27.409  37.945  1.00  0.00     0.157 HD
ENDBRANCH   7  27
TORSDOF 8
ENDMDL
