MODEL 1
REMARK VINA RESULT: -5.484836244      0.000      0.000
REMARK  2 active torsions:
REMARK  status: ('A' for Active; 'I' for Inactive)
REMARK    1  A    between atoms: N1_1  and  C1_4 
REMARK    2  A    between atoms: N2_7  and  O1_8 
ROOT
HETATM    1  C1  UNL     1       8.906  32.778   7.264  1.00  0.00     0.127 A 
HETATM    2  C2  UNL     1       8.415  33.113   8.540  1.00  0.00     0.069 A 
HETATM    3  C3  UNL     1       9.033  32.630   9.671  1.00  0.00     0.146 A 
HETATM    4  N2  UNL     1      10.108  31.833   9.599  1.00  0.00    -0.062 N 
HETATM    5  C4  UNL     1      10.556  31.530   8.347  1.00  0.00     0.733 A 
HETATM    6  N3  UNL     1      11.601  30.764   7.946  1.00  0.00    -0.127 N 
ATOM      7  H3  UNL     1      12.246  30.270   8.563  1.00  0.00     0.206 HD
HETATM    8  N4  UNL     1      11.646  30.762   6.638  1.00  0.00    -0.258 N 
ATOM      9  H4  UNL     1      12.338  30.262   6.078  1.00  0.00     0.190 HD
HETATM   10  C5  UNL     1      10.646  31.514   6.135  1.00  0.00     0.231 A 
HETATM   11  N5  UNL     1      10.412  31.719   4.764  1.00  0.00    -0.061 NA
HETATM   12  N6  UNL     1       9.976  31.986   7.222  1.00  0.00    -0.100 N 
ENDROOT
BRANCH   1  13
HETATM   13  N1  UNL     1       8.313  33.240   6.269  1.00  0.00    -0.384 N 
ATOM     14  H12 UNL     1       8.735  33.838   5.558  1.00  0.00     0.157 HD
ATOM     15  H11 UNL     1       7.327  33.009   6.150  1.00  0.00     0.157 HD
ENDBRANCH   1  13
BRANCH   4  16
HETATM   16  O1  UNL     1      10.747  31.336  10.695  1.00  0.00    -0.270 OA
ATOM     17  H1  UNL     1      10.755  30.413  10.921  1.00  0.00     0.245 HD
ENDBRANCH   4  16
TORSDOF 2
ENDMDL
MODEL 2
REMARK VINA RESULT: -5.483774985      2.028      3.282
REMARK  2 active torsions:
REMARK  status: ('A' for Active; 'I' for Inactive)
REMARK    1  A    between atoms: N1_1  and  C1_4 
REMARK    2  A    between atoms: N2_7  and  O1_8 
ROOT
HETATM    1  C1  UNL     1       9.023  32.563   8.625  1.00  0.00     0.127 A 
HETATM    2  C2  UNL     1       8.294  32.893   7.467  1.00  0.00     0.069 A 
HETATM    3  C3  UNL     1       8.803  32.607   6.221  1.00  0.00     0.146 A 
HETATM    4  N2  UNL     1       9.995  32.013   6.068  1.00  0.00    -0.062 N 
HETATM    5  C4  UNL     1      10.673  31.708   7.212  1.00  0.00     0.733 A 
HETATM    6  N3  UNL     1      11.880  31.116   7.390  1.00  0.00    -0.127 N 
ATOM      7  H3  UNL     1      12.497  30.791   6.646  1.00  0.00     0.206 HD
HETATM    8  N4  UNL     1      12.122  31.029   8.673  1.00  0.00    -0.258 N 
ATOM      9  H4  UNL     1      12.963  30.622   9.082  1.00  0.00     0.190 HD
HETATM   10  C5  UNL     1      11.100  31.555   9.378  1.00  0.00     0.231 A 
HETATM   11  N5  UNL     1      11.046  31.619  10.782  1.00  0.00    -0.061 NA
HETATM   12  N6  UNL     1      10.203  31.973   8.444  1.00  0.00    -0.100 N 
ENDROOT
BRANCH   1  13
HETATM   13  N1  UNL     1       8.519  32.842   9.731  1.00  0.00    -0.384 N 
ATOM     14  H12 UNL     1       7.956  32.207  10.298  1.00  0.00     0.157 HD
ATOM     15  H11 UNL     1       8.677  33.777  10.107  1.00  0.00     0.157 HD
ENDBRANCH   1  13
BRANCH   4  16
HETATM   16  O1  UNL     1      10.533  31.714   4.852  1.00  0.00    -0.270 OA
ATOM     17  H1  UNL     1      11.454  31.825   4.646  1.00  0.00     0.245 HD
ENDBRANCH   4  16
TORSDOF 2
ENDMDL
MODEL 3
REMARK VINA RESULT: -5.483247992      4.433      5.778
REMARK  2 active torsions:
REMARK  status: ('A' for Active; 'I' for Inactive)
REMARK    1  A    between atoms: N1_1  and  C1_4 
REMARK    2  A    between atoms: N2_7  and  O1_8 
ROOT
HETATM    1  C1  UNL     1      10.302  30.784   4.361  1.00  0.00     0.127 A 
HETATM    2  C2  UNL     1       9.609  31.224   3.218  1.00  0.00     0.069 A 
HETATM    3  C3  UNL     1       9.920  30.712   1.979  1.00  0.00     0.146 A 
HETATM    4  N2  UNL     1      10.880  29.790   1.819  1.00  0.00    -0.062 N 
HETATM    5  C4  UNL     1      11.529  29.388   2.950  1.00  0.00     0.733 A 
HETATM    6  N3  UNL     1      12.529  28.488   3.118  1.00  0.00    -0.127 N 
ATOM      7  H3  UNL     1      12.971  27.945   2.376  1.00  0.00     0.206 HD
HETATM    8  N4  UNL     1      12.835  28.430   4.390  1.00  0.00    -0.258 N 
ATOM      9  H4  UNL     1      13.556  27.829   4.790  1.00  0.00     0.190 HD
HETATM   10  C5  UNL     1      12.061  29.279   5.096  1.00  0.00     0.231 A 
HETATM   11  N5  UNL     1      12.135  29.459   6.488  1.00  0.00    -0.061 NA
HETATM   12  N6  UNL     1      11.249  29.868   4.175  1.00  0.00    -0.100 N 
ENDROOT
BRANCH   1  13
HETATM   13  N1  UNL     1       9.984  31.277   5.462  1.00  0.00    -0.384 N 
ATOM     14  H12 UNL     1       9.057  31.226   5.884  1.00  0.00     0.157 HD
ATOM     15  H11 UNL     1      10.703  31.774   5.989  1.00  0.00     0.157 HD
ENDBRANCH   1  13
BRANCH   4  16
HETATM   16  O1  UNL     1      11.216  29.259   0.610  1.00  0.00    -0.270 OA
ATOM     17  H1  UNL     1      11.566  28.382   0.503  1.00  0.00     0.245 HD
ENDBRANCH   4  16
TORSDOF 2
ENDMDL
MODEL 4
REMARK VINA RESULT: -5.419325517      1.802      2.516
REMARK  2 active torsions:
REMARK  status: ('A' for Active; 'I' for Inactive)
REMARK    1  A    between atoms: N1_1  and  C1_4 
REMARK    2  A    between atoms: N2_7  and  O1_8 
ROOT
HETATM    1  C1  UNL     1       9.985  31.978   4.610  1.00  0.00     0.127 A 
HETATM    2  C2  UNL     1       9.337  33.076   5.206  1.00  0.00     0.069 A 
HETATM    3  C3  UNL     1       9.478  33.318   6.554  1.00  0.00     0.146 A 
HETATM    4  N2  UNL     1      10.226  32.528   7.335  1.00  0.00    -0.062 N 
HETATM    5  C4  UNL     1      10.840  31.474   6.723  1.00  0.00     0.733 A 
HETATM    6  N3  UNL     1      11.648  30.510   7.229  1.00  0.00    -0.127 N 
ATOM      7  H3  UNL     1      11.934  30.427   8.205  1.00  0.00     0.206 HD
HETATM    8  N4  UNL     1      12.001  29.704   6.260  1.00  0.00    -0.258 N 
ATOM      9  H4  UNL     1      12.610  28.893   6.369  1.00  0.00     0.190 HD
HETATM   10  C5  UNL     1      11.446  30.100   5.097  1.00  0.00     0.231 A 
HETATM   11  N5  UNL     1      11.624  29.450   3.864  1.00  0.00    -0.061 NA
HETATM   12  N6  UNL     1      10.723  31.210   5.409  1.00  0.00    -0.100 N 
ENDROOT
BRANCH   1  13
HETATM   13  N1  UNL     1       9.827  31.801   3.386  1.00  0.00    -0.384 N 
ATOM     14  H12 UNL     1       9.253  32.383   2.776  1.00  0.00     0.157 HD
ATOM     15  H11 UNL     1      10.306  31.011   2.951  1.00  0.00     0.157 HD
ENDBRANCH   1  13
BRANCH   4  16
HETATM   16  O1  UNL     1      10.390  32.734   8.672  1.00  0.00    -0.270 OA
ATOM     17  H1  UNL     1      11.107  33.239   9.039  1.00  0.00     0.245 HD
ENDBRANCH   4  16
TORSDOF 2
ENDMDL
MODEL 5
REMARK VINA RESULT: -5.392310960      2.784      4.038
REMARK  2 active torsions:
REMARK  status: ('A' for Active; 'I' for Inactive)
REMARK    1  A    between atoms: N1_1  and  C1_4 
REMARK    2  A    between atoms: N2_7  and  O1_8 
ROOT
HETATM    1  C1  UNL     1       9.740  32.506   5.270  1.00  0.00     0.127 A 
HETATM    2  C2  UNL     1       9.517  32.235   3.908  1.00  0.00     0.069 A 
HETATM    3  C3  UNL     1      10.099  31.138   3.314  1.00  0.00     0.146 A 
HETATM    4  N2  UNL     1      10.887  30.301   4.003  1.00  0.00    -0.062 N 
HETATM    5  C4  UNL     1      11.080  30.596   5.321  1.00  0.00     0.733 A 
HETATM    6  N3  UNL     1      11.810  29.957   6.269  1.00  0.00    -0.127 N 
ATOM      7  H3  UNL     1      12.357  29.108   6.126  1.00  0.00     0.206 HD
HETATM    8  N4  UNL     1      11.698  30.610   7.399  1.00  0.00    -0.258 N 
ATOM      9  H4  UNL     1      12.147  30.341   8.275  1.00  0.00     0.190 HD
HETATM   10  C5  UNL     1      10.903  31.687   7.239  1.00  0.00     0.231 A 
HETATM   11  N5  UNL     1      10.578  32.599   8.258  1.00  0.00    -0.061 NA
HETATM   12  N6  UNL     1      10.526  31.659   5.931  1.00  0.00    -0.100 N 
ENDROOT
BRANCH   1  13
HETATM   13  N1  UNL     1       9.191  33.512   5.763  1.00  0.00    -0.384 N 
ATOM     14  H12 UNL     1       8.276  33.874   5.494  1.00  0.00     0.157 HD
ATOM     15  H11 UNL     1       9.691  34.020   6.493  1.00  0.00     0.157 HD
ENDBRANCH   1  13
BRANCH   4  16
HETATM   16  O1  UNL     1      11.480  29.205   3.452  1.00  0.00    -0.270 OA
ATOM     17  H1  UNL     1      11.793  29.176   2.555  1.00  0.00     0.245 HD
ENDBRANCH   4  16
TORSDOF 2
ENDMDL
