MODEL 1
REMARK VINA RESULT: -5.169672635      0.000      0.000
REMARK  2 active torsions:
REMARK  status: ('A' for Active; 'I' for Inactive)
REMARK    1  A    between atoms: N1_1  and  C1_4 
REMARK    2  A    between atoms: N5_13  and  O1_14 
ROOT
HETATM    1  C1  UNL     1      10.052  32.018   5.028  1.00  0.00     0.131 A 
HETATM    2  C2  UNL     1       9.395  32.994   5.749  1.00  0.00     0.155 A 
HETATM    3  N2  UNL     1       9.547  33.038   7.085  1.00  0.00    -0.193 N 
ATOM      4  H2  UNL     1       9.059  33.760   7.613  1.00  0.00     0.183 HD
HETATM    5  C3  UNL     1      10.325  32.158   7.749  1.00  0.00     0.746 A 
HETATM    6  N3  UNL     1      10.964  31.207   7.043  1.00  0.00    -0.015 N 
HETATM    7  N4  UNL     1      11.661  30.468   7.915  1.00  0.00    -0.257 N 
ATOM      8  H4  UNL     1      12.248  29.670   7.674  1.00  0.00     0.190 HD
HETATM    9  C4  UNL     1      11.467  30.941   9.151  1.00  0.00     0.251 A 
HETATM   10  N5  UNL     1      10.635  31.993   9.050  1.00  0.00    -0.043 N 
HETATM   11  N6  UNL     1      10.822  31.155   5.735  1.00  0.00    -0.248 N 
ATOM     12  H6  UNL     1      11.319  30.425   5.225  1.00  0.00     0.191 HD
ENDROOT
BRANCH   1  13
HETATM   13  N1  UNL     1       9.962  31.901   3.741  1.00  0.00    -0.383 N 
ATOM     14  H12 UNL     1      10.493  31.177   3.257  1.00  0.00     0.157 HD
ATOM     15  H11 UNL     1       9.380  32.506   3.161  1.00  0.00     0.157 HD
ENDBRANCH   1  13
BRANCH  10  16
HETATM   16  O1  UNL     1      10.165  32.781  10.063  1.00  0.00    -0.268 OA
ATOM     17  H1  UNL     1      10.675  33.449  10.505  1.00  0.00     0.246 HD
ENDBRANCH  10  16
TORSDOF 2
ENDMDL
MODEL 2
REMARK VINA RESULT: -4.992368961      2.226      3.331
REMARK  2 active torsions:
REMARK  status: ('A' for Active; 'I' for Inactive)
REMARK    1  A    between atoms: N1_1  and  C1_4 
REMARK    2  A    between atoms: N5_13  and  O1_14 
ROOT
HETATM    1  C1  UNL     1       8.180  32.609   8.835  1.00  0.00     0.131 A 
HETATM    2  C2  UNL     1       8.487  32.310   7.523  1.00  0.00     0.155 A 
HETATM    3  N2  UNL     1       9.732  31.908   7.216  1.00  0.00    -0.193 N 
ATOM      4  H2  UNL     1       9.955  31.689   6.245  1.00  0.00     0.183 HD
HETATM    5  C3  UNL     1      10.699  31.783   8.150  1.00  0.00     0.746 A 
HETATM    6  N3  UNL     1      10.396  32.075   9.428  1.00  0.00    -0.015 N 
HETATM    7  N4  UNL     1      11.504  31.877  10.152  1.00  0.00    -0.257 N 
ATOM      8  H4  UNL     1      11.582  32.016  11.159  1.00  0.00     0.190 HD
HETATM    9  C4  UNL     1      12.492  31.467   9.348  1.00  0.00     0.251 A 
HETATM   10  N5  UNL     1      11.992  31.408   8.101  1.00  0.00    -0.043 N 
HETATM   11  N6  UNL     1       9.179  32.471   9.740  1.00  0.00    -0.248 N 
ATOM     12  H6  UNL     1       8.977  32.684  10.717  1.00  0.00     0.191 HD
ENDROOT
BRANCH   1  13
HETATM   13  N1  UNL     1       7.007  33.003   9.221  1.00  0.00    -0.383 N 
ATOM     14  H12 UNL     1       6.191  32.414   9.055  1.00  0.00     0.157 HD
ATOM     15  H11 UNL     1       6.841  33.893   9.693  1.00  0.00     0.157 HD
ENDBRANCH   1  13
BRANCH  10  16
HETATM   16  O1  UNL     1      12.647  31.039   6.960  1.00  0.00    -0.268 OA
ATOM     17  H1  UNL     1      12.226  30.899   6.120  1.00  0.00     0.246 HD
ENDBRANCH  10  16
TORSDOF 2
ENDMDL
MODEL 3
REMARK VINA RESULT: -4.939719682      2.520      4.183
REMARK  2 active torsions:
REMARK  status: ('A' for Active; 'I' for Inactive)
REMARK    1  A    between atoms: N1_1  and  C1_4 
REMARK    2  A    between atoms: N5_13  and  O1_14 
ROOT
HETATM    1  C1  UNL     1      11.966  31.590   9.964  1.00  0.00     0.131 A 
HETATM    2  C2  UNL     1      12.144  31.991   8.656  1.00  0.00     0.155 A 
HETATM    3  N2  UNL     1      11.065  32.237   7.892  1.00  0.00    -0.193 N 
ATOM      4  H2  UNL     1      11.201  32.531   6.926  1.00  0.00     0.183 HD
HETATM    5  C3  UNL     1       9.806  32.107   8.363  1.00  0.00     0.746 A 
HETATM    6  N3  UNL     1       9.637  31.716   9.639  1.00  0.00    -0.015 N 
HETATM    7  N4  UNL     1       8.318  31.662   9.864  1.00  0.00    -0.257 N 
ATOM      8  H4  UNL     1       7.881  31.397  10.746  1.00  0.00     0.190 HD
HETATM    9  C4  UNL     1       7.664  32.011   8.751  1.00  0.00     0.251 A 
HETATM   10  N5  UNL     1       8.589  32.288   7.815  1.00  0.00    -0.043 N 
HETATM   11  N6  UNL     1      10.686  31.472  10.396  1.00  0.00    -0.248 N 
ATOM     12  H6  UNL     1      10.528  31.179  11.360  1.00  0.00     0.191 HD
ENDROOT
BRANCH   1  13
HETATM   13  N1  UNL     1      12.947  31.332  10.771  1.00  0.00    -0.383 N 
ATOM     14  H12 UNL     1      13.892  31.220  10.404  1.00  0.00     0.157 HD
ATOM     15  H11 UNL     1      12.833  31.230  11.779  1.00  0.00     0.157 HD
ENDBRANCH   1  13
BRANCH  10  16
HETATM   16  O1  UNL     1       8.373  32.686   6.525  1.00  0.00    -0.268 OA
ATOM     17  H1  UNL     1       8.379  32.104   5.775  1.00  0.00     0.246 HD
ENDBRANCH  10  16
TORSDOF 2
ENDMDL
MODEL 4
REMARK VINA RESULT: -4.912174189      1.105      1.105
REMARK  2 active torsions:
REMARK  status: ('A' for Active; 'I' for Inactive)
REMARK    1  A    between atoms: N1_1  and  C1_4 
REMARK    2  A    between atoms: N5_13  and  O1_14 
ROOT
HETATM    1  C1  UNL     1       9.691  31.492   5.923  1.00  0.00     0.131 A 
HETATM    2  C2  UNL     1       8.959  32.222   6.837  1.00  0.00     0.155 A 
HETATM    3  N2  UNL     1       9.504  32.512   8.032  1.00  0.00    -0.193 N 
ATOM      4  H2  UNL     1       8.959  33.051   8.704  1.00  0.00     0.183 HD
HETATM    5  C3  UNL     1      10.749  32.114   8.371  1.00  0.00     0.746 A 
HETATM    6  N3  UNL     1      11.458  31.402   7.477  1.00  0.00    -0.015 N 
HETATM    7  N4  UNL     1      12.642  31.130   8.039  1.00  0.00    -0.257 N 
ATOM      8  H4  UNL     1      13.396  30.603   7.600  1.00  0.00     0.190 HD
HETATM    9  C4  UNL     1      12.682  31.659   9.268  1.00  0.00     0.251 A 
HETATM   10  N5  UNL     1      11.503  32.272   9.476  1.00  0.00    -0.043 N 
HETATM   11  N6  UNL     1      10.935  31.112   6.304  1.00  0.00    -0.248 N 
ATOM     12  H6  UNL     1      11.497  30.573   5.645  1.00  0.00     0.191 HD
ENDROOT
BRANCH   1  13
HETATM   13  N1  UNL     1       9.246  31.167   4.750  1.00  0.00    -0.383 N 
ATOM     14  H12 UNL     1       8.452  30.533   4.663  1.00  0.00     0.157 HD
ATOM     15  H11 UNL     1       9.651  31.514   3.880  1.00  0.00     0.157 HD
ENDBRANCH   1  13
BRANCH  10  16
HETATM   16  O1  UNL     1      11.103  32.946  10.595  1.00  0.00    -0.268 OA
ATOM     17  H1  UNL     1      11.063  33.892  10.667  1.00  0.00     0.246 HD
ENDBRANCH  10  16
TORSDOF 2
ENDMDL
MODEL 5
REMARK VINA RESULT: -4.864468701      1.352      2.308
REMARK  2 active torsions:
REMARK  status: ('A' for Active; 'I' for Inactive)
REMARK    1  A    between atoms: N1_1  and  C1_4 
REMARK    2  A    between atoms: N5_13  and  O1_14 
ROOT
HETATM    1  C1  UNL     1       9.732  31.994   5.382  1.00  0.00     0.131 A 
HETATM    2  C2  UNL     1      10.808  31.446   6.049  1.00  0.00     0.155 A 
HETATM    3  N2  UNL     1      10.828  31.468   7.394  1.00  0.00    -0.193 N 
ATOM      4  H2  UNL     1      11.627  31.063   7.882  1.00  0.00     0.183 HD
HETATM    5  C3  UNL     1       9.826  32.009   8.119  1.00  0.00     0.746 A 
HETATM    6  N3  UNL     1       8.778  32.542   7.465  1.00  0.00    -0.015 N 
HETATM    7  N4  UNL     1       7.930  33.006   8.391  1.00  0.00    -0.257 N 
ATOM      8  H4  UNL     1       7.041  33.466   8.198  1.00  0.00     0.190 HD
HETATM    9  C4  UNL     1       8.432  32.773   9.609  1.00  0.00     0.251 A 
HETATM   10  N5  UNL     1       9.613  32.151   9.442  1.00  0.00    -0.043 N 
HETATM   11  N6  UNL     1       8.748  32.526   6.149  1.00  0.00    -0.248 N 
ATOM     12  H6  UNL     1       7.940  32.936   5.680  1.00  0.00     0.191 HD
ENDROOT
BRANCH   1  13
HETATM   13  N1  UNL     1       9.629  32.017   4.091  1.00  0.00    -0.383 N 
ATOM     14  H12 UNL     1      10.457  32.177   3.517  1.00  0.00     0.157 HD
ATOM     15  H11 UNL     1       8.747  31.882   3.596  1.00  0.00     0.157 HD
ENDBRANCH   1  13
BRANCH  10  16
HETATM   16  O1  UNL     1      10.473  31.725  10.414  1.00  0.00    -0.268 OA
ATOM     17  H1  UNL     1      10.584  32.149  11.257  1.00  0.00     0.246 HD
ENDBRANCH  10  16
TORSDOF 2
ENDMDL
