MODEL 1
REMARK VINA RESULT: -8.834347652      0.000      0.000
REMARK  0 active torsions:
REMARK  status: ('A' for Active; 'I' for Inactive)
ROOT
HETATM    1  C1  UNL     1      24.935  -8.614  43.580  1.00  0.00     0.165 C 
HETATM    2  N1  UNL     1      23.577  -9.080  43.660  1.00  0.00    -0.320 N 
HETATM    3  S1  UNL     1      23.194 -10.170  44.928  1.00  0.00    -0.023 SA
HETATM    4  C2  UNL     1      21.556 -10.393  44.584  1.00  0.00     0.084 A 
HETATM    5  C3  UNL     1      21.363  -9.598  43.476  1.00  0.00     0.029 A 
HETATM    6  C4  UNL     1      20.104  -9.502  42.862  1.00  0.00     0.073 A 
HETATM    7  N2  UNL     1      19.023 -10.176  43.318  1.00  0.00    -0.352 N 
ATOM      8  H2  UNL     1      19.137 -10.773  44.137  1.00  0.00     0.166 HD
HETATM    9  C5  UNL     1      17.806 -10.101  42.749  1.00  0.00     0.059 A 
HETATM   10  C6  UNL     1      16.600 -10.666  43.016  1.00  0.00     0.032 A 
HETATM   11  C7  UNL     1      15.702 -10.226  42.095  1.00  0.00     0.005 A 
HETATM   12  C8  UNL     1      16.318  -9.362  41.210  1.00  0.00     0.032 A 
HETATM   13  C9  UNL     1      17.632  -9.246  41.570  1.00  0.00     0.059 A 
HETATM   14  N3  UNL     1      18.711  -8.601  41.149  1.00  0.00    -0.352 N 
ATOM     15  H3  UNL     1      18.631  -7.997  40.332  1.00  0.00     0.166 HD
HETATM   16  C10 UNL     1      19.908  -8.711  41.757  1.00  0.00     0.072 A 
HETATM   17  C11 UNL     1      20.992  -8.019  41.277  1.00  0.00     0.005 A 
HETATM   18  C12 UNL     1      20.745  -7.226  40.151  1.00  0.00     0.014 A 
HETATM   19  C13 UNL     1      21.803  -6.519  39.643  1.00  0.00     0.001 A 
HETATM   20  C14 UNL     1      23.051  -6.560  40.180  1.00  0.00     0.001 A 
HETATM   21  C15 UNL     1      23.263  -7.371  41.317  1.00  0.00     0.014 A 
HETATM   22  C16 UNL     1      22.244  -8.104  41.874  1.00  0.00     0.005 A 
HETATM   23  C17 UNL     1      22.442  -8.924  43.017  1.00  0.00     0.064 A 
ENDROOT
TORSDOF 0
ENDMDL
MODEL 2
REMARK VINA RESULT: -8.496609475      1.675      3.479
REMARK  0 active torsions:
REMARK  status: ('A' for Active; 'I' for Inactive)
ROOT
HETATM    1  C1  UNL     1      24.797  -7.046  41.418  1.00  0.00     0.165 C 
HETATM    2  N1  UNL     1      23.399  -7.295  41.194  1.00  0.00    -0.320 N 
HETATM    3  S1  UNL     1      22.667  -6.520  39.851  1.00  0.00    -0.023 SA
HETATM    4  C2  UNL     1      21.100  -7.120  40.035  1.00  0.00     0.084 A 
HETATM    5  C3  UNL     1      21.204  -7.916  41.154  1.00  0.00     0.029 A 
HETATM    6  C4  UNL     1      20.094  -8.614  41.655  1.00  0.00     0.073 A 
HETATM    7  N2  UNL     1      18.874  -8.546  41.073  1.00  0.00    -0.352 N 
ATOM      8  H2  UNL     1      18.767  -7.964  40.243  1.00  0.00     0.166 HD
HETATM    9  C5  UNL     1      17.794  -9.204  41.532  1.00  0.00     0.059 A 
HETATM   10  C6  UNL     1      16.499  -9.293  41.133  1.00  0.00     0.032 A 
HETATM   11  C7  UNL     1      15.837 -10.119  41.986  1.00  0.00     0.005 A 
HETATM   12  C8  UNL     1      16.701 -10.582  42.959  1.00  0.00     0.032 A 
HETATM   13  C9  UNL     1      17.936 -10.044  42.726  1.00  0.00     0.059 A 
HETATM   14  N3  UNL     1      19.144 -10.088  43.271  1.00  0.00    -0.352 N 
ATOM     15  H3  UNL     1      19.285 -10.661  44.102  1.00  0.00     0.166 HD
HETATM   16  C10 UNL     1      20.194  -9.408  42.770  1.00  0.00     0.072 A 
HETATM   17  C11 UNL     1      21.423  -9.491  43.376  1.00  0.00     0.005 A 
HETATM   18  C12 UNL     1      21.477 -10.311  44.508  1.00  0.00     0.014 A 
HETATM   19  C13 UNL     1      22.689 -10.420  45.140  1.00  0.00     0.001 A 
HETATM   20  C14 UNL     1      23.808  -9.776  44.718  1.00  0.00     0.001 A 
HETATM   21  C15 UNL     1      23.715  -8.958  43.571  1.00  0.00     0.014 A 
HETATM   22  C16 UNL     1      22.531  -8.806  42.892  1.00  0.00     0.005 A 
HETATM   23  C17 UNL     1      22.423  -7.986  41.738  1.00  0.00     0.064 A 
ENDROOT
TORSDOF 0
ENDMDL
MODEL 3
REMARK VINA RESULT: -8.419131139      2.517      3.989
REMARK  0 active torsions:
REMARK  status: ('A' for Active; 'I' for Inactive)
ROOT
HETATM    1  C1  UNL     1      21.480  -7.032  41.746  1.00  0.00     0.165 C 
HETATM    2  N1  UNL     1      20.643  -8.200  41.718  1.00  0.00    -0.320 N 
HETATM    3  S1  UNL     1      21.392  -9.696  41.340  1.00  0.00    -0.023 SA
HETATM    4  C2  UNL     1      20.032 -10.692  41.437  1.00  0.00     0.084 A 
HETATM    5  C3  UNL     1      19.027  -9.810  41.766  1.00  0.00     0.029 A 
HETATM    6  C4  UNL     1      17.705 -10.249  41.943  1.00  0.00     0.073 A 
HETATM    7  N2  UNL     1      17.349 -11.547  41.803  1.00  0.00    -0.352 N 
ATOM      8  H2  UNL     1      18.073 -12.223  41.560  1.00  0.00     0.166 HD
HETATM    9  C5  UNL     1      16.090 -11.994  41.968  1.00  0.00     0.059 A 
HETATM   10  C6  UNL     1      15.501 -13.215  41.885  1.00  0.00     0.032 A 
HETATM   11  C7  UNL     1      14.175 -13.076  42.155  1.00  0.00     0.005 A 
HETATM   12  C8  UNL     1      13.884 -11.752  42.420  1.00  0.00     0.032 A 
HETATM   13  C9  UNL     1      15.041 -11.031  42.318  1.00  0.00     0.059 A 
HETATM   14  N3  UNL     1      15.424  -9.768  42.447  1.00  0.00    -0.352 N 
ATOM     15  H3  UNL     1      14.725  -9.067  42.689  1.00  0.00     0.166 HD
HETATM   16  C10 UNL     1      16.700  -9.373  42.270  1.00  0.00     0.072 A 
HETATM   17  C11 UNL     1      17.040  -8.051  42.417  1.00  0.00     0.005 A 
HETATM   18  C12 UNL     1      15.984  -7.196  42.751  1.00  0.00     0.014 A 
HETATM   19  C13 UNL     1      16.285  -5.867  42.906  1.00  0.00     0.001 A 
HETATM   20  C14 UNL     1      17.538  -5.366  42.751  1.00  0.00     0.001 A 
HETATM   21  C15 UNL     1      18.578  -6.259  42.414  1.00  0.00     0.014 A 
HETATM   22  C16 UNL     1      18.343  -7.602  42.244  1.00  0.00     0.005 A 
HETATM   23  C17 UNL     1      19.380  -8.512  41.905  1.00  0.00     0.064 A 
ENDROOT
TORSDOF 0
ENDMDL
MODEL 4
REMARK VINA RESULT: -8.324732588      3.046      5.989
REMARK  0 active torsions:
REMARK  status: ('A' for Active; 'I' for Inactive)
ROOT
HETATM    1  C1  UNL     1      13.238  -8.584  43.891  1.00  0.00     0.165 C 
HETATM    2  N1  UNL     1      14.568  -9.101  44.061  1.00  0.00    -0.320 N 
HETATM    3  S1  UNL     1      14.733 -10.591  44.894  1.00  0.00    -0.023 SA
HETATM    4  C2  UNL     1      16.413 -10.739  44.820  1.00  0.00     0.084 A 
HETATM    5  C3  UNL     1      16.793  -9.603  44.139  1.00  0.00     0.029 A 
HETATM    6  C4  UNL     1      18.143  -9.340  43.863  1.00  0.00     0.073 A 
HETATM    7  N2  UNL     1      19.137 -10.175  44.246  1.00  0.00    -0.352 N 
ATOM      8  H2  UNL     1      18.885 -11.023  44.753  1.00  0.00     0.166 HD
HETATM    9  C5  UNL     1      20.439  -9.946  43.994  1.00  0.00     0.059 A 
HETATM   10  C6  UNL     1      21.588 -10.617  44.268  1.00  0.00     0.032 A 
HETATM   11  C7  UNL     1      22.634  -9.908  43.767  1.00  0.00     0.005 A 
HETATM   12  C8  UNL     1      22.174  -8.757  43.155  1.00  0.00     0.032 A 
HETATM   13  C9  UNL     1      20.812  -8.729  43.266  1.00  0.00     0.059 A 
HETATM   14  N3  UNL     1      19.815  -7.933  42.906  1.00  0.00    -0.352 N 
ATOM     15  H3  UNL     1      20.032  -7.076  42.399  1.00  0.00     0.166 HD
HETATM   16  C10 UNL     1      18.526  -8.209  43.184  1.00  0.00     0.072 A 
HETATM   17  C11 UNL     1      17.533  -7.347  42.787  1.00  0.00     0.005 A 
HETATM   18  C12 UNL     1      17.970  -6.210  42.098  1.00  0.00     0.014 A 
HETATM   19  C13 UNL     1      17.008  -5.326  41.684  1.00  0.00     0.001 A 
HETATM   20  C14 UNL     1      15.681  -5.510  41.913  1.00  0.00     0.001 A 
HETATM   21  C15 UNL     1      15.278  -6.670  42.611  1.00  0.00     0.014 A 
HETATM   22  C16 UNL     1      16.192  -7.595  43.052  1.00  0.00     0.005 A 
HETATM   23  C17 UNL     1      15.802  -8.766  43.755  1.00  0.00     0.064 A 
ENDROOT
TORSDOF 0
ENDMDL
MODEL 5
REMARK VINA RESULT: -8.308816216      0.905      1.070
REMARK  0 active torsions:
REMARK  status: ('A' for Active; 'I' for Inactive)
ROOT
HETATM    1  C1  UNL     1      24.524  -8.378  42.816  1.00  0.00     0.165 C 
HETATM    2  N1  UNL     1      23.260  -8.901  43.258  1.00  0.00    -0.320 N 
HETATM    3  S1  UNL     1      23.269  -9.918  44.639  1.00  0.00    -0.023 SA
HETATM    4  C2  UNL     1      21.614 -10.242  44.726  1.00  0.00     0.084 A 
HETATM    5  C3  UNL     1      21.105  -9.535  43.659  1.00  0.00     0.029 A 
HETATM    6  C4  UNL     1      19.731  -9.541  43.373  1.00  0.00     0.073 A 
HETATM    7  N2  UNL     1      18.839 -10.232  44.121  1.00  0.00    -0.352 N 
ATOM      8  H2  UNL     1      19.188 -10.765  44.917  1.00  0.00     0.166 HD
HETATM    9  C5  UNL     1      17.518 -10.255  43.869  1.00  0.00     0.059 A 
HETATM   10  C6  UNL     1      16.452 -10.856  44.458  1.00  0.00     0.032 A 
HETATM   11  C7  UNL     1      15.329 -10.524  43.767  1.00  0.00     0.005 A 
HETATM   12  C8  UNL     1      15.654  -9.695  42.711  1.00  0.00     0.032 A 
HETATM   13  C9  UNL     1      17.005  -9.492  42.725  1.00  0.00     0.059 A 
HETATM   14  N3  UNL     1      17.905  -8.827  42.015  1.00  0.00    -0.352 N 
ATOM     15  H3  UNL     1      17.590  -8.285  41.211  1.00  0.00     0.166 HD
HETATM   16  C10 UNL     1      19.220  -8.838  42.310  1.00  0.00     0.072 A 
HETATM   17  C11 UNL     1      20.107  -8.130  41.538  1.00  0.00     0.005 A 
HETATM   18  C12 UNL     1      19.541  -7.429  40.468  1.00  0.00     0.014 A 
HETATM   19  C13 UNL     1      20.396  -6.709  39.674  1.00  0.00     0.001 A 
HETATM   20  C14 UNL     1      21.738  -6.654  39.885  1.00  0.00     0.001 A 
HETATM   21  C15 UNL     1      22.272  -7.374  40.976  1.00  0.00     0.014 A 
HETATM   22  C16 UNL     1      21.470  -8.114  41.809  1.00  0.00     0.005 A 
HETATM   23  C17 UNL     1      21.994  -8.843  42.910  1.00  0.00     0.064 A 
ENDROOT
TORSDOF 0
ENDMDL
