MODEL 1
REMARK VINA RESULT: -3.577987928      0.000      0.000
REMARK  11 active torsions:
REMARK  status: ('A' for Active; 'I' for Inactive)
REMARK    1  A    between atoms: N2_3  and  O1_5 
REMARK    2  A    between atoms: O1_5  and  C2_6 
REMARK    3  A    between atoms: C3_9  and  N4_10 
REMARK    4  A    between atoms: C6_18  and  C7_19 
REMARK    5  A    between atoms: C7_19  and  C8_20 
REMARK    6  A    between atoms: C7_19  and  C14_37 
REMARK    7  A    between atoms: C8_20  and  N7_21 
REMARK    8  A    between atoms: C11_26  and  N9_27 
REMARK    9  A    between atoms: C14_37  and  O3_38 
REMARK   10  A    between atoms: C14_37  and  C15_40 
REMARK   11  A    between atoms: C15_40  and  O4_41 
ROOT
HETATM    1  N1  UNL     1      55.943  13.499  25.662  1.00  0.00    -0.170 NA
HETATM    2  C1  UNL     1      56.340  13.231  26.724  1.00  0.00     0.203 C 
HETATM    3  N2  UNL     1      56.815  12.894  27.981  1.00  0.00    -0.194 N 
ATOM      4  H2  UNL     1      57.686  13.298  28.325  1.00  0.00     0.207 HD
ENDROOT
BRANCH   3   5
HETATM    5  O1  UNL     1      56.114  12.019  28.756  1.00  0.00    -0.208 OA
BRANCH   5   6
HETATM    6  C2  UNL     1      55.916  10.724  28.325  1.00  0.00     0.196 A 
HETATM    7  N3  UNL     1      54.686  10.310  27.895  1.00  0.00    -0.318 N 
HETATM    8  C3  UNL     1      54.443   9.069  27.474  1.00  0.00     0.139 A 
ATOM      9  H3  UNL     1      53.919  10.982  27.898  1.00  0.00     0.169 HD
HETATM   10  C4  UNL     1      55.462   8.153  27.464  1.00  0.00     0.158 A 
HETATM   11  C5  UNL     1      55.280   6.784  27.021  1.00  0.00     0.121 C 
HETATM   12  N6  UNL     1      56.670   8.555  27.884  1.00  0.00    -0.344 N 
HETATM   13  N5  UNL     1      55.137   5.689  26.686  1.00  0.00    -0.190 NA
HETATM   14  C6  UNL     1      56.926   9.815  28.313  1.00  0.00     0.076 A 
ATOM     15  H6  UNL     1      57.434   7.879  27.879  1.00  0.00     0.167 HD
BRANCH   8  16
HETATM   16  N4  UNL     1      53.286   8.668  27.066  1.00  0.00    -0.383 N 
ATOM     17  H42 UNL     1      52.591   9.385  26.859  1.00  0.00     0.157 HD
ATOM     18  H41 UNL     1      53.040   7.686  26.944  1.00  0.00     0.157 HD
ENDBRANCH   8  16
BRANCH  14  19
HETATM   19  C7  UNL     1      58.341  10.204  28.741  1.00  0.00     0.111 C 
BRANCH  19  20
HETATM   20  C8  UNL     1      58.253  10.352  30.233  1.00  0.00     0.102 C 
BRANCH  20  21
HETATM   21  N7  UNL     1      58.471  11.599  30.827  1.00  0.00    -0.279 N 
HETATM   22  C9  UNL     1      57.594  12.518  31.246  1.00  0.00     0.148 A 
HETATM   23  C10 UNL     1      58.248  13.608  31.772  1.00  0.00     0.100 A 
HETATM   24  N8  UNL     1      57.863  14.776  32.317  1.00  0.00    -0.188 N 
HETATM   25  C13 UNL     1      59.602  13.306  31.653  1.00  0.00     0.146 A 
HETATM   26  C11 UNL     1      58.749  15.684  32.762  1.00  0.00     0.679 A 
ATOM     27  H8  UNL     1      56.867  14.980  32.395  1.00  0.00     0.184 HD
HETATM   28  N10 UNL     1      60.054  15.392  32.646  1.00  0.00    -0.154 N 
HETATM   29  C12 UNL     1      60.479  14.240  32.108  1.00  0.00     0.290 A 
ATOM     30  H10 UNL     1      60.743  16.067  32.976  1.00  0.00     0.187 HD
HETATM   31  O2  UNL     1      61.708  13.988  32.010  1.00  0.00    -0.265 OA
HETATM   32  N11 UNL     1      59.681  12.105  31.087  1.00  0.00    -0.288 N 
ATOM     33  H11 UNL     1      60.558  11.628  30.876  1.00  0.00     0.188 HD
BRANCH  26  34
HETATM   34  N9  UNL     1      58.366  16.811  33.287  1.00  0.00    -0.234 N 
ATOM     35  H92 UNL     1      57.757  17.445  32.769  1.00  0.00     0.174 HD
ATOM     36  H91 UNL     1      58.658  17.092  34.223  1.00  0.00     0.174 HD
ENDBRANCH  26  34
ENDBRANCH  20  21
ENDBRANCH  19  20
BRANCH  19  37
HETATM   37  C14 UNL     1      59.228   9.135  28.233  1.00  0.00     0.156 C 
BRANCH  37  38
HETATM   38  O3  UNL     1      59.620   8.169  29.128  1.00  0.00    -0.392 OA
ATOM     39  H3  UNL     1      59.036   7.429  29.251  1.00  0.00     0.210 HD
ENDBRANCH  37  38
BRANCH  37  40
HETATM   40  C15 UNL     1      60.274   9.513  27.228  1.00  0.00     0.196 C 
BRANCH  40  41
HETATM   41  O4  UNL     1      61.213   8.440  27.089  1.00  0.00    -0.398 OA
ATOM     42  H4  UNL     1      62.073   8.795  26.901  1.00  0.00     0.209 HD
ENDBRANCH  40  41
ENDBRANCH  37  40
ENDBRANCH  19  37
ENDBRANCH  14  19
ENDBRANCH   5   6
ENDBRANCH   3   5
TORSDOF 11
ENDMDL
MODEL 2
REMARK VINA RESULT: -3.574642511      3.857      6.763
REMARK  11 active torsions:
REMARK  status: ('A' for Active; 'I' for Inactive)
REMARK    1  A    between atoms: N2_3  and  O1_5 
REMARK    2  A    between atoms: O1_5  and  C2_6 
REMARK    3  A    between atoms: C3_9  and  N4_10 
REMARK    4  A    between atoms: C6_18  and  C7_19 
REMARK    5  A    between atoms: C7_19  and  C8_20 
REMARK    6  A    between atoms: C7_19  and  C14_37 
REMARK    7  A    between atoms: C8_20  and  N7_21 
REMARK    8  A    between atoms: C11_26  and  N9_27 
REMARK    9  A    between atoms: C14_37  and  O3_38 
REMARK   10  A    between atoms: C14_37  and  C15_40 
REMARK   11  A    between atoms: C15_40  and  O4_41 
ROOT
HETATM    1  N1  UNL     1      55.217   4.648  26.336  1.00  0.00    -0.170 NA
HETATM    2  C1  UNL     1      55.740   5.683  26.221  1.00  0.00     0.203 C 
HETATM    3  N2  UNL     1      56.373   6.909  26.101  1.00  0.00    -0.194 N 
ATOM      4  H2  UNL     1      57.008   7.084  25.321  1.00  0.00     0.207 HD
ENDROOT
BRANCH   3   5
HETATM    5  O1  UNL     1      56.145   7.881  27.028  1.00  0.00    -0.208 OA
BRANCH   5   6
HETATM    6  C2  UNL     1      57.162   8.281  27.869  1.00  0.00     0.196 A 
HETATM    7  N3  UNL     1      58.460   7.938  27.611  1.00  0.00    -0.318 N 
HETATM    8  C3  UNL     1      59.477   8.296  28.395  1.00  0.00     0.139 A 
ATOM      9  H3  UNL     1      58.659   7.382  26.779  1.00  0.00     0.169 HD
HETATM   10  C4  UNL     1      59.228   9.043  29.517  1.00  0.00     0.158 A 
HETATM   11  C5  UNL     1      60.277   9.472  30.421  1.00  0.00     0.121 C 
HETATM   12  N6  UNL     1      57.956   9.381  29.774  1.00  0.00    -0.344 N 
HETATM   13  N5  UNL     1      61.106   9.801  31.153  1.00  0.00    -0.190 NA
HETATM   14  C6  UNL     1      56.916   9.022  28.981  1.00  0.00     0.076 A 
ATOM     15  H6  UNL     1      57.762   9.937  30.607  1.00  0.00     0.167 HD
BRANCH   8  16
HETATM   16  N4  UNL     1      60.705   7.978  28.160  1.00  0.00    -0.383 N 
ATOM     17  H42 UNL     1      60.886   7.384  27.350  1.00  0.00     0.157 HD
ATOM     18  H41 UNL     1      61.489   8.288  28.735  1.00  0.00     0.157 HD
ENDBRANCH   8  16
BRANCH  14  19
HETATM   19  C7  UNL     1      55.500   9.481  29.325  1.00  0.00     0.111 C 
BRANCH  19  20
HETATM   20  C8  UNL     1      55.581  10.981  29.318  1.00  0.00     0.102 C 
BRANCH  20  21
HETATM   21  N7  UNL     1      55.582  11.676  28.104  1.00  0.00    -0.279 N 
HETATM   22  C9  UNL     1      56.596  12.234  27.433  1.00  0.00     0.148 A 
HETATM   23  C10 UNL     1      56.145  12.822  26.273  1.00  0.00     0.100 A 
HETATM   24  N8  UNL     1      56.721  13.499  25.264  1.00  0.00    -0.188 N 
HETATM   25  C13 UNL     1      54.772  12.592  26.266  1.00  0.00     0.146 A 
HETATM   26  C11 UNL     1      56.013  13.973  24.225  1.00  0.00     0.679 A 
ATOM     27  H8  UNL     1      57.729  13.659  25.288  1.00  0.00     0.184 HD
HETATM   28  N10 UNL     1      54.688  13.751  24.219  1.00  0.00    -0.154 N 
HETATM   29  C12 UNL     1      54.076  13.082  25.205  1.00  0.00     0.290 A 
ATOM     30  H10 UNL     1      54.132  14.103  23.440  1.00  0.00     0.187 HD
HETATM   31  O2  UNL     1      52.833  12.886  25.178  1.00  0.00    -0.265 OA
HETATM   32  N11 UNL     1      54.489  11.910  27.372  1.00  0.00    -0.288 N 
ATOM     33  H11 UNL     1      53.551  11.602  27.630  1.00  0.00     0.188 HD
BRANCH  26  34
HETATM   34  N9  UNL     1      56.580  14.627  23.254  1.00  0.00    -0.234 N 
ATOM     35  H92 UNL     1      57.595  14.630  23.153  1.00  0.00     0.174 HD
ATOM     36  H91 UNL     1      56.033  15.150  22.570  1.00  0.00     0.174 HD
ENDBRANCH  26  34
ENDBRANCH  20  21
ENDBRANCH  19  20
BRANCH  19  37
HETATM   37  C14 UNL     1      54.615   8.862  28.314  1.00  0.00     0.156 C 
BRANCH  37  38
HETATM   38  O3  UNL     1      54.136   9.677  27.317  1.00  0.00    -0.392 OA
ATOM     39  H3  UNL     1      54.749   9.939  26.640  1.00  0.00     0.210 HD
ENDBRANCH  37  38
BRANCH  37  40
HETATM   40  C15 UNL     1      53.648   7.815  28.780  1.00  0.00     0.196 C 
BRANCH  40  41
HETATM   41  O4  UNL     1      52.659   7.595  27.767  1.00  0.00    -0.398 OA
ATOM     42  H4  UNL     1      51.957   8.227  27.868  1.00  0.00     0.209 HD
ENDBRANCH  40  41
ENDBRANCH  37  40
ENDBRANCH  19  37
ENDBRANCH  14  19
ENDBRANCH   5   6
ENDBRANCH   3   5
TORSDOF 11
ENDMDL
MODEL 3
REMARK VINA RESULT: -3.062813730      1.753      2.075
REMARK  11 active torsions:
REMARK  status: ('A' for Active; 'I' for Inactive)
REMARK    1  A    between atoms: N2_3  and  O1_5 
REMARK    2  A    between atoms: O1_5  and  C2_6 
REMARK    3  A    between atoms: C3_9  and  N4_10 
REMARK    4  A    between atoms: C6_18  and  C7_19 
REMARK    5  A    between atoms: C7_19  and  C8_20 
REMARK    6  A    between atoms: C7_19  and  C14_37 
REMARK    7  A    between atoms: C8_20  and  N7_21 
REMARK    8  A    between atoms: C11_26  and  N9_27 
REMARK    9  A    between atoms: C14_37  and  O3_38 
REMARK   10  A    between atoms: C14_37  and  C15_40 
REMARK   11  A    between atoms: C15_40  and  O4_41 
ROOT
HETATM    1  N1  UNL     1      55.958  13.558  25.482  1.00  0.00    -0.170 NA
HETATM    2  C1  UNL     1      56.625  13.752  26.418  1.00  0.00     0.203 C 
HETATM    3  N2  UNL     1      57.434  13.971  27.521  1.00  0.00    -0.194 N 
ATOM      4  H2  UNL     1      57.781  14.909  27.723  1.00  0.00     0.207 HD
ENDROOT
BRANCH   3   5
HETATM    5  O1  UNL     1      57.763  12.930  28.335  1.00  0.00    -0.208 OA
BRANCH   5   6
HETATM    6  C2  UNL     1      56.925  11.839  28.429  1.00  0.00     0.196 A 
HETATM    7  N3  UNL     1      55.655  11.886  27.927  1.00  0.00    -0.318 N 
HETATM    8  C3  UNL     1      54.806  10.861  27.997  1.00  0.00     0.139 A 
ATOM      9  H3  UNL     1      55.342  12.747  27.478  1.00  0.00     0.169 HD
HETATM   10  C4  UNL     1      55.209   9.697  28.597  1.00  0.00     0.158 A 
HETATM   11  C5  UNL     1      54.347   8.536  28.715  1.00  0.00     0.121 C 
HETATM   12  N6  UNL     1      56.455   9.645  29.091  1.00  0.00    -0.344 N 
HETATM   13  N5  UNL     1      53.660   7.617  28.826  1.00  0.00    -0.190 NA
HETATM   14  C6  UNL     1      57.325  10.684  29.023  1.00  0.00     0.076 A 
ATOM     15  H6  UNL     1      56.763   8.783  29.539  1.00  0.00     0.167 HD
BRANCH   8  16
HETATM   16  N4  UNL     1      53.605  10.895  27.525  1.00  0.00    -0.383 N 
ATOM     17  H42 UNL     1      53.485  11.264  26.582  1.00  0.00     0.157 HD
ATOM     18  H41 UNL     1      52.786  10.576  28.043  1.00  0.00     0.157 HD
ENDBRANCH   8  16
BRANCH  14  19
HETATM   19  C7  UNL     1      58.741  10.531  29.578  1.00  0.00     0.111 C 
BRANCH  19  20
HETATM   20  C8  UNL     1      58.613  10.886  31.032  1.00  0.00     0.102 C 
BRANCH  20  21
HETATM   21  N7  UNL     1      58.632  12.227  31.429  1.00  0.00    -0.279 N 
HETATM   22  C9  UNL     1      59.537  13.183  31.191  1.00  0.00     0.148 A 
HETATM   23  C10 UNL     1      59.157  14.368  31.777  1.00  0.00     0.100 A 
HETATM   24  N8  UNL     1      59.681  15.605  31.848  1.00  0.00    -0.188 N 
HETATM   25  C13 UNL     1      57.945  14.087  32.402  1.00  0.00     0.146 A 
HETATM   26  C11 UNL     1      59.071  16.603  32.510  1.00  0.00     0.679 A 
ATOM     27  H8  UNL     1      60.571  15.792  31.385  1.00  0.00     0.184 HD
HETATM   28  N10 UNL     1      57.902  16.330  33.112  1.00  0.00    -0.154 N 
HETATM   29  C12 UNL     1      57.347  15.111  33.066  1.00  0.00     0.290 A 
ATOM     30  H10 UNL     1      57.423  17.073  33.621  1.00  0.00     0.187 HD
HETATM   31  O2  UNL     1      56.251  14.879  33.638  1.00  0.00    -0.265 OA
HETATM   32  N11 UNL     1      57.679  12.805  32.166  1.00  0.00    -0.288 N 
ATOM     33  H11 UNL     1      56.847  12.322  32.506  1.00  0.00     0.188 HD
BRANCH  26  34
HETATM   34  N9  UNL     1      59.587  17.795  32.573  1.00  0.00    -0.234 N 
ATOM     35  H92 UNL     1      59.553  18.419  31.767  1.00  0.00     0.174 HD
ATOM     36  H91 UNL     1      60.035  18.140  33.422  1.00  0.00     0.174 HD
ENDBRANCH  26  34
ENDBRANCH  20  21
ENDBRANCH  19  20
BRANCH  19  37
HETATM   37  C14 UNL     1      59.152   9.145  29.269  1.00  0.00     0.156 C 
BRANCH  37  38
HETATM   38  O3  UNL     1      58.862   8.182  30.206  1.00  0.00    -0.392 OA
ATOM     39  H3  UNL     1      59.597   7.763  30.639  1.00  0.00     0.210 HD
ENDBRANCH  37  38
BRANCH  37  40
HETATM   40  C15 UNL     1      60.454   8.945  28.554  1.00  0.00     0.196 C 
BRANCH  40  41
HETATM   41  O4  UNL     1      60.485   7.633  27.977  1.00  0.00    -0.398 OA
ATOM     42  H4  UNL     1      60.426   6.983  28.667  1.00  0.00     0.209 HD
ENDBRANCH  40  41
ENDBRANCH  37  40
ENDBRANCH  19  37
ENDBRANCH  14  19
ENDBRANCH   5   6
ENDBRANCH   3   5
TORSDOF 11
ENDMDL
MODEL 4
REMARK VINA RESULT: -2.980626280      2.007      2.800
REMARK  11 active torsions:
REMARK  status: ('A' for Active; 'I' for Inactive)
REMARK    1  A    between atoms: N2_3  and  O1_5 
REMARK    2  A    between atoms: O1_5  and  C2_6 
REMARK    3  A    between atoms: C3_9  and  N4_10 
REMARK    4  A    between atoms: C6_18  and  C7_19 
REMARK    5  A    between atoms: C7_19  and  C8_20 
REMARK    6  A    between atoms: C7_19  and  C14_37 
REMARK    7  A    between atoms: C8_20  and  N7_21 
REMARK    8  A    between atoms: C11_26  and  N9_27 
REMARK    9  A    between atoms: C14_37  and  O3_38 
REMARK   10  A    between atoms: C14_37  and  C15_40 
REMARK   11  A    between atoms: C15_40  and  O4_41 
ROOT
HETATM    1  N1  UNL     1      61.603  10.861  26.737  1.00  0.00    -0.170 NA
HETATM    2  C1  UNL     1      61.021   9.860  26.609  1.00  0.00     0.203 C 
HETATM    3  N2  UNL     1      60.312   8.679  26.461  1.00  0.00    -0.194 N 
ATOM      4  H2  UNL     1      60.257   8.225  25.549  1.00  0.00     0.207 HD
ENDROOT
BRANCH   3   5
HETATM    5  O1  UNL     1      59.688   8.126  27.539  1.00  0.00    -0.208 OA
BRANCH   5   6
HETATM    6  C2  UNL     1      58.336   8.323  27.727  1.00  0.00     0.196 A 
HETATM    7  N3  UNL     1      57.418   7.624  26.993  1.00  0.00    -0.318 N 
HETATM    8  C3  UNL     1      56.102   7.781  27.133  1.00  0.00     0.139 A 
ATOM      9  H3  UNL     1      57.757   6.951  26.306  1.00  0.00     0.169 HD
HETATM   10  C4  UNL     1      55.629   8.682  28.052  1.00  0.00     0.158 A 
HETATM   11  C5  UNL     1      54.213   8.913  28.265  1.00  0.00     0.121 C 
HETATM   12  N6  UNL     1      56.525   9.370  28.774  1.00  0.00    -0.344 N 
HETATM   13  N5  UNL     1      53.089   9.113  28.427  1.00  0.00    -0.190 NA
HETATM   14  C6  UNL     1      57.866   9.215  28.637  1.00  0.00     0.076 A 
ATOM     15  H6  UNL     1      56.181  10.042  29.459  1.00  0.00     0.167 HD
BRANCH   8  16
HETATM   16  N4  UNL     1      55.228   7.126  26.447  1.00  0.00    -0.383 N 
ATOM     17  H42 UNL     1      54.855   7.581  25.613  1.00  0.00     0.157 HD
ATOM     18  H41 UNL     1      54.899   6.192  26.694  1.00  0.00     0.157 HD
ENDBRANCH   8  16
BRANCH  14  19
HETATM   19  C7  UNL     1      58.821  10.011  29.526  1.00  0.00     0.111 C 
BRANCH  19  20
HETATM   20  C8  UNL     1      57.922  10.719  30.500  1.00  0.00     0.102 C 
BRANCH  20  21
HETATM   21  N7  UNL     1      58.279  11.978  30.993  1.00  0.00    -0.279 N 
HETATM   22  C9  UNL     1      57.514  13.034  31.293  1.00  0.00     0.148 A 
HETATM   23  C10 UNL     1      58.285  14.078  31.751  1.00  0.00     0.100 A 
HETATM   24  N8  UNL     1      58.036  15.329  32.175  1.00  0.00    -0.188 N 
HETATM   25  C13 UNL     1      59.592  13.600  31.717  1.00  0.00     0.146 A 
HETATM   26  C11 UNL     1      59.015  16.156  32.578  1.00  0.00     0.679 A 
ATOM     27  H8  UNL     1      57.071  15.662  32.192  1.00  0.00     0.184 HD
HETATM   28  N10 UNL     1      60.275  15.694  32.545  1.00  0.00    -0.154 N 
HETATM   29  C12 UNL     1      60.566  14.454  32.128  1.00  0.00     0.290 A 
ATOM     30  H10 UNL     1      61.034  16.306  32.846  1.00  0.00     0.187 HD
HETATM   31  O2  UNL     1      61.755  14.043  32.105  1.00  0.00    -0.265 OA
HETATM   32  N11 UNL     1      59.534  12.352  31.260  1.00  0.00    -0.288 N 
ATOM     33  H11 UNL     1      60.349  11.752  31.130  1.00  0.00     0.188 HD
BRANCH  26  34
HETATM   34  N9  UNL     1      58.763  17.365  32.987  1.00  0.00    -0.234 N 
ATOM     35  H92 UNL     1      58.141  17.974  32.455  1.00  0.00     0.174 HD
ATOM     36  H91 UNL     1      59.173  17.737  33.844  1.00  0.00     0.174 HD
ENDBRANCH  26  34
ENDBRANCH  20  21
ENDBRANCH  19  20
BRANCH  19  37
HETATM   37  C14 UNL     1      59.765   9.025  30.095  1.00  0.00     0.156 C 
BRANCH  37  38
HETATM   38  O3  UNL     1      59.224   7.933  30.730  1.00  0.00    -0.392 OA
ATOM     39  H3  UNL     1      58.917   8.057  31.621  1.00  0.00     0.210 HD
ENDBRANCH  37  38
BRANCH  37  40
HETATM   40  C15 UNL     1      61.027   9.544  30.717  1.00  0.00     0.196 C 
BRANCH  40  41
HETATM   41  O4  UNL     1      62.053   9.620  29.720  1.00  0.00    -0.398 OA
ATOM     42  H4  UNL     1      62.590  10.388  29.878  1.00  0.00     0.209 HD
ENDBRANCH  40  41
ENDBRANCH  37  40
ENDBRANCH  19  37
ENDBRANCH  14  19
ENDBRANCH   5   6
ENDBRANCH   3   5
TORSDOF 11
ENDMDL
MODEL 5
REMARK VINA RESULT: -2.730702105      1.878      7.543
REMARK  11 active torsions:
REMARK  status: ('A' for Active; 'I' for Inactive)
REMARK    1  A    between atoms: N2_3  and  O1_5 
REMARK    2  A    between atoms: O1_5  and  C2_6 
REMARK    3  A    between atoms: C3_9  and  N4_10 
REMARK    4  A    between atoms: C6_18  and  C7_19 
REMARK    5  A    between atoms: C7_19  and  C8_20 
REMARK    6  A    between atoms: C7_19  and  C14_37 
REMARK    7  A    between atoms: C8_20  and  N7_21 
REMARK    8  A    between atoms: C11_26  and  N9_27 
REMARK    9  A    between atoms: C14_37  and  O3_38 
REMARK   10  A    between atoms: C14_37  and  C15_40 
REMARK   11  A    between atoms: C15_40  and  O4_41 
ROOT
HETATM    1  N1  UNL     1      59.922  13.938  32.200  1.00  0.00    -0.170 NA
HETATM    2  C1  UNL     1      59.049  13.263  31.828  1.00  0.00     0.203 C 
HETATM    3  N2  UNL     1      58.022  12.444  31.388  1.00  0.00    -0.194 N 
ATOM      4  H2  UNL     1      57.171  12.347  31.942  1.00  0.00     0.207 HD
ENDROOT
BRANCH   3   5
HETATM    5  O1  UNL     1      58.153  11.769  30.212  1.00  0.00    -0.208 OA
BRANCH   5   6
HETATM    6  C2  UNL     1      57.310  12.051  29.159  1.00  0.00     0.196 A 
HETATM    7  N3  UNL     1      57.471  13.189  28.418  1.00  0.00    -0.318 N 
HETATM    8  C3  UNL     1      56.680  13.509  27.395  1.00  0.00     0.139 A 
ATOM      9  H3  UNL     1      58.233  13.822  28.661  1.00  0.00     0.169 HD
HETATM   10  C4  UNL     1      55.651  12.670  27.054  1.00  0.00     0.158 A 
HETATM   11  C5  UNL     1      54.746  12.946  25.955  1.00  0.00     0.121 C 
HETATM   12  N6  UNL     1      55.489  11.553  27.778  1.00  0.00    -0.344 N 
HETATM   13  N5  UNL     1      54.013  13.169  25.094  1.00  0.00    -0.190 NA
HETATM   14  C6  UNL     1      56.290  11.219  28.820  1.00  0.00     0.076 A 
ATOM     15  H6  UNL     1      54.726  10.923  27.531  1.00  0.00     0.167 HD
BRANCH   8  16
HETATM   16  N4  UNL     1      56.824  14.580  26.689  1.00  0.00    -0.383 N 
ATOM     17  H42 UNL     1      55.993  15.149  26.531  1.00  0.00     0.157 HD
ATOM     18  H41 UNL     1      57.715  14.878  26.290  1.00  0.00     0.157 HD
ENDBRANCH   8  16
BRANCH  14  19
HETATM   19  C7  UNL     1      56.061   9.908  29.571  1.00  0.00     0.111 C 
BRANCH  19  20
HETATM   20  C8  UNL     1      54.806   9.345  28.965  1.00  0.00     0.102 C 
BRANCH  20  21
HETATM   21  N7  UNL     1      54.867   8.198  28.168  1.00  0.00    -0.279 N 
HETATM   22  C9  UNL     1      53.999   7.187  28.047  1.00  0.00     0.148 A 
HETATM   23  C10 UNL     1      54.461   6.257  27.143  1.00  0.00     0.100 A 
HETATM   24  N8  UNL     1      54.001   5.089  26.662  1.00  0.00    -0.188 N 
HETATM   25  C13 UNL     1      55.683   6.760  26.705  1.00  0.00     0.146 A 
HETATM   26  C11 UNL     1      54.684   4.370  25.756  1.00  0.00     0.679 A 
ATOM     27  H8  UNL     1      53.103   4.736  26.996  1.00  0.00     0.184 HD
HETATM   28  N10 UNL     1      55.863   4.855  25.334  1.00  0.00    -0.154 N 
HETATM   29  C12 UNL     1      56.357   6.014  25.789  1.00  0.00     0.290 A 
ATOM     30  H10 UNL     1      56.399   4.325  24.647  1.00  0.00     0.187 HD
HETATM   31  O2  UNL     1      57.465   6.450  25.379  1.00  0.00    -0.265 OA
HETATM   32  N11 UNL     1      55.878   7.911  27.342  1.00  0.00    -0.288 N 
ATOM     33  H11 UNL     1      56.699   8.503  27.216  1.00  0.00     0.188 HD
BRANCH  26  34
HETATM   34  N9  UNL     1      54.230   3.241  25.297  1.00  0.00    -0.234 N 
ATOM     35  H92 UNL     1      54.246   3.041  24.297  1.00  0.00     0.174 HD
ATOM     36  H91 UNL     1      53.848   2.525  25.917  1.00  0.00     0.174 HD
ENDBRANCH  26  34
ENDBRANCH  20  21
ENDBRANCH  19  20
BRANCH  19  37
HETATM   37  C14 UNL     1      57.295   9.114  29.389  1.00  0.00     0.156 C 
BRANCH  37  38
HETATM   38  O3  UNL     1      57.909   8.641  30.524  1.00  0.00    -0.392 OA
ATOM     39  H3  UNL     1      58.797   8.938  30.692  1.00  0.00     0.210 HD
ENDBRANCH  37  38
BRANCH  37  40
HETATM   40  C15 UNL     1      58.237   9.526  28.298  1.00  0.00     0.196 C 
BRANCH  40  41
HETATM   41  O4  UNL     1      58.692   8.363  27.595  1.00  0.00    -0.398 OA
ATOM     42  H4  UNL     1      59.558   8.526  27.242  1.00  0.00     0.209 HD
ENDBRANCH  40  41
ENDBRANCH  37  40
ENDBRANCH  19  37
ENDBRANCH  14  19
ENDBRANCH   5   6
ENDBRANCH   3   5
TORSDOF 11
ENDMDL
