MODEL 1
REMARK VINA RESULT: -3.551987225      0.000      0.000
REMARK  12 active torsions:
REMARK  status: ('A' for Active; 'I' for Inactive)
REMARK    1  A    between atoms: C2_3  and  C3_4 
REMARK       I    between atoms: C3_4  and  N2_6 
REMARK    2  A    between atoms: N2_6  and  C4_8 
REMARK    3  A    between atoms: C4_8  and  C5_9 
REMARK    4  A    between atoms: C5_9  and  C6_10 
REMARK    5  A    between atoms: C5_9  and  S1_15 
REMARK    6  A    between atoms: C6_10  and  N3_11 
REMARK    7  A    between atoms: N3_11  and  N4_12 
REMARK    8  A    between atoms: S1_15  and  C7_16 
REMARK    9  A    between atoms: C9_18  and  N5_19 
REMARK   10  A    between atoms: C10_24  and  N7_25 
REMARK   11  A    between atoms: C12_33  and  C13_34 
REMARK   12  A    between atoms: C14_40  and  N12_41 
ROOT
HETATM    1  C4  UNL     1      56.701  11.384  30.136  1.00  0.00     0.139 C 
ENDROOT
BRANCH   1   2
HETATM    2  N2  UNL     1      56.604  10.106  29.441  1.00  0.00    -0.354 N 
HETATM    3  C3  UNL     1      55.506   9.815  28.639  1.00  0.00     0.269 C 
HETATM    4  O1  UNL     1      54.590  10.721  28.563  1.00  0.00    -0.266 OA
ATOM      5  H2  UNL     1      57.351   9.418  29.544  1.00  0.00     0.162 HD
BRANCH   3   6
HETATM    6  C2  UNL     1      55.287   8.605  27.892  1.00  0.00     0.119 A 
HETATM    7  N1  UNL     1      56.203   7.709  27.419  1.00  0.00    -0.330 N 
HETATM    8  C1  UNL     1      57.625   7.935  27.403  1.00  0.00     0.158 C 
HETATM    9  C12 UNL     1      55.545   6.698  26.894  1.00  0.00     0.141 A 
HETATM   10  N9  UNL     1      54.189   6.934  27.013  1.00  0.00    -0.348 N 
HETATM   11  C11 UNL     1      54.019   8.080  27.613  1.00  0.00     0.125 A 
ATOM     12  H9  UNL     1      53.446   6.317  26.687  1.00  0.00     0.167 HD
BRANCH   9  13
HETATM   13  C13 UNL     1      55.924   5.436  26.249  1.00  0.00     0.146 A 
HETATM   14  N10 UNL     1      57.157   5.234  25.656  1.00  0.00    -0.234 N 
HETATM   15  O2  UNL     1      57.256   4.096  25.110  1.00  0.00    -0.155 OA
ATOM     16  H10 UNL     1      57.906   5.928  25.658  1.00  0.00     0.197 HD
HETATM   17  N11 UNL     1      56.150   3.485  25.289  1.00  0.00    -0.224 N 
HETATM   18  C14 UNL     1      55.275   4.275  25.997  1.00  0.00     0.154 A 
ATOM     19  H11 UNL     1      55.945   2.543  24.954  1.00  0.00     0.198 HD
BRANCH  18  20
HETATM   20  N12 UNL     1      54.094   3.916  26.281  1.00  0.00    -0.382 N 
ATOM     21 2H12 UNL     1      53.483   4.451  26.898  1.00  0.00     0.157 HD
ATOM     22 1H12 UNL     1      53.571   3.084  26.007  1.00  0.00     0.157 HD
ENDBRANCH  18  20
ENDBRANCH   9  13
ENDBRANCH   3   6
ENDBRANCH   1   2
BRANCH   1  23
HETATM   23  C5  UNL     1      57.940  12.119  29.694  1.00  0.00     0.088 C 
BRANCH  23  24
HETATM   24  C6  UNL     1      57.659  13.144  28.625  1.00  0.00     0.151 C 
BRANCH  24  25
HETATM   25  N3  UNL     1      57.111  12.468  27.434  1.00  0.00    -0.147 NA
BRANCH  25  26
HETATM   26  N4  UNL     1      55.987  13.120  26.964  1.00  0.00    -0.348 N 
ATOM     27  H42 UNL     1      55.634  13.991  27.360  1.00  0.00     0.172 HD
ATOM     28  H41 UNL     1      55.571  12.617  26.181  1.00  0.00     0.172 HD
ENDBRANCH  25  26
ENDBRANCH  24  25
ENDBRANCH  23  24
BRANCH  23  29
HETATM   29  S1  UNL     1      58.910  12.638  31.058  1.00  0.00    -0.104 SA
BRANCH  29  30
HETATM   30  C7  UNL     1      58.490  14.123  31.880  1.00  0.00     0.090 A 
HETATM   31  C8  UNL     1      59.250  15.262  31.888  1.00  0.00     0.086 A 
HETATM   32  C9  UNL     1      58.856  16.418  32.567  1.00  0.00     0.117 A 
HETATM   33  N6  UNL     1      57.705  16.421  33.229  1.00  0.00    -0.177 N 
HETATM   34  C10 UNL     1      56.949  15.308  33.230  1.00  0.00     0.678 A 
ATOM     35  H6  UNL     1      57.398  17.254  33.732  1.00  0.00     0.185 HD
HETATM   36  N8  UNL     1      57.320  14.200  32.583  1.00  0.00    -0.186 N 
ATOM     37  H8  UNL     1      56.709  13.384  32.614  1.00  0.00     0.185 HD
BRANCH  32  38
HETATM   38  N5  UNL     1      59.591  17.472  32.554  1.00  0.00    -0.385 N 
ATOM     39  H52 UNL     1      60.575  17.409  32.815  1.00  0.00     0.157 HD
ATOM     40  H51 UNL     1      59.203  18.377  32.288  1.00  0.00     0.157 HD
ENDBRANCH  32  38
BRANCH  34  41
HETATM   41  N7  UNL     1      55.840  15.389  33.901  1.00  0.00    -0.234 N 
ATOM     42  H72 UNL     1      55.817  15.481  34.916  1.00  0.00     0.174 HD
ATOM     43  H71 UNL     1      54.988  15.355  33.342  1.00  0.00     0.174 HD
ENDBRANCH  34  41
ENDBRANCH  29  30
ENDBRANCH  23  29
ENDBRANCH   1  23
TORSDOF 12
ENDMDL
MODEL 2
REMARK VINA RESULT: -3.477950618      3.803      4.572
REMARK  12 active torsions:
REMARK  status: ('A' for Active; 'I' for Inactive)
REMARK    1  A    between atoms: C2_3  and  C3_4 
REMARK       I    between atoms: C3_4  and  N2_6 
REMARK    2  A    between atoms: N2_6  and  C4_8 
REMARK    3  A    between atoms: C4_8  and  C5_9 
REMARK    4  A    between atoms: C5_9  and  C6_10 
REMARK    5  A    between atoms: C5_9  and  S1_15 
REMARK    6  A    between atoms: C6_10  and  N3_11 
REMARK    7  A    between atoms: N3_11  and  N4_12 
REMARK    8  A    between atoms: S1_15  and  C7_16 
REMARK    9  A    between atoms: C9_18  and  N5_19 
REMARK   10  A    between atoms: C10_24  and  N7_25 
REMARK   11  A    between atoms: C12_33  and  C13_34 
REMARK   12  A    between atoms: C14_40  and  N12_41 
ROOT
HETATM    1  C4  UNL     1      55.016  11.366  28.206  1.00  0.00     0.139 C 
ENDROOT
BRANCH   1   2
HETATM    2  N2  UNL     1      54.861  10.142  27.430  1.00  0.00    -0.354 N 
HETATM    3  C3  UNL     1      55.110   8.900  28.004  1.00  0.00     0.269 C 
HETATM    4  O1  UNL     1      55.494   8.899  29.236  1.00  0.00    -0.266 OA
ATOM      5  H2  UNL     1      54.566  10.197  26.455  1.00  0.00     0.162 HD
BRANCH   3   6
HETATM    6  C2  UNL     1      54.988   7.618  27.361  1.00  0.00     0.119 A 
HETATM    7  N1  UNL     1      55.912   6.936  26.623  1.00  0.00    -0.330 N 
HETATM    8  C1  UNL     1      57.156   7.496  26.161  1.00  0.00     0.158 C 
HETATM    9  C12 UNL     1      55.404   5.758  26.329  1.00  0.00     0.141 A 
HETATM   10  N9  UNL     1      54.135   5.669  26.868  1.00  0.00    -0.348 N 
HETATM   11  C11 UNL     1      53.871   6.783  27.494  1.00  0.00     0.125 A 
ATOM     12  H9  UNL     1      53.510   4.867  26.791  1.00  0.00     0.167 HD
BRANCH   9  13
HETATM   13  C13 UNL     1      55.875   4.578  25.595  1.00  0.00     0.146 A 
HETATM   14  N10 UNL     1      57.203   4.191  25.566  1.00  0.00    -0.234 N 
HETATM   15  O2  UNL     1      57.400   3.179  24.831  1.00  0.00    -0.155 OA
ATOM     16  H10 UNL     1      57.942   4.668  26.082  1.00  0.00     0.197 HD
HETATM   17  N11 UNL     1      56.274   2.835  24.338  1.00  0.00    -0.224 N 
HETATM   18  C14 UNL     1      55.279   3.675  24.781  1.00  0.00     0.154 A 
ATOM     19  H11 UNL     1      56.132   2.047  23.705  1.00  0.00     0.198 HD
BRANCH  18  20
HETATM   20  N12 UNL     1      54.072   3.571  24.416  1.00  0.00    -0.382 N 
ATOM     21 2H12 UNL     1      53.574   4.309  23.919  1.00  0.00     0.157 HD
ATOM     22 1H12 UNL     1      53.401   2.815  24.557  1.00  0.00     0.157 HD
ENDBRANCH  18  20
ENDBRANCH   9  13
ENDBRANCH   3   6
ENDBRANCH   1   2
BRANCH   1  23
HETATM   23  C5  UNL     1      56.343  12.008  27.896  1.00  0.00     0.088 C 
BRANCH  23  24
HETATM   24  C6  UNL     1      56.208  13.444  27.458  1.00  0.00     0.151 C 
BRANCH  24  25
HETATM   25  N3  UNL     1      55.485  13.495  26.173  1.00  0.00    -0.147 NA
BRANCH  25  26
HETATM   26  N4  UNL     1      56.364  13.589  25.111  1.00  0.00    -0.348 N 
ATOM     27  H42 UNL     1      57.174  12.981  24.993  1.00  0.00     0.172 HD
ATOM     28  H41 UNL     1      56.092  14.338  24.474  1.00  0.00     0.172 HD
ENDBRANCH  25  26
ENDBRANCH  24  25
ENDBRANCH  23  24
BRANCH  23  29
HETATM   29  S1  UNL     1      57.537  11.663  29.131  1.00  0.00    -0.104 SA
BRANCH  29  30
HETATM   30  C7  UNL     1      58.635  10.322  28.898  1.00  0.00     0.090 A 
HETATM   31  C8  UNL     1      59.509  10.191  27.853  1.00  0.00     0.086 A 
HETATM   32  C9  UNL     1      60.362   9.092  27.725  1.00  0.00     0.117 A 
HETATM   33  N6  UNL     1      60.329   8.135  28.646  1.00  0.00    -0.177 N 
HETATM   34  C10 UNL     1      59.475   8.252  29.678  1.00  0.00     0.678 A 
ATOM     35  H6  UNL     1      60.943   7.324  28.573  1.00  0.00     0.185 HD
HETATM   36  N8  UNL     1      58.658   9.301  29.806  1.00  0.00    -0.186 N 
ATOM     37  H8  UNL     1      58.030   9.341  30.609  1.00  0.00     0.185 HD
BRANCH  32  38
HETATM   38  N5  UNL     1      61.172   8.998  26.732  1.00  0.00    -0.385 N 
ATOM     39  H52 UNL     1      60.811   8.818  25.795  1.00  0.00     0.157 HD
ATOM     40  H51 UNL     1      62.179   9.101  26.867  1.00  0.00     0.157 HD
ENDBRANCH  32  38
BRANCH  34  41
HETATM   41  N7  UNL     1      59.502   7.276  30.535  1.00  0.00    -0.234 N 
ATOM     42  H72 UNL     1      59.744   6.321  30.274  1.00  0.00     0.174 HD
ATOM     43  H71 UNL     1      59.264   7.531  31.494  1.00  0.00     0.174 HD
ENDBRANCH  34  41
ENDBRANCH  29  30
ENDBRANCH  23  29
ENDBRANCH   1  23
TORSDOF 12
ENDMDL
MODEL 3
REMARK VINA RESULT: -3.153215378      3.818      4.785
REMARK  12 active torsions:
REMARK  status: ('A' for Active; 'I' for Inactive)
REMARK    1  A    between atoms: C2_3  and  C3_4 
REMARK       I    between atoms: C3_4  and  N2_6 
REMARK    2  A    between atoms: N2_6  and  C4_8 
REMARK    3  A    between atoms: C4_8  and  C5_9 
REMARK    4  A    between atoms: C5_9  and  C6_10 
REMARK    5  A    between atoms: C5_9  and  S1_15 
REMARK    6  A    between atoms: C6_10  and  N3_11 
REMARK    7  A    between atoms: N3_11  and  N4_12 
REMARK    8  A    between atoms: S1_15  and  C7_16 
REMARK    9  A    between atoms: C9_18  and  N5_19 
REMARK   10  A    between atoms: C10_24  and  N7_25 
REMARK   11  A    between atoms: C12_33  and  C13_34 
REMARK   12  A    between atoms: C14_40  and  N12_41 
ROOT
HETATM    1  C4  UNL     1      55.002  11.358  28.133  1.00  0.00     0.139 C 
ENDROOT
BRANCH   1   2
HETATM    2  N2  UNL     1      54.878  10.126  27.362  1.00  0.00    -0.354 N 
HETATM    3  C3  UNL     1      55.039   8.887  27.971  1.00  0.00     0.269 C 
HETATM    4  O1  UNL     1      55.315   8.894  29.232  1.00  0.00    -0.266 OA
ATOM      5  H2  UNL     1      54.671  10.175  26.364  1.00  0.00     0.162 HD
BRANCH   3   6
HETATM    6  C2  UNL     1      54.935   7.600  27.337  1.00  0.00     0.119 A 
HETATM    7  N1  UNL     1      55.868   6.926  26.602  1.00  0.00    -0.330 N 
HETATM    8  C1  UNL     1      57.103   7.501  26.135  1.00  0.00     0.158 C 
HETATM    9  C12 UNL     1      55.377   5.739  26.316  1.00  0.00     0.141 A 
HETATM   10  N9  UNL     1      54.110   5.636  26.857  1.00  0.00    -0.348 N 
HETATM   11  C11 UNL     1      53.830   6.749  27.475  1.00  0.00     0.125 A 
ATOM     12  H9  UNL     1      53.497   4.824  26.785  1.00  0.00     0.167 HD
BRANCH   9  13
HETATM   13  C13 UNL     1      55.864   4.561  25.589  1.00  0.00     0.146 A 
HETATM   14  N10 UNL     1      57.197   4.192  25.563  1.00  0.00    -0.234 N 
HETATM   15  O2  UNL     1      57.408   3.179  24.833  1.00  0.00    -0.155 OA
ATOM     16  H10 UNL     1      57.930   4.683  26.075  1.00  0.00     0.197 HD
HETATM   17  N11 UNL     1      56.287   2.816  24.342  1.00  0.00    -0.224 N 
HETATM   18  C14 UNL     1      55.281   3.645  24.780  1.00  0.00     0.154 A 
ATOM     19  H11 UNL     1      56.156   2.023  23.714  1.00  0.00     0.198 HD
BRANCH  18  20
HETATM   20  N12 UNL     1      54.075   3.523  24.416  1.00  0.00    -0.382 N 
ATOM     21 2H12 UNL     1      53.781   2.898  23.665  1.00  0.00     0.157 HD
ATOM     22 1H12 UNL     1      53.234   3.998  24.743  1.00  0.00     0.157 HD
ENDBRANCH  18  20
ENDBRANCH   9  13
ENDBRANCH   3   6
ENDBRANCH   1   2
BRANCH   1  23
HETATM   23  C5  UNL     1      56.361  11.970  27.912  1.00  0.00     0.088 C 
BRANCH  23  24
HETATM   24  C6  UNL     1      56.290  13.427  27.534  1.00  0.00     0.151 C 
BRANCH  24  25
HETATM   25  N3  UNL     1      55.467  13.574  26.318  1.00  0.00    -0.147 NA
BRANCH  25  26
HETATM   26  N4  UNL     1      56.248  13.525  25.179  1.00  0.00    -0.348 N 
ATOM     27  H42 UNL     1      56.759  14.327  24.810  1.00  0.00     0.172 HD
ATOM     28  H41 UNL     1      56.241  12.591  24.769  1.00  0.00     0.172 HD
ENDBRANCH  25  26
ENDBRANCH  24  25
ENDBRANCH  23  24
BRANCH  23  29
HETATM   29  S1  UNL     1      57.485  11.533  29.183  1.00  0.00    -0.104 SA
BRANCH  29  30
HETATM   30  C7  UNL     1      58.613  10.225  28.905  1.00  0.00     0.090 A 
HETATM   31  C8  UNL     1      58.749   9.120  29.699  1.00  0.00     0.086 A 
HETATM   32  C9  UNL     1      59.672   8.108  29.420  1.00  0.00     0.117 A 
HETATM   33  N6  UNL     1      60.447   8.216  28.347  1.00  0.00    -0.177 N 
HETATM   34  C10 UNL     1      60.323   9.298  27.558  1.00  0.00     0.678 A 
ATOM     35  H6  UNL     1      61.128   7.489  28.124  1.00  0.00     0.185 HD
HETATM   36  N8  UNL     1      59.443  10.268  27.819  1.00  0.00    -0.186 N 
ATOM     37  H8  UNL     1      59.388  11.066  27.187  1.00  0.00     0.185 HD
BRANCH  32  38
HETATM   38  N5  UNL     1      59.776   7.081  30.185  1.00  0.00    -0.385 N 
ATOM     39  H52 UNL     1      59.116   6.308  30.093  1.00  0.00     0.157 HD
ATOM     40  H51 UNL     1      60.512   7.025  30.889  1.00  0.00     0.157 HD
ENDBRANCH  32  38
BRANCH  34  41
HETATM   41  N7  UNL     1      61.117   9.331  26.530  1.00  0.00    -0.234 N 
ATOM     42  H72 UNL     1      62.101   9.587  26.603  1.00  0.00     0.174 HD
ATOM     43  H71 UNL     1      60.688   9.080  25.640  1.00  0.00     0.174 HD
ENDBRANCH  34  41
ENDBRANCH  29  30
ENDBRANCH  23  29
ENDBRANCH   1  23
TORSDOF 12
ENDMDL
MODEL 4
REMARK VINA RESULT: -2.962764553      0.480      1.459
REMARK  12 active torsions:
REMARK  status: ('A' for Active; 'I' for Inactive)
REMARK    1  A    between atoms: C2_3  and  C3_4 
REMARK       I    between atoms: C3_4  and  N2_6 
REMARK    2  A    between atoms: N2_6  and  C4_8 
REMARK    3  A    between atoms: C4_8  and  C5_9 
REMARK    4  A    between atoms: C5_9  and  C6_10 
REMARK    5  A    between atoms: C5_9  and  S1_15 
REMARK    6  A    between atoms: C6_10  and  N3_11 
REMARK    7  A    between atoms: N3_11  and  N4_12 
REMARK    8  A    between atoms: S1_15  and  C7_16 
REMARK    9  A    between atoms: C9_18  and  N5_19 
REMARK   10  A    between atoms: C10_24  and  N7_25 
REMARK   11  A    between atoms: C12_33  and  C13_34 
REMARK   12  A    between atoms: C14_40  and  N12_41 
ROOT
HETATM    1  C4  UNL     1      56.640  11.396  30.101  1.00  0.00     0.139 C 
ENDROOT
BRANCH   1   2
HETATM    2  N2  UNL     1      56.554  10.111  29.416  1.00  0.00    -0.354 N 
HETATM    3  C3  UNL     1      55.473   9.815  28.593  1.00  0.00     0.269 C 
HETATM    4  O1  UNL     1      54.561  10.723  28.488  1.00  0.00    -0.266 OA
ATOM      5  H2  UNL     1      57.296   9.422  29.542  1.00  0.00     0.162 HD
BRANCH   3   6
HETATM    6  C2  UNL     1      55.267   8.599  27.853  1.00  0.00     0.119 A 
HETATM    7  N1  UNL     1      56.192   7.707  27.391  1.00  0.00    -0.330 N 
HETATM    8  C1  UNL     1      57.612   7.943  27.380  1.00  0.00     0.158 C 
HETATM    9  C12 UNL     1      55.544   6.687  26.869  1.00  0.00     0.141 A 
HETATM   10  N9  UNL     1      54.186   6.914  26.980  1.00  0.00    -0.348 N 
HETATM   11  C11 UNL     1      54.004   8.062  27.571  1.00  0.00     0.125 A 
ATOM     12  H9  UNL     1      53.449   6.289  26.654  1.00  0.00     0.167 HD
BRANCH   9  13
HETATM   13  C13 UNL     1      55.935   5.424  26.234  1.00  0.00     0.146 A 
HETATM   14  N10 UNL     1      57.172   5.229  25.645  1.00  0.00    -0.234 N 
HETATM   15  O2  UNL     1      57.282   4.088  25.108  1.00  0.00    -0.155 OA
ATOM     16  H10 UNL     1      57.914   5.929  25.643  1.00  0.00     0.197 HD
HETATM   17  N11 UNL     1      56.182   3.467  25.289  1.00  0.00    -0.224 N 
HETATM   18  C14 UNL     1      55.297   4.255  25.989  1.00  0.00     0.154 A 
ATOM     19  H11 UNL     1      55.986   2.521  24.961  1.00  0.00     0.198 HD
BRANCH  18  20
HETATM   20  N12 UNL     1      54.120   3.887  26.275  1.00  0.00    -0.382 N 
ATOM     21 2H12 UNL     1      53.377   4.541  26.523  1.00  0.00     0.157 HD
ATOM     22 1H12 UNL     1      53.716   2.953  26.340  1.00  0.00     0.157 HD
ENDBRANCH  18  20
ENDBRANCH   9  13
ENDBRANCH   3   6
ENDBRANCH   1   2
BRANCH   1  23
HETATM   23  C5  UNL     1      57.915  12.100  29.719  1.00  0.00     0.088 C 
BRANCH  23  24
HETATM   24  C6  UNL     1      57.716  13.113  28.621  1.00  0.00     0.151 C 
BRANCH  24  25
HETATM   25  N3  UNL     1      57.158  12.439  27.433  1.00  0.00    -0.147 NA
BRANCH  25  26
HETATM   26  N4  UNL     1      56.050  13.110  26.954  1.00  0.00    -0.348 N 
ATOM     27  H42 UNL     1      55.098  12.753  27.027  1.00  0.00     0.172 HD
ATOM     28  H41 UNL     1      56.315  13.997  26.524  1.00  0.00     0.172 HD
ENDBRANCH  25  26
ENDBRANCH  24  25
ENDBRANCH  23  24
BRANCH  23  29
HETATM   29  S1  UNL     1      58.817  12.622  31.128  1.00  0.00    -0.104 SA
BRANCH  29  30
HETATM   30  C7  UNL     1      58.330  14.086  31.952  1.00  0.00     0.090 A 
HETATM   31  C8  UNL     1      57.155  14.253  32.634  1.00  0.00     0.086 A 
HETATM   32  C9  UNL     1      56.826  15.452  33.272  1.00  0.00     0.117 A 
HETATM   33  N6  UNL     1      57.678  16.470  33.219  1.00  0.00    -0.177 N 
HETATM   34  C10 UNL     1      58.836  16.318  32.551  1.00  0.00     0.678 A 
ATOM     35  H6  UNL     1      57.458  17.354  33.678  1.00  0.00     0.185 HD
HETATM   36  N8  UNL     1      59.156  15.175  31.940  1.00  0.00    -0.186 N 
ATOM     37  H8  UNL     1      60.048  15.112  31.449  1.00  0.00     0.185 HD
BRANCH  32  38
HETATM   38  N5  UNL     1      55.716  15.577  33.906  1.00  0.00    -0.385 N 
ATOM     39  H52 UNL     1      54.992  14.864  33.812  1.00  0.00     0.157 HD
ATOM     40  H51 UNL     1      55.544  16.385  34.506  1.00  0.00     0.157 HD
ENDBRANCH  32  38
BRANCH  34  41
HETATM   41  N7  UNL     1      59.613  17.358  32.545  1.00  0.00    -0.234 N 
ATOM     42  H72 UNL     1      59.255  18.312  32.512  1.00  0.00     0.174 HD
ATOM     43  H71 UNL     1      60.612  17.156  32.575  1.00  0.00     0.174 HD
ENDBRANCH  34  41
ENDBRANCH  29  30
ENDBRANCH  23  29
ENDBRANCH   1  23
TORSDOF 12
ENDMDL
MODEL 5
REMARK VINA RESULT: -2.787946097      1.161      1.357
REMARK  12 active torsions:
REMARK  status: ('A' for Active; 'I' for Inactive)
REMARK    1  A    between atoms: C2_3  and  C3_4 
REMARK       I    between atoms: C3_4  and  N2_6 
REMARK    2  A    between atoms: N2_6  and  C4_8 
REMARK    3  A    between atoms: C4_8  and  C5_9 
REMARK    4  A    between atoms: C5_9  and  C6_10 
REMARK    5  A    between atoms: C5_9  and  S1_15 
REMARK    6  A    between atoms: C6_10  and  N3_11 
REMARK    7  A    between atoms: N3_11  and  N4_12 
REMARK    8  A    between atoms: S1_15  and  C7_16 
REMARK    9  A    between atoms: C9_18  and  N5_19 
REMARK   10  A    between atoms: C10_24  and  N7_25 
REMARK   11  A    between atoms: C12_33  and  C13_34 
REMARK   12  A    between atoms: C14_40  and  N12_41 
ROOT
HETATM    1  C4  UNL     1      56.052  10.966  29.479  1.00  0.00     0.139 C 
ENDROOT
BRANCH   1   2
HETATM    2  N2  UNL     1      56.089   9.637  28.881  1.00  0.00    -0.354 N 
HETATM    3  C3  UNL     1      55.035   9.181  28.097  1.00  0.00     0.269 C 
HETATM    4  O1  UNL     1      54.037   9.985  27.947  1.00  0.00    -0.266 OA
ATOM      5  H2  UNL     1      56.897   9.034  29.041  1.00  0.00     0.162 HD
BRANCH   3   6
HETATM    6  C2  UNL     1      54.944   7.903  27.442  1.00  0.00     0.119 A 
HETATM    7  N1  UNL     1      55.916   7.201  26.789  1.00  0.00    -0.330 N 
HETATM    8  C1  UNL     1      57.209   7.734  26.444  1.00  0.00     0.158 C 
HETATM    9  C12 UNL     1      55.412   6.035  26.446  1.00  0.00     0.141 A 
HETATM   10  N9  UNL     1      54.098   5.974  26.867  1.00  0.00    -0.348 N 
HETATM   11  C11 UNL     1      53.802   7.093  27.469  1.00  0.00     0.125 A 
ATOM     12  H9  UNL     1      53.465   5.186  26.730  1.00  0.00     0.167 HD
BRANCH   9  13
HETATM   13  C13 UNL     1      55.922   4.846  25.754  1.00  0.00     0.146 A 
HETATM   14  N10 UNL     1      57.267   4.528  25.697  1.00  0.00    -0.234 N 
HETATM   15  O2  UNL     1      57.494   3.492  25.005  1.00  0.00    -0.155 OA
ATOM     16  H10 UNL     1      57.996   5.069  26.162  1.00  0.00     0.197 HD
HETATM   17  N11 UNL     1      56.373   3.064  24.570  1.00  0.00    -0.224 N 
HETATM   18  C14 UNL     1      55.350   3.873  25.007  1.00  0.00     0.154 A 
ATOM     19  H11 UNL     1      56.254   2.239  23.982  1.00  0.00     0.198 HD
BRANCH  18  20
HETATM   20  N12 UNL     1      54.138   3.687  24.690  1.00  0.00    -0.382 N 
ATOM     21 2H12 UNL     1      53.776   2.788  24.373  1.00  0.00     0.157 HD
ATOM     22 1H12 UNL     1      53.355   4.341  24.659  1.00  0.00     0.157 HD
ENDBRANCH  18  20
ENDBRANCH   9  13
ENDBRANCH   3   6
ENDBRANCH   1   2
BRANCH   1  23
HETATM   23  C5  UNL     1      57.454  11.492  29.652  1.00  0.00     0.088 C 
BRANCH  23  24
HETATM   24  C6  UNL     1      57.798  12.572  28.659  1.00  0.00     0.151 C 
BRANCH  24  25
HETATM   25  N3  UNL     1      56.816  12.551  27.558  1.00  0.00    -0.147 NA
BRANCH  25  26
HETATM   26  N4  UNL     1      56.429  13.831  27.210  1.00  0.00    -0.348 N 
ATOM     27  H42 UNL     1      55.527  14.236  27.462  1.00  0.00     0.172 HD
ATOM     28  H41 UNL     1      57.159  14.303  26.677  1.00  0.00     0.172 HD
ENDBRANCH  25  26
ENDBRANCH  24  25
ENDBRANCH  23  24
BRANCH  23  29
HETATM   29  S1  UNL     1      57.825  11.812  31.335  1.00  0.00    -0.104 SA
BRANCH  29  30
HETATM   30  C7  UNL     1      58.576  13.332  31.763  1.00  0.00     0.090 A 
HETATM   31  C8  UNL     1      59.925  13.553  31.832  1.00  0.00     0.086 A 
HETATM   32  C9  UNL     1      60.461  14.795  32.181  1.00  0.00     0.117 A 
HETATM   33  N6  UNL     1      59.640  15.802  32.457  1.00  0.00    -0.177 N 
HETATM   34  C10 UNL     1      58.312  15.597  32.393  1.00  0.00     0.678 A 
ATOM     35  H6  UNL     1      60.010  16.717  32.714  1.00  0.00     0.185 HD
HETATM   36  N8  UNL     1      57.793  14.413  32.059  1.00  0.00    -0.186 N 
ATOM     37  H8  UNL     1      56.779  14.312  32.024  1.00  0.00     0.185 HD
BRANCH  32  38
HETATM   38  N5  UNL     1      61.733  14.971  32.236  1.00  0.00    -0.385 N 
ATOM     39  H52 UNL     1      62.362  14.269  31.847  1.00  0.00     0.157 HD
ATOM     40  H51 UNL     1      62.127  15.808  32.667  1.00  0.00     0.157 HD
ENDBRANCH  32  38
BRANCH  34  41
HETATM   41  N7  UNL     1      57.577  16.629  32.678  1.00  0.00    -0.234 N 
ATOM     42  H72 UNL     1      57.090  17.171  31.965  1.00  0.00     0.174 HD
ATOM     43  H71 UNL     1      57.518  16.863  33.669  1.00  0.00     0.174 HD
ENDBRANCH  34  41
ENDBRANCH  29  30
ENDBRANCH  23  29
ENDBRANCH   1  23
TORSDOF 12
ENDMDL
