MODEL 1
REMARK VINA RESULT: -4.831568434      0.000      0.000
REMARK  12 active torsions:
REMARK  status: ('A' for Active; 'I' for Inactive)
REMARK    1  A    between atoms: C2_3  and  C3_4 
REMARK    2  A    between atoms: C3_4  and  C4_5 
REMARK    3  A    between atoms: C3_4  and  N10_34 
REMARK    4  A    between atoms: C4_5  and  N2_6 
REMARK    5  A    between atoms: N3_8  and  C5_10 
REMARK    6  A    between atoms: C9_18  and  N6_19 
REMARK    7  A    between atoms: N10_34  and  C14_37 
REMARK    8  A    between atoms: C14_37  and  O2_38 
REMARK    9  A    between atoms: C14_37  and  C15_40 
REMARK   10  A    between atoms: C15_40  and  O3_41 
REMARK   11  A    between atoms: C15_40  and  C16_43 
REMARK   12  A    between atoms: C16_43  and  O4_44 
ROOT
HETATM    1  N1  UNL     1      62.454  14.046  33.283  1.00  0.00    -0.197 NA
HETATM    2  C1  UNL     1      61.627  14.380  32.542  1.00  0.00     0.061 C 
HETATM    3  C2  UNL     1      60.589  14.785  31.583  1.00  0.00     0.158 C 
ENDROOT
BRANCH   3   4
HETATM    4  C3  UNL     1      59.207  14.531  32.067  1.00  0.00     0.221 C 
BRANCH   4   5
HETATM    5  C4  UNL     1      58.264  14.047  30.985  1.00  0.00     0.173 C 
BRANCH   5   6
HETATM    6  N2  UNL     1      58.153  12.628  30.885  1.00  0.00    -0.334 N 
HETATM    7  N3  UNL     1      57.905  12.140  29.729  1.00  0.00    -0.303 N 
ATOM      8  H3  UNL     1      57.805  12.800  28.957  1.00  0.00     0.186 HD
ATOM      9  H2  UNL     1      58.266  12.029  31.702  1.00  0.00     0.180 HD
BRANCH   7  10
HETATM   10  C5  UNL     1      57.761  10.785  29.429  1.00  0.00     0.075 A 
HETATM   11  C6  UNL     1      58.785   9.894  29.813  1.00  0.00     0.021 A 
HETATM   12  C7  UNL     1      58.687   8.559  29.539  1.00  0.00     0.112 A 
HETATM   13  C13 UNL     1      60.057  10.138  30.509  1.00  0.00     0.166 A 
HETATM   14  N4  UNL     1      57.582   8.087  28.885  1.00  0.00    -0.336 N 
HETATM   15  C12 UNL     1      59.871   7.876  30.049  1.00  0.00     0.269 A 
HETATM   16  C8  UNL     1      56.585   8.893  28.499  1.00  0.00     0.138 A 
ATOM     17  H4  UNL     1      57.516   7.090  28.684  1.00  0.00     0.168 HD
HETATM   18  N5  UNL     1      55.490   8.458  27.855  1.00  0.00    -0.176 N 
HETATM   19  C11 UNL     1      56.683  10.255  28.778  1.00  0.00     0.081 A 
HETATM   20  C9  UNL     1      54.480   9.254  27.461  1.00  0.00     0.679 A 
ATOM     21  H5  UNL     1      55.420   7.460  27.653  1.00  0.00     0.186 HD
HETATM   22  N7  UNL     1      54.574  10.571  27.730  1.00  0.00    -0.176 N 
HETATM   23  C10 UNL     1      55.658  11.084  28.382  1.00  0.00     0.131 A 
ATOM     24  H7  UNL     1      53.821  11.196  27.441  1.00  0.00     0.186 HD
HETATM   25  N8  UNL     1      55.737  12.345  28.634  1.00  0.00    -0.384 N 
ATOM     26  H82 UNL     1      54.978  12.959  28.340  1.00  0.00     0.157 HD
ATOM     27  H81 UNL     1      56.547  12.728  29.121  1.00  0.00     0.157 HD
HETATM   28  O1  UNL     1      60.098   6.627  29.960  1.00  0.00    -0.266 OA
HETATM   29  N9  UNL     1      60.687   8.863  30.644  1.00  0.00    -0.351 N 
ATOM     30  H9  UNL     1      61.584   8.692  31.097  1.00  0.00     0.163 HD
BRANCH  20  31
HETATM   31  N6  UNL     1      53.434   8.773  26.832  1.00  0.00    -0.234 N 
ATOM     32  H62 UNL     1      53.548   8.115  26.060  1.00  0.00     0.174 HD
ATOM     33  H61 UNL     1      52.485   9.039  27.095  1.00  0.00     0.174 HD
ENDBRANCH  20  31
ENDBRANCH   7  10
ENDBRANCH   5   6
ENDBRANCH   4   5
BRANCH   4  34
HETATM   34  N10 UNL     1      58.657  15.593  32.839  1.00  0.00    -0.040 N 
ATOM     35 2H10 UNL     1      58.764  15.411  33.837  1.00  0.00     0.280 HD
ATOM     36 1H10 UNL     1      59.229  16.434  32.760  1.00  0.00     0.280 HD
BRANCH  34  37
HETATM   37  C14 UNL     1      57.282  15.876  32.514  1.00  0.00     0.350 C 
BRANCH  37  38
HETATM   38  O2  UNL     1      57.128  17.190  32.031  1.00  0.00    -0.368 OA
ATOM     39  H2  UNL     1      56.304  17.569  32.314  1.00  0.00     0.212 HD
ENDBRANCH  37  38
BRANCH  37  40
HETATM   40  C15 UNL     1      56.420  15.740  33.773  1.00  0.00     0.198 C 
BRANCH  40  41
HETATM   41  O3  UNL     1      56.899  16.525  34.820  1.00  0.00    -0.389 OA
ATOM     42  H3  UNL     1      57.079  16.009  35.596  1.00  0.00     0.210 HD
ENDBRANCH  40  41
BRANCH  40  43
HETATM   43  C16 UNL     1      55.031  16.247  33.453  1.00  0.00     0.200 C 
BRANCH  43  44
HETATM   44  O4  UNL     1      54.016  15.464  33.969  1.00  0.00    -0.398 OA
ATOM     45  H4  UNL     1      53.951  15.491  34.916  1.00  0.00     0.209 HD
ENDBRANCH  43  44
ENDBRANCH  40  43
ENDBRANCH  37  40
ENDBRANCH  34  37
ENDBRANCH   4  34
ENDBRANCH   3   4
TORSDOF 12
ENDMDL
MODEL 2
REMARK VINA RESULT: -3.890258522      2.693      3.609
REMARK  12 active torsions:
REMARK  status: ('A' for Active; 'I' for Inactive)
REMARK    1  A    between atoms: C2_3  and  C3_4 
REMARK    2  A    between atoms: C3_4  and  C4_5 
REMARK    3  A    between atoms: C3_4  and  N10_34 
REMARK    4  A    between atoms: C4_5  and  N2_6 
REMARK    5  A    between atoms: N3_8  and  C5_10 
REMARK    6  A    between atoms: C9_18  and  N6_19 
REMARK    7  A    between atoms: N10_34  and  C14_37 
REMARK    8  A    between atoms: C14_37  and  O2_38 
REMARK    9  A    between atoms: C14_37  and  C15_40 
REMARK   10  A    between atoms: C15_40  and  O3_41 
REMARK   11  A    between atoms: C15_40  and  C16_43 
REMARK   12  A    between atoms: C16_43  and  O4_44 
ROOT
HETATM    1  N1  UNL     1      62.371  14.284  32.685  1.00  0.00    -0.197 NA
HETATM    2  C1  UNL     1      61.304  14.477  32.274  1.00  0.00     0.061 C 
HETATM    3  C2  UNL     1      59.961  14.715  31.727  1.00  0.00     0.158 C 
ENDROOT
BRANCH   3   4
HETATM    4  C3  UNL     1      58.909  13.880  32.366  1.00  0.00     0.221 C 
BRANCH   4   5
HETATM    5  C4  UNL     1      58.668  12.563  31.658  1.00  0.00     0.173 C 
BRANCH   5   6
HETATM    6  N2  UNL     1      57.870  12.658  30.480  1.00  0.00    -0.334 N 
HETATM    7  N3  UNL     1      57.224  11.613  30.123  1.00  0.00    -0.303 N 
ATOM      8  H3  UNL     1      57.325  10.782  30.708  1.00  0.00     0.186 HD
ATOM      9  H2  UNL     1      57.817  13.524  29.944  1.00  0.00     0.180 HD
BRANCH   7  10
HETATM   10  C5  UNL     1      56.394  11.507  29.006  1.00  0.00     0.075 A 
HETATM   11  C6  UNL     1      56.506  12.475  27.986  1.00  0.00     0.021 A 
HETATM   12  C7  UNL     1      55.714  12.412  26.875  1.00  0.00     0.112 A 
HETATM   13  C13 UNL     1      57.383  13.651  27.872  1.00  0.00     0.166 A 
HETATM   14  N4  UNL     1      54.804  11.398  26.755  1.00  0.00    -0.336 N 
HETATM   15  C12 UNL     1      56.042  13.524  25.988  1.00  0.00     0.269 A 
HETATM   16  C8  UNL     1      54.660  10.457  27.697  1.00  0.00     0.138 A 
ATOM     17  H4  UNL     1      54.216  11.358  25.924  1.00  0.00     0.168 HD
HETATM   18  N5  UNL     1      53.776   9.451  27.606  1.00  0.00    -0.176 N 
HETATM   19  C11 UNL     1      55.468  10.519  28.831  1.00  0.00     0.081 A 
HETATM   20  C9  UNL     1      53.618   8.497  28.543  1.00  0.00     0.679 A 
ATOM     21  H5  UNL     1      53.186   9.406  26.775  1.00  0.00     0.186 HD
HETATM   22  N7  UNL     1      54.399   8.557  29.640  1.00  0.00    -0.176 N 
HETATM   23  C10 UNL     1      55.320   9.551  29.799  1.00  0.00     0.131 A 
ATOM     24  H7  UNL     1      54.299   7.845  30.364  1.00  0.00     0.186 HD
HETATM   25  N8  UNL     1      56.062   9.598  30.851  1.00  0.00    -0.384 N 
ATOM     26  H82 UNL     1      55.952   8.881  31.568  1.00  0.00     0.157 HD
ATOM     27  H81 UNL     1      56.750  10.341  30.970  1.00  0.00     0.157 HD
HETATM   28  O1  UNL     1      55.489  13.760  24.867  1.00  0.00    -0.266 OA
HETATM   29  N9  UNL     1      57.069  14.259  26.618  1.00  0.00    -0.351 N 
ATOM     30  H9  UNL     1      57.516  15.093  26.238  1.00  0.00     0.163 HD
BRANCH  20  31
HETATM   31  N6  UNL     1      52.735   7.538  28.401  1.00  0.00    -0.234 N 
ATOM     32  H62 UNL     1      51.981   7.621  27.719  1.00  0.00     0.174 HD
ATOM     33  H61 UNL     1      52.777   6.688  28.964  1.00  0.00     0.174 HD
ENDBRANCH  20  31
ENDBRANCH   7  10
ENDBRANCH   5   6
ENDBRANCH   4   5
BRANCH   4  34
HETATM   34  N10 UNL     1      57.702  14.581  32.646  1.00  0.00    -0.040 N 
ATOM     35 2H10 UNL     1      56.969  14.323  31.985  1.00  0.00     0.280 HD
ATOM     36 1H10 UNL     1      57.276  14.241  33.509  1.00  0.00     0.280 HD
BRANCH  34  37
HETATM   37  C14 UNL     1      57.874  16.011  32.689  1.00  0.00     0.350 C 
BRANCH  37  38
HETATM   38  O2  UNL     1      58.622  16.405  33.815  1.00  0.00    -0.368 OA
ATOM     39  H2  UNL     1      58.866  15.657  34.348  1.00  0.00     0.212 HD
ENDBRANCH  37  38
BRANCH  37  40
HETATM   40  C15 UNL     1      56.503  16.690  32.779  1.00  0.00     0.198 C 
BRANCH  40  41
HETATM   41  O3  UNL     1      55.854  16.718  31.547  1.00  0.00    -0.389 OA
ATOM     42  H3  UNL     1      55.442  15.887  31.344  1.00  0.00     0.210 HD
ENDBRANCH  40  41
BRANCH  40  43
HETATM   43  C16 UNL     1      55.632  15.875  33.709  1.00  0.00     0.200 C 
BRANCH  43  44
HETATM   44  O4  UNL     1      54.284  16.156  33.604  1.00  0.00    -0.398 OA
ATOM     45  H4  UNL     1      53.855  15.721  32.876  1.00  0.00     0.209 HD
ENDBRANCH  43  44
ENDBRANCH  40  43
ENDBRANCH  37  40
ENDBRANCH  34  37
ENDBRANCH   4  34
ENDBRANCH   3   4
TORSDOF 12
ENDMDL
MODEL 3
REMARK VINA RESULT: -3.517702545      2.301      3.081
REMARK  12 active torsions:
REMARK  status: ('A' for Active; 'I' for Inactive)
REMARK    1  A    between atoms: C2_3  and  C3_4 
REMARK    2  A    between atoms: C3_4  and  C4_5 
REMARK    3  A    between atoms: C3_4  and  N10_34 
REMARK    4  A    between atoms: C4_5  and  N2_6 
REMARK    5  A    between atoms: N3_8  and  C5_10 
REMARK    6  A    between atoms: C9_18  and  N6_19 
REMARK    7  A    between atoms: N10_34  and  C14_37 
REMARK    8  A    between atoms: C14_37  and  O2_38 
REMARK    9  A    between atoms: C14_37  and  C15_40 
REMARK   10  A    between atoms: C15_40  and  O3_41 
REMARK   11  A    between atoms: C15_40  and  C16_43 
REMARK   12  A    between atoms: C16_43  and  O4_44 
ROOT
HETATM    1  N1  UNL     1      62.364  14.132  32.659  1.00  0.00    -0.197 NA
HETATM    2  C1  UNL     1      61.332  14.521  32.300  1.00  0.00     0.061 C 
HETATM    3  C2  UNL     1      60.035  15.017  31.818  1.00  0.00     0.158 C 
ENDROOT
BRANCH   3   4
HETATM    4  C3  UNL     1      58.908  14.089  32.101  1.00  0.00     0.221 C 
BRANCH   4   5
HETATM    5  C4  UNL     1      59.000  12.776  31.352  1.00  0.00     0.173 C 
BRANCH   5   6
HETATM    6  N2  UNL     1      57.746  12.244  30.928  1.00  0.00    -0.334 N 
HETATM    7  N3  UNL     1      57.614  11.973  29.685  1.00  0.00    -0.303 N 
ATOM      8  H3  UNL     1      58.417  12.156  29.082  1.00  0.00     0.186 HD
ATOM      9  H2  UNL     1      56.986  12.087  31.589  1.00  0.00     0.180 HD
BRANCH   7  10
HETATM   10  C5  UNL     1      56.471  11.449  29.080  1.00  0.00     0.075 A 
HETATM   11  C6  UNL     1      55.847  10.329  29.669  1.00  0.00     0.021 A 
HETATM   12  C7  UNL     1      54.726   9.782  29.111  1.00  0.00     0.112 A 
HETATM   13  C13 UNL     1      56.197   9.558  30.871  1.00  0.00     0.166 A 
HETATM   14  N4  UNL     1      54.209  10.329  27.969  1.00  0.00    -0.336 N 
HETATM   15  C12 UNL     1      54.291   8.649  29.921  1.00  0.00     0.269 A 
HETATM   16  C8  UNL     1      54.765  11.391  27.373  1.00  0.00     0.138 A 
ATOM     17  H4  UNL     1      53.372   9.915  27.559  1.00  0.00     0.168 HD
HETATM   18  N5  UNL     1      54.279  11.949  26.253  1.00  0.00    -0.176 N 
HETATM   19  C11 UNL     1      55.909  11.951  27.942  1.00  0.00     0.081 A 
HETATM   20  C9  UNL     1      54.826  13.016  25.642  1.00  0.00     0.679 A 
ATOM     21  H5  UNL     1      53.442  11.539  25.839  1.00  0.00     0.186 HD
HETATM   22  N7  UNL     1      55.932  13.558  26.190  1.00  0.00    -0.176 N 
HETATM   23  C10 UNL     1      56.481  13.043  27.329  1.00  0.00     0.131 A 
ATOM     24  H7  UNL     1      56.365  14.367  25.746  1.00  0.00     0.186 HD
HETATM   25  N8  UNL     1      57.537  13.570  27.845  1.00  0.00    -0.384 N 
ATOM     26  H82 UNL     1      57.961  14.379  27.391  1.00  0.00     0.157 HD
ATOM     27  H81 UNL     1      57.948  13.186  28.696  1.00  0.00     0.157 HD
HETATM   28  O1  UNL     1      53.279   7.917  29.681  1.00  0.00    -0.266 OA
HETATM   29  N9  UNL     1      55.203   8.540  30.993  1.00  0.00    -0.351 N 
ATOM     30  H9  UNL     1      55.159   7.844  31.737  1.00  0.00     0.163 HD
BRANCH  20  31
HETATM   31  N6  UNL     1      54.308  13.518  24.546  1.00  0.00    -0.234 N 
ATOM     32  H62 UNL     1      53.619  14.268  24.593  1.00  0.00     0.174 HD
ATOM     33  H61 UNL     1      54.578  13.175  23.624  1.00  0.00     0.174 HD
ENDBRANCH  20  31
ENDBRANCH   7  10
ENDBRANCH   5   6
ENDBRANCH   4   5
BRANCH   4  34
HETATM   34  N10 UNL     1      57.621  14.690  31.999  1.00  0.00    -0.040 N 
ATOM     35 2H10 UNL     1      57.361  14.829  31.023  1.00  0.00     0.280 HD
ATOM     36 1H10 UNL     1      56.891  14.034  32.275  1.00  0.00     0.280 HD
BRANCH  34  37
HETATM   37  C14 UNL     1      57.511  15.921  32.739  1.00  0.00     0.350 C 
BRANCH  37  38
HETATM   38  O2  UNL     1      58.732  16.262  33.355  1.00  0.00    -0.368 OA
ATOM     39  H2  UNL     1      58.979  17.159  33.161  1.00  0.00     0.212 HD
ENDBRANCH  37  38
BRANCH  37  40
HETATM   40  C15 UNL     1      56.461  15.763  33.844  1.00  0.00     0.198 C 
BRANCH  40  41
HETATM   41  O3  UNL     1      56.761  16.538  34.961  1.00  0.00    -0.389 OA
ATOM     42  H3  UNL     1      57.607  16.317  35.330  1.00  0.00     0.210 HD
ENDBRANCH  40  41
BRANCH  40  43
HETATM   43  C16 UNL     1      55.137  16.264  33.312  1.00  0.00     0.200 C 
BRANCH  43  44
HETATM   44  O4  UNL     1      54.039  15.606  33.834  1.00  0.00    -0.398 OA
ATOM     45  H4  UNL     1      54.127  15.378  34.752  1.00  0.00     0.209 HD
ENDBRANCH  43  44
ENDBRANCH  40  43
ENDBRANCH  37  40
ENDBRANCH  34  37
ENDBRANCH   4  34
ENDBRANCH   3   4
TORSDOF 12
ENDMDL
MODEL 4
REMARK VINA RESULT: -2.938811489      1.596      1.625
REMARK  12 active torsions:
REMARK  status: ('A' for Active; 'I' for Inactive)
REMARK    1  A    between atoms: C2_3  and  C3_4 
REMARK    2  A    between atoms: C3_4  and  C4_5 
REMARK    3  A    between atoms: C3_4  and  N10_34 
REMARK    4  A    between atoms: C4_5  and  N2_6 
REMARK    5  A    between atoms: N3_8  and  C5_10 
REMARK    6  A    between atoms: C9_18  and  N6_19 
REMARK    7  A    between atoms: N10_34  and  C14_37 
REMARK    8  A    between atoms: C14_37  and  O2_38 
REMARK    9  A    between atoms: C14_37  and  C15_40 
REMARK   10  A    between atoms: C15_40  and  O3_41 
REMARK   11  A    between atoms: C15_40  and  C16_43 
REMARK   12  A    between atoms: C16_43  and  O4_44 
ROOT
HETATM    1  N1  UNL     1      62.000  14.335  32.764  1.00  0.00    -0.197 NA
HETATM    2  C1  UNL     1      61.006  14.397  32.170  1.00  0.00     0.061 C 
HETATM    3  C2  UNL     1      59.757  14.457  31.398  1.00  0.00     0.158 C 
ENDROOT
BRANCH   3   4
HETATM    4  C3  UNL     1      58.552  14.112  32.199  1.00  0.00     0.221 C 
BRANCH   4   5
HETATM    5  C4  UNL     1      58.211  12.637  32.176  1.00  0.00     0.173 C 
BRANCH   5   6
HETATM    6  N2  UNL     1      58.292  12.028  30.889  1.00  0.00    -0.334 N 
HETATM    7  N3  UNL     1      57.936  10.803  30.797  1.00  0.00    -0.303 N 
ATOM      8  H3  UNL     1      57.618  10.345  31.652  1.00  0.00     0.186 HD
ATOM      9  H2  UNL     1      58.621  12.548  30.076  1.00  0.00     0.180 HD
BRANCH   7  10
HETATM   10  C5  UNL     1      57.945  10.035  29.631  1.00  0.00     0.075 A 
HETATM   11  C6  UNL     1      59.175   9.812  28.977  1.00  0.00     0.021 A 
HETATM   12  C7  UNL     1      59.231   9.068  27.832  1.00  0.00     0.112 A 
HETATM   13  C13 UNL     1      60.533  10.267  29.307  1.00  0.00     0.166 A 
HETATM   14  N4  UNL     1      58.079   8.536  27.320  1.00  0.00    -0.336 N 
HETATM   15  C12 UNL     1      60.614   8.993  27.376  1.00  0.00     0.269 A 
HETATM   16  C8  UNL     1      56.889   8.721  27.904  1.00  0.00     0.138 A 
ATOM     17  H4  UNL     1      58.129   7.982  26.465  1.00  0.00     0.168 HD
HETATM   18  N5  UNL     1      55.743   8.212  27.423  1.00  0.00    -0.176 N 
HETATM   19  C11 UNL     1      56.830   9.480  29.072  1.00  0.00     0.081 A 
HETATM   20  C9  UNL     1      54.539   8.388  27.998  1.00  0.00     0.679 A 
ATOM     21  H5  UNL     1      55.788   7.656  26.569  1.00  0.00     0.186 HD
HETATM   22  N7  UNL     1      54.481   9.121  29.127  1.00  0.00    -0.176 N 
HETATM   23  C10 UNL     1      55.605   9.669  29.673  1.00  0.00     0.131 A 
ATOM     24  H7  UNL     1      53.580   9.269  29.582  1.00  0.00     0.186 HD
HETATM   25  N8  UNL     1      55.538  10.368  30.753  1.00  0.00    -0.384 N 
ATOM     26  H82 UNL     1      54.631  10.509  31.198  1.00  0.00     0.157 HD
ATOM     27  H81 UNL     1      56.378  10.778  31.161  1.00  0.00     0.157 HD
HETATM   28  O1  UNL     1      61.016   8.377  26.338  1.00  0.00    -0.266 OA
HETATM   29  N9  UNL     1      61.389   9.728  28.299  1.00  0.00    -0.351 N 
ATOM     30  H9  UNL     1      62.400   9.853  28.254  1.00  0.00     0.163 HD
BRANCH  20  31
HETATM   31  N6  UNL     1      53.451   7.867  27.481  1.00  0.00    -0.234 N 
ATOM     32  H62 UNL     1      53.274   7.921  26.478  1.00  0.00     0.174 HD
ATOM     33  H61 UNL     1      52.757   7.397  28.063  1.00  0.00     0.174 HD
ENDBRANCH  20  31
ENDBRANCH   7  10
ENDBRANCH   5   6
ENDBRANCH   4   5
BRANCH   4  34
HETATM   34  N10 UNL     1      57.424  14.941  31.938  1.00  0.00    -0.040 N 
ATOM     35 2H10 UNL     1      57.401  15.225  30.959  1.00  0.00     0.280 HD
ATOM     36 1H10 UNL     1      56.560  14.401  31.976  1.00  0.00     0.280 HD
BRANCH  34  37
HETATM   37  C14 UNL     1      57.351  16.088  32.808  1.00  0.00     0.350 C 
BRANCH  37  38
HETATM   38  O2  UNL     1      58.601  16.369  33.393  1.00  0.00    -0.368 OA
ATOM     39  H2  UNL     1      58.588  17.199  33.856  1.00  0.00     0.212 HD
ENDBRANCH  37  38
BRANCH  37  40
HETATM   40  C15 UNL     1      56.358  15.809  33.940  1.00  0.00     0.198 C 
BRANCH  40  41
HETATM   41  O3  UNL     1      56.664  16.534  35.090  1.00  0.00    -0.389 OA
ATOM     42  H3  UNL     1      57.169  16.021  35.709  1.00  0.00     0.210 HD
ENDBRANCH  40  41
BRANCH  40  43
HETATM   43  C16 UNL     1      54.988  16.266  33.492  1.00  0.00     0.200 C 
BRANCH  43  44
HETATM   44  O4  UNL     1      53.964  15.420  33.869  1.00  0.00    -0.398 OA
ATOM     45  H4  UNL     1      53.096  15.751  33.668  1.00  0.00     0.209 HD
ENDBRANCH  43  44
ENDBRANCH  40  43
ENDBRANCH  37  40
ENDBRANCH  34  37
ENDBRANCH   4  34
ENDBRANCH   3   4
TORSDOF 12
ENDMDL
MODEL 5
REMARK VINA RESULT: -2.413407052      1.591      3.664
REMARK  12 active torsions:
REMARK  status: ('A' for Active; 'I' for Inactive)
REMARK    1  A    between atoms: C2_3  and  C3_4 
REMARK    2  A    between atoms: C3_4  and  C4_5 
REMARK    3  A    between atoms: C3_4  and  N10_34 
REMARK    4  A    between atoms: C4_5  and  N2_6 
REMARK    5  A    between atoms: N3_8  and  C5_10 
REMARK    6  A    between atoms: C9_18  and  N6_19 
REMARK    7  A    between atoms: N10_34  and  C14_37 
REMARK    8  A    between atoms: C14_37  and  O2_38 
REMARK    9  A    between atoms: C14_37  and  C15_40 
REMARK   10  A    between atoms: C15_40  and  O3_41 
REMARK   11  A    between atoms: C15_40  and  C16_43 
REMARK   12  A    between atoms: C16_43  and  O4_44 
ROOT
HETATM    1  N1  UNL     1      62.361  14.065  33.364  1.00  0.00    -0.197 NA
HETATM    2  C1  UNL     1      61.558  14.281  32.556  1.00  0.00     0.061 C 
HETATM    3  C2  UNL     1      60.553  14.535  31.514  1.00  0.00     0.158 C 
ENDROOT
BRANCH   3   4
HETATM    4  C3  UNL     1      59.157  14.307  31.974  1.00  0.00     0.221 C 
BRANCH   4   5
HETATM    5  C4  UNL     1      58.176  14.078  30.843  1.00  0.00     0.173 C 
BRANCH   5   6
HETATM    6  N2  UNL     1      57.788  12.718  30.660  1.00  0.00    -0.334 N 
HETATM    7  N3  UNL     1      57.642  12.307  29.457  1.00  0.00    -0.303 N 
ATOM      8  H3  UNL     1      57.813  12.982  28.711  1.00  0.00     0.186 HD
ATOM      9  H2  UNL     1      57.633  12.099  31.455  1.00  0.00     0.180 HD
BRANCH   7  10
HETATM   10  C5  UNL     1      57.268  11.018  29.074  1.00  0.00     0.075 A 
HETATM   11  C6  UNL     1      56.016  10.834  28.450  1.00  0.00     0.021 A 
HETATM   12  C7  UNL     1      55.609   9.590  28.058  1.00  0.00     0.112 A 
HETATM   13  C13 UNL     1      54.962  11.801  28.110  1.00  0.00     0.166 A 
HETATM   14  N4  UNL     1      56.426   8.515  28.277  1.00  0.00    -0.336 N 
HETATM   15  C12 UNL     1      54.291   9.689  27.441  1.00  0.00     0.269 A 
HETATM   16  C8  UNL     1      57.622   8.639  28.866  1.00  0.00     0.138 A 
ATOM     17  H4  UNL     1      56.115   7.590  27.982  1.00  0.00     0.168 HD
HETATM   18  N5  UNL     1      58.445   7.603  29.093  1.00  0.00    -0.176 N 
HETATM   19  C11 UNL     1      58.040   9.908  29.266  1.00  0.00     0.081 A 
HETATM   20  C9  UNL     1      59.650   7.711  29.684  1.00  0.00     0.679 A 
ATOM     21  H5  UNL     1      58.139   6.676  28.799  1.00  0.00     0.186 HD
HETATM   22  N7  UNL     1      60.055   8.936  30.070  1.00  0.00    -0.176 N 
HETATM   23  C10 UNL     1      59.270  10.036  29.871  1.00  0.00     0.131 A 
ATOM     24  H7  UNL     1      60.964   9.044  30.520  1.00  0.00     0.186 HD
HETATM   25  N8  UNL     1      59.668  11.203  30.244  1.00  0.00    -0.384 N 
ATOM     26  H82 UNL     1      60.579  11.297  30.693  1.00  0.00     0.157 HD
ATOM     27  H81 UNL     1      59.082  12.024  30.095  1.00  0.00     0.157 HD
HETATM   28  O1  UNL     1      53.623   8.715  26.968  1.00  0.00    -0.266 OA
HETATM   29  N9  UNL     1      53.924  11.052  27.479  1.00  0.00    -0.351 N 
ATOM     30  H9  UNL     1      53.055  11.439  27.113  1.00  0.00     0.163 HD
BRANCH  20  31
HETATM   31  N6  UNL     1      60.411   6.661  29.882  1.00  0.00    -0.234 N 
ATOM     32  H62 UNL     1      60.094   5.729  29.613  1.00  0.00     0.174 HD
ATOM     33  H61 UNL     1      61.335   6.745  30.307  1.00  0.00     0.174 HD
ENDBRANCH  20  31
ENDBRANCH   7  10
ENDBRANCH   5   6
ENDBRANCH   4   5
BRANCH   4  34
HETATM   34  N10 UNL     1      58.692  15.266  32.918  1.00  0.00    -0.040 N 
ATOM     35 2H10 UNL     1      58.678  14.872  33.859  1.00  0.00     0.280 HD
ATOM     36 1H10 UNL     1      59.382  16.004  33.056  1.00  0.00     0.280 HD
BRANCH  34  37
HETATM   37  C14 UNL     1      57.408  15.822  32.575  1.00  0.00     0.350 C 
BRANCH  37  38
HETATM   38  O2  UNL     1      57.514  17.183  32.227  1.00  0.00    -0.368 OA
ATOM     39  H2  UNL     1      56.659  17.595  32.175  1.00  0.00     0.212 HD
ENDBRANCH  37  38
BRANCH  37  40
HETATM   40  C15 UNL     1      56.468  15.721  33.780  1.00  0.00     0.198 C 
BRANCH  40  41
HETATM   41  O3  UNL     1      56.903  16.504  34.847  1.00  0.00    -0.389 OA
ATOM     42  H3  UNL     1      56.760  16.076  35.682  1.00  0.00     0.210 HD
ENDBRANCH  40  41
BRANCH  40  43
HETATM   43  C16 UNL     1      55.116  16.262  33.371  1.00  0.00     0.200 C 
BRANCH  43  44
HETATM   44  O4  UNL     1      54.049  15.537  33.867  1.00  0.00    -0.398 OA
ATOM     45  H4  UNL     1      54.052  14.622  33.611  1.00  0.00     0.209 HD
ENDBRANCH  43  44
ENDBRANCH  40  43
ENDBRANCH  37  40
ENDBRANCH  34  37
ENDBRANCH   4  34
ENDBRANCH   3   4
TORSDOF 12
ENDMDL
