MODEL 1
REMARK VINA RESULT: -5.083909823      0.000      0.000
REMARK  13 active torsions:
REMARK  status: ('A' for Active; 'I' for Inactive)
REMARK    1  A    between atoms: C3_5  and  N2_6 
REMARK    2  A    between atoms: N2_6  and  C4_8 
REMARK    3  A    between atoms: C4_8  and  C5_9 
REMARK    4  A    between atoms: C5_9  and  C6_10 
REMARK    5  A    between atoms: C6_10  and  C7_11 
REMARK    6  A    between atoms: C7_11  and  O1_12 
REMARK    7  A    between atoms: C8_16  and  N4_17 
REMARK    8  A    between atoms: C9_20  and  N5_21 
REMARK    9  A    between atoms: N5_21  and  C10_23 
REMARK   10  A    between atoms: C11_26  and  S1_27 
REMARK   11  A    between atoms: S1_27  and  C12_28 
REMARK   12  A    between atoms: C13_33  and  N9_34 
REMARK   13  A    between atoms: N10_37  and  N11_38 
ROOT
HETATM    1  C10 UNL     1      56.276  11.077  29.205  1.00  0.00     0.701 A 
HETATM    2  N6  UNL     1      57.035  11.111  30.328  1.00  0.00    -0.167 N 
ATOM      3  H6  UNL     1      57.001  10.430  31.086  1.00  0.00     0.186 HD
HETATM    4  C11 UNL     1      57.836  12.184  30.285  1.00  0.00     0.182 A 
HETATM    5  N12 UNL     1      57.577  12.819  29.136  1.00  0.00    -0.263 N 
ATOM      6  H12 UNL     1      58.030  13.675  28.816  1.00  0.00     0.190 HD
HETATM    7  N13 UNL     1      56.624  12.146  28.473  1.00  0.00    -0.126 N 
HETATM    8  C14 UNL     1      56.080  12.530  27.184  1.00  0.00     0.197 C 
ENDROOT
BRANCH   1   9
HETATM    9  N5  UNL     1      55.407  10.219  28.886  1.00  0.00    -0.184 N 
ATOM     10  H5  UNL     1      54.457  10.411  29.204  1.00  0.00     0.184 HD
BRANCH   9  11
HETATM   11  C9  UNL     1      55.572   9.043  28.155  1.00  0.00     0.116 A 
HETATM   12  C2  UNL     1      56.778   8.406  27.937  1.00  0.00     0.053 A 
HETATM   13  C1  UNL     1      58.020   9.006  28.513  1.00  0.00     0.071 C 
HETATM   14  N1  UNL     1      56.808   7.262  27.213  1.00  0.00    -0.194 N 
HETATM   15  C3  UNL     1      55.725   6.695  26.681  1.00  0.00     0.679 A 
ATOM     16  H1  UNL     1      57.710   6.809  27.065  1.00  0.00     0.184 HD
HETATM   17  N3  UNL     1      54.533   7.323  26.895  1.00  0.00    -0.175 N 
HETATM   18  C8  UNL     1      54.462   8.442  27.598  1.00  0.00     0.144 A 
ATOM     19  H3  UNL     1      53.680   6.922  26.505  1.00  0.00     0.186 HD
BRANCH  15  20
HETATM   20  N2  UNL     1      55.733   5.603  25.992  1.00  0.00    -0.226 N 
ATOM     21  H2  UNL     1      56.313   5.531  25.156  1.00  0.00     0.177 HD
BRANCH  20  22
HETATM   22  C4  UNL     1      54.932   4.502  26.397  1.00  0.00     0.138 C 
BRANCH  22  23
HETATM   23  C5  UNL     1      54.637   3.475  25.365  1.00  0.00     0.022 C 
BRANCH  23  24
HETATM   24  C6  UNL     1      55.471   3.466  24.145  1.00  0.00     0.028 C 
BRANCH  24  25
HETATM   25  C7  UNL     1      56.842   2.912  24.241  1.00  0.00     0.164 C 
BRANCH  25  26
HETATM   26  O1  UNL     1      57.641   3.912  24.862  1.00  0.00    -0.401 OA
ATOM     27  H1  UNL     1      58.546   3.674  24.702  1.00  0.00     0.209 HD
ENDBRANCH  25  26
ENDBRANCH  24  25
ENDBRANCH  23  24
ENDBRANCH  22  23
ENDBRANCH  20  22
ENDBRANCH  15  20
BRANCH  18  28
HETATM   28  N4  UNL     1      53.284   8.979  27.751  1.00  0.00    -0.383 N 
ATOM     29  H42 UNL     1      52.514   8.422  28.121  1.00  0.00     0.157 HD
ATOM     30  H41 UNL     1      53.179   9.959  27.490  1.00  0.00     0.157 HD
ENDBRANCH  18  28
ENDBRANCH   9  11
ENDBRANCH   1   9
BRANCH   4  31
HETATM   31  S1  UNL     1      59.017  12.678  31.502  1.00  0.00    -0.012 SA
BRANCH  31  32
HETATM   32  C12 UNL     1      58.705  14.348  32.071  1.00  0.00     0.206 A 
HETATM   33  N7  UNL     1      57.521  14.804  32.530  1.00  0.00    -0.263 N 
HETATM   34  N8  UNL     1      57.604  16.076  32.874  1.00  0.00    -0.129 N 
ATOM     35  H7  UNL     1      56.674  14.240  32.601  1.00  0.00     0.189 HD
HETATM   36  C13 UNL     1      58.870  16.451  32.633  1.00  0.00     0.713 A 
ATOM     37  H8  UNL     1      56.855  16.658  33.249  1.00  0.00     0.205 HD
HETATM   38  N10 UNL     1      59.563  15.387  32.134  1.00  0.00    -0.067 N 
BRANCH  36  39
HETATM   39  N9  UNL     1      59.392  17.625  32.830  1.00  0.00    -0.231 N 
ATOM     40  H92 UNL     1      59.500  18.050  33.751  1.00  0.00     0.174 HD
ATOM     41  H91 UNL     1      59.755  18.265  32.122  1.00  0.00     0.174 HD
ENDBRANCH  36  39
BRANCH  38  42
HETATM   42  N11 UNL     1      60.900  15.354  31.756  1.00  0.00    -0.322 N 
ATOM     43 2H11 UNL     1      61.605  14.670  32.030  1.00  0.00     0.178 HD
ATOM     44 1H11 UNL     1      61.358  16.026  31.140  1.00  0.00     0.178 HD
ENDBRANCH  38  42
ENDBRANCH  31  32
ENDBRANCH   4  31
TORSDOF 13
ENDMDL
MODEL 2
REMARK VINA RESULT: -4.373950689      0.459      1.132
REMARK  13 active torsions:
REMARK  status: ('A' for Active; 'I' for Inactive)
REMARK    1  A    between atoms: C3_5  and  N2_6 
REMARK    2  A    between atoms: N2_6  and  C4_8 
REMARK    3  A    between atoms: C4_8  and  C5_9 
REMARK    4  A    between atoms: C5_9  and  C6_10 
REMARK    5  A    between atoms: C6_10  and  C7_11 
REMARK    6  A    between atoms: C7_11  and  O1_12 
REMARK    7  A    between atoms: C8_16  and  N4_17 
REMARK    8  A    between atoms: C9_20  and  N5_21 
REMARK    9  A    between atoms: N5_21  and  C10_23 
REMARK   10  A    between atoms: C11_26  and  S1_27 
REMARK   11  A    between atoms: S1_27  and  C12_28 
REMARK   12  A    between atoms: C13_33  and  N9_34 
REMARK   13  A    between atoms: N10_37  and  N11_38 
ROOT
HETATM    1  C10 UNL     1      56.416  11.233  29.265  1.00  0.00     0.701 A 
HETATM    2  N6  UNL     1      57.144  11.214  30.410  1.00  0.00    -0.167 N 
ATOM      3  H6  UNL     1      57.048  10.530  31.160  1.00  0.00     0.186 HD
HETATM    4  C11 UNL     1      58.009  12.237  30.399  1.00  0.00     0.182 A 
HETATM    5  N12 UNL     1      57.821  12.895  29.249  1.00  0.00    -0.263 N 
ATOM      6  H12 UNL     1      58.332  13.725  28.950  1.00  0.00     0.190 HD
HETATM    7  N13 UNL     1      56.849  12.285  28.553  1.00  0.00    -0.126 N 
HETATM    8  C14 UNL     1      56.365  12.711  27.253  1.00  0.00     0.197 C 
ENDROOT
BRANCH   1   9
HETATM    9  N5  UNL     1      55.507  10.432  28.913  1.00  0.00    -0.184 N 
ATOM     10  H5  UNL     1      54.560  10.688  29.191  1.00  0.00     0.184 HD
BRANCH   9  11
HETATM   11  C9  UNL     1      55.626   9.241  28.196  1.00  0.00     0.116 A 
HETATM   12  C2  UNL     1      56.795   8.524  28.036  1.00  0.00     0.053 A 
HETATM   13  C1  UNL     1      58.047   9.044  28.664  1.00  0.00     0.071 C 
HETATM   14  N1  UNL     1      56.781   7.375  27.318  1.00  0.00    -0.194 N 
HETATM   15  C3  UNL     1      55.687   6.878  26.740  1.00  0.00     0.679 A 
ATOM     16  H1  UNL     1      57.656   6.862  27.214  1.00  0.00     0.184 HD
HETATM   17  N3  UNL     1      54.532   7.586  26.898  1.00  0.00    -0.175 N 
HETATM   18  C8  UNL     1      54.504   8.713  27.592  1.00  0.00     0.144 A 
ATOM     19  H3  UNL     1      53.672   7.240  26.471  1.00  0.00     0.186 HD
BRANCH  15  20
HETATM   20  N2  UNL     1      55.652   5.783  26.057  1.00  0.00    -0.226 N 
ATOM     21  H2  UNL     1      56.192   5.702  25.196  1.00  0.00     0.177 HD
BRANCH  20  22
HETATM   22  C4  UNL     1      54.860   4.691  26.505  1.00  0.00     0.138 C 
BRANCH  22  23
HETATM   23  C5  UNL     1      54.702   3.552  25.565  1.00  0.00     0.022 C 
BRANCH  23  24
HETATM   24  C6  UNL     1      55.447   3.603  24.290  1.00  0.00     0.028 C 
BRANCH  24  25
HETATM   25  C7  UNL     1      56.850   3.126  24.282  1.00  0.00     0.164 C 
BRANCH  25  26
HETATM   26  O1  UNL     1      57.598   4.052  25.061  1.00  0.00    -0.401 OA
ATOM     27  H1  UNL     1      58.376   3.594  25.354  1.00  0.00     0.209 HD
ENDBRANCH  25  26
ENDBRANCH  24  25
ENDBRANCH  23  24
ENDBRANCH  22  23
ENDBRANCH  20  22
ENDBRANCH  15  20
BRANCH  18  28
HETATM   28  N4  UNL     1      53.359   9.327  27.689  1.00  0.00    -0.383 N 
ATOM     29  H42 UNL     1      52.598   9.094  27.052  1.00  0.00     0.157 HD
ATOM     30  H41 UNL     1      53.268  10.034  28.419  1.00  0.00     0.157 HD
ENDBRANCH  18  28
ENDBRANCH   9  11
ENDBRANCH   1   9
BRANCH   4  31
HETATM   31  S1  UNL     1      59.181  12.650  31.653  1.00  0.00    -0.012 SA
BRANCH  31  32
HETATM   32  C12 UNL     1      59.310  14.425  31.864  1.00  0.00     0.206 A 
HETATM   33  N7  UNL     1      60.393  15.167  31.558  1.00  0.00    -0.263 N 
HETATM   34  N8  UNL     1      60.186  16.444  31.825  1.00  0.00    -0.129 N 
ATOM     35  H7  UNL     1      61.259  14.791  31.171  1.00  0.00     0.189 HD
HETATM   36  C13 UNL     1      58.939  16.528  32.315  1.00  0.00     0.713 A 
ATOM     37  H8  UNL     1      60.842  17.212  31.687  1.00  0.00     0.205 HD
HETATM   38  N10 UNL     1      58.385  15.282  32.344  1.00  0.00    -0.067 N 
BRANCH  36  39
HETATM   39  N9  UNL     1      58.321  17.603  32.708  1.00  0.00    -0.231 N 
ATOM     40  H92 UNL     1      58.701  18.544  32.606  1.00  0.00     0.174 HD
ATOM     41  H91 UNL     1      57.406  17.658  33.156  1.00  0.00     0.174 HD
ENDBRANCH  36  39
BRANCH  38  42
HETATM   42  N11 UNL     1      57.112  14.935  32.781  1.00  0.00    -0.322 N 
ATOM     43 2H11 UNL     1      56.794  14.019  33.097  1.00  0.00     0.178 HD
ATOM     44 1H11 UNL     1      56.313  15.567  32.841  1.00  0.00     0.178 HD
ENDBRANCH  38  42
ENDBRANCH  31  32
ENDBRANCH   4  31
TORSDOF 13
ENDMDL
MODEL 3
REMARK VINA RESULT: -4.301789559      0.972      1.763
REMARK  13 active torsions:
REMARK  status: ('A' for Active; 'I' for Inactive)
REMARK    1  A    between atoms: C3_5  and  N2_6 
REMARK    2  A    between atoms: N2_6  and  C4_8 
REMARK    3  A    between atoms: C4_8  and  C5_9 
REMARK    4  A    between atoms: C5_9  and  C6_10 
REMARK    5  A    between atoms: C6_10  and  C7_11 
REMARK    6  A    between atoms: C7_11  and  O1_12 
REMARK    7  A    between atoms: C8_16  and  N4_17 
REMARK    8  A    between atoms: C9_20  and  N5_21 
REMARK    9  A    between atoms: N5_21  and  C10_23 
REMARK   10  A    between atoms: C11_26  and  S1_27 
REMARK   11  A    between atoms: S1_27  and  C12_28 
REMARK   12  A    between atoms: C13_33  and  N9_34 
REMARK   13  A    between atoms: N10_37  and  N11_38 
ROOT
HETATM    1  C10 UNL     1      56.315  10.957  29.262  1.00  0.00     0.701 A 
HETATM    2  N6  UNL     1      57.089  11.003  30.375  1.00  0.00    -0.167 N 
ATOM      3  H6  UNL     1      57.095  10.306  31.120  1.00  0.00     0.186 HD
HETATM    4  C11 UNL     1      57.844  12.109  30.342  1.00  0.00     0.182 A 
HETATM    5  N12 UNL     1      57.542  12.754  29.208  1.00  0.00    -0.263 N 
ATOM      6  H12 UNL     1      57.954  13.634  28.899  1.00  0.00     0.190 HD
HETATM    7  N13 UNL     1      56.609  12.053  28.546  1.00  0.00    -0.126 N 
HETATM    8  C14 UNL     1      56.030  12.439  27.273  1.00  0.00     0.197 C 
ENDROOT
BRANCH   1   9
HETATM    9  N5  UNL     1      55.479  10.070  28.938  1.00  0.00    -0.184 N 
ATOM     10  H5  UNL     1      54.542  10.183  29.326  1.00  0.00     0.184 HD
BRANCH   9  11
HETATM   11  C9  UNL     1      55.664   8.955  28.121  1.00  0.00     0.116 A 
HETATM   12  C2  UNL     1      54.668   8.326  27.399  1.00  0.00     0.053 A 
HETATM   13  C1  UNL     1      53.274   8.856  27.488  1.00  0.00     0.071 C 
HETATM   14  N1  UNL     1      54.976   7.251  26.634  1.00  0.00    -0.194 N 
HETATM   15  C3  UNL     1      56.205   6.746  26.529  1.00  0.00     0.679 A 
ATOM     16  H1  UNL     1      54.225   6.803  26.110  1.00  0.00     0.184 HD
HETATM   17  N3  UNL     1      57.189   7.367  27.241  1.00  0.00    -0.175 N 
HETATM   18  C8  UNL     1      56.929   8.420  28.000  1.00  0.00     0.144 A 
ATOM     19  H3  UNL     1      58.144   7.012  27.189  1.00  0.00     0.186 HD
BRANCH  15  20
HETATM   20  N2  UNL     1      56.519   5.726  25.802  1.00  0.00    -0.226 N 
ATOM     21  H2  UNL     1      56.879   5.864  24.858  1.00  0.00     0.177 HD
BRANCH  20  22
HETATM   22  C4  UNL     1      56.362   4.411  26.318  1.00  0.00     0.138 C 
BRANCH  22  23
HETATM   23  C5  UNL     1      54.984   3.855  26.320  1.00  0.00     0.022 C 
BRANCH  23  24
HETATM   24  C6  UNL     1      54.394   3.473  25.021  1.00  0.00     0.028 C 
BRANCH  24  25
HETATM   25  C7  UNL     1      55.313   3.123  23.912  1.00  0.00     0.164 C 
BRANCH  25  26
HETATM   26  O1  UNL     1      54.672   3.532  22.710  1.00  0.00    -0.401 OA
ATOM     27  H1  UNL     1      55.069   3.031  22.007  1.00  0.00     0.209 HD
ENDBRANCH  25  26
ENDBRANCH  24  25
ENDBRANCH  23  24
ENDBRANCH  22  23
ENDBRANCH  20  22
ENDBRANCH  15  20
BRANCH  18  28
HETATM   28  N4  UNL     1      57.927   8.950  28.650  1.00  0.00    -0.383 N 
ATOM     29  H42 UNL     1      58.876   8.865  28.286  1.00  0.00     0.157 HD
ATOM     30  H41 UNL     1      57.711   9.442  29.516  1.00  0.00     0.157 HD
ENDBRANCH  18  28
ENDBRANCH   9  11
ENDBRANCH   1   9
BRANCH   4  31
HETATM   31  S1  UNL     1      59.021  12.629  31.551  1.00  0.00    -0.012 SA
BRANCH  31  32
HETATM   32  C12 UNL     1      58.711  14.313  32.079  1.00  0.00     0.206 A 
HETATM   33  N7  UNL     1      57.528  14.781  32.525  1.00  0.00    -0.263 N 
HETATM   34  N8  UNL     1      57.612  16.062  32.839  1.00  0.00    -0.129 N 
ATOM     35  H7  UNL     1      56.680  14.220  32.610  1.00  0.00     0.189 HD
HETATM   36  C13 UNL     1      58.878  16.428  32.589  1.00  0.00     0.713 A 
ATOM     37  H8  UNL     1      56.863  16.654  33.199  1.00  0.00     0.205 HD
HETATM   38  N10 UNL     1      59.571  15.352  32.117  1.00  0.00    -0.067 N 
BRANCH  36  39
HETATM   39  N9  UNL     1      59.402  17.607  32.756  1.00  0.00    -0.231 N 
ATOM     40  H92 UNL     1      58.892  18.404  33.137  1.00  0.00     0.174 HD
ATOM     41  H91 UNL     1      60.357  17.893  32.540  1.00  0.00     0.174 HD
ENDBRANCH  36  39
BRANCH  38  42
HETATM   42  N11 UNL     1      60.907  15.308  31.739  1.00  0.00    -0.322 N 
ATOM     43 2H11 UNL     1      61.444  14.489  31.454  1.00  0.00     0.178 HD
ATOM     44 1H11 UNL     1      61.538  16.109  31.699  1.00  0.00     0.178 HD
ENDBRANCH  38  42
ENDBRANCH  31  32
ENDBRANCH   4  31
TORSDOF 13
ENDMDL
MODEL 4
REMARK VINA RESULT: -3.640511815      1.150      1.636
REMARK  13 active torsions:
REMARK  status: ('A' for Active; 'I' for Inactive)
REMARK    1  A    between atoms: C3_5  and  N2_6 
REMARK    2  A    between atoms: N2_6  and  C4_8 
REMARK    3  A    between atoms: C4_8  and  C5_9 
REMARK    4  A    between atoms: C5_9  and  C6_10 
REMARK    5  A    between atoms: C6_10  and  C7_11 
REMARK    6  A    between atoms: C7_11  and  O1_12 
REMARK    7  A    between atoms: C8_16  and  N4_17 
REMARK    8  A    between atoms: C9_20  and  N5_21 
REMARK    9  A    between atoms: N5_21  and  C10_23 
REMARK   10  A    between atoms: C11_26  and  S1_27 
REMARK   11  A    between atoms: S1_27  and  C12_28 
REMARK   12  A    between atoms: C13_33  and  N9_34 
REMARK   13  A    between atoms: N10_37  and  N11_38 
ROOT
HETATM    1  C10 UNL     1      56.953  11.348  29.715  1.00  0.00     0.701 A 
HETATM    2  N6  UNL     1      57.827  11.662  30.703  1.00  0.00    -0.167 N 
ATOM      3  H6  UNL     1      57.964  11.130  31.562  1.00  0.00     0.186 HD
HETATM    4  C11 UNL     1      58.481  12.784  30.373  1.00  0.00     0.182 A 
HETATM    5  N12 UNL     1      58.016  13.169  29.179  1.00  0.00    -0.263 N 
ATOM      6  H12 UNL     1      58.321  13.994  28.662  1.00  0.00     0.190 HD
HETATM    7  N13 UNL     1      57.083  12.295  28.773  1.00  0.00    -0.126 N 
HETATM    8  C14 UNL     1      56.351  12.382  27.523  1.00  0.00     0.197 C 
ENDROOT
BRANCH   1   9
HETATM    9  N5  UNL     1      56.165  10.364  29.664  1.00  0.00    -0.184 N 
ATOM     10  H5  UNL     1      55.484  10.303  30.421  1.00  0.00     0.184 HD
BRANCH   9  11
HETATM   11  C9  UNL     1      56.100   9.348  28.710  1.00  0.00     0.116 A 
HETATM   12  C2  UNL     1      57.140   8.500  28.382  1.00  0.00     0.053 A 
HETATM   13  C1  UNL     1      58.449   8.666  29.083  1.00  0.00     0.071 C 
HETATM   14  N1  UNL     1      56.951   7.546  27.440  1.00  0.00    -0.194 N 
HETATM   15  C3  UNL     1      55.801   7.365  26.790  1.00  0.00     0.679 A 
ATOM     16  H1  UNL     1      57.732   6.930  27.214  1.00  0.00     0.184 HD
HETATM   17  N3  UNL     1      54.773   8.202  27.113  1.00  0.00    -0.175 N 
HETATM   18  C8  UNL     1      54.918   9.147  28.029  1.00  0.00     0.144 A 
ATOM     19  H3  UNL     1      53.876   8.099  26.639  1.00  0.00     0.186 HD
BRANCH  15  20
HETATM   20  N2  UNL     1      55.600   6.459  25.893  1.00  0.00    -0.226 N 
ATOM     21  H2  UNL     1      55.535   6.720  24.909  1.00  0.00     0.177 HD
BRANCH  20  22
HETATM   22  C4  UNL     1      55.469   5.097  26.276  1.00  0.00     0.138 C 
BRANCH  22  23
HETATM   23  C5  UNL     1      56.495   4.156  25.756  1.00  0.00     0.022 C 
BRANCH  23  24
HETATM   24  C6  UNL     1      56.094   3.226  24.681  1.00  0.00     0.028 C 
BRANCH  24  25
HETATM   25  C7  UNL     1      54.677   3.230  24.247  1.00  0.00     0.164 C 
BRANCH  25  26
HETATM   26  O1  UNL     1      54.674   3.612  22.876  1.00  0.00    -0.401 OA
ATOM     27  H1  UNL     1      55.247   3.004  22.424  1.00  0.00     0.209 HD
ENDBRANCH  25  26
ENDBRANCH  24  25
ENDBRANCH  23  24
ENDBRANCH  22  23
ENDBRANCH  20  22
ENDBRANCH  15  20
BRANCH  18  28
HETATM   28  N4  UNL     1      53.887   9.905  28.274  1.00  0.00    -0.383 N 
ATOM     29  H42 UNL     1      53.241  10.148  27.522  1.00  0.00     0.157 HD
ATOM     30  H41 UNL     1      53.763  10.232  29.232  1.00  0.00     0.157 HD
ENDBRANCH  18  28
ENDBRANCH   9  11
ENDBRANCH   1   9
BRANCH   4  31
HETATM   31  S1  UNL     1      59.724  13.606  31.320  1.00  0.00    -0.012 SA
BRANCH  31  32
HETATM   32  C12 UNL     1      59.046  15.006  32.209  1.00  0.00     0.206 A 
HETATM   33  N7  UNL     1      59.550  16.256  32.190  1.00  0.00    -0.263 N 
HETATM   34  N8  UNL     1      58.832  17.069  32.945  1.00  0.00    -0.129 N 
ATOM     35  H7  UNL     1      60.377  16.537  31.663  1.00  0.00     0.189 HD
HETATM   36  C13 UNL     1      57.841  16.326  33.462  1.00  0.00     0.713 A 
ATOM     37  H8  UNL     1      58.997  18.062  33.102  1.00  0.00     0.205 HD
HETATM   38  N10 UNL     1      57.963  15.043  33.012  1.00  0.00    -0.067 N 
BRANCH  36  39
HETATM   39  N9  UNL     1      56.897  16.723  34.263  1.00  0.00    -0.231 N 
ATOM     40  H92 UNL     1      55.903  16.661  34.041  1.00  0.00     0.174 HD
ATOM     41  H91 UNL     1      57.008  17.137  35.189  1.00  0.00     0.174 HD
ENDBRANCH  36  39
BRANCH  38  42
HETATM   42  N11 UNL     1      57.141  13.963  33.312  1.00  0.00    -0.322 N 
ATOM     43 2H11 UNL     1      57.072  13.079  32.808  1.00  0.00     0.178 HD
ATOM     44 1H11 UNL     1      56.485  13.915  34.092  1.00  0.00     0.178 HD
ENDBRANCH  38  42
ENDBRANCH  31  32
ENDBRANCH   4  31
TORSDOF 13
ENDMDL
MODEL 5
REMARK VINA RESULT: -3.496858723      1.069      2.093
REMARK  13 active torsions:
REMARK  status: ('A' for Active; 'I' for Inactive)
REMARK    1  A    between atoms: C3_5  and  N2_6 
REMARK    2  A    between atoms: N2_6  and  C4_8 
REMARK    3  A    between atoms: C4_8  and  C5_9 
REMARK    4  A    between atoms: C5_9  and  C6_10 
REMARK    5  A    between atoms: C6_10  and  C7_11 
REMARK    6  A    between atoms: C7_11  and  O1_12 
REMARK    7  A    between atoms: C8_16  and  N4_17 
REMARK    8  A    between atoms: C9_20  and  N5_21 
REMARK    9  A    between atoms: N5_21  and  C10_23 
REMARK   10  A    between atoms: C11_26  and  S1_27 
REMARK   11  A    between atoms: S1_27  and  C12_28 
REMARK   12  A    between atoms: C13_33  and  N9_34 
REMARK   13  A    between atoms: N10_37  and  N11_38 
ROOT
HETATM    1  C10 UNL     1      56.559  11.083  29.536  1.00  0.00     0.701 A 
HETATM    2  N6  UNL     1      57.366  11.146  30.624  1.00  0.00    -0.167 N 
ATOM      3  H6  UNL     1      57.370  10.479  31.396  1.00  0.00     0.186 HD
HETATM    4  C11 UNL     1      58.156  12.223  30.525  1.00  0.00     0.182 A 
HETATM    5  N12 UNL     1      57.842  12.832  29.375  1.00  0.00    -0.263 N 
ATOM      6  H12 UNL     1      58.274  13.685  29.019  1.00  0.00     0.190 HD
HETATM    7  N13 UNL     1      56.868  12.139  28.768  1.00  0.00    -0.126 N 
HETATM    8  C14 UNL     1      56.265  12.493  27.496  1.00  0.00     0.197 C 
ENDROOT
BRANCH   1   9
HETATM    9  N5  UNL     1      55.684  10.212  29.271  1.00  0.00    -0.184 N 
ATOM     10  H5  UNL     1      54.817  10.281  29.803  1.00  0.00     0.184 HD
BRANCH   9  11
HETATM   11  C9  UNL     1      55.746   9.168  28.349  1.00  0.00     0.116 A 
HETATM   12  C2  UNL     1      54.696   8.745  27.557  1.00  0.00     0.053 A 
HETATM   13  C1  UNL     1      53.378   9.438  27.684  1.00  0.00     0.071 C 
HETATM   14  N1  UNL     1      54.883   7.719  26.692  1.00  0.00    -0.194 N 
HETATM   15  C3  UNL     1      56.040   7.073  26.550  1.00  0.00     0.679 A 
ATOM     16  H1  UNL     1      54.094   7.424  26.118  1.00  0.00     0.184 HD
HETATM   17  N3  UNL     1      57.078   7.490  27.331  1.00  0.00    -0.175 N 
HETATM   18  C8  UNL     1      56.936   8.489  28.188  1.00  0.00     0.144 A 
ATOM     19  H3  UNL     1      57.981   7.023  27.254  1.00  0.00     0.186 HD
BRANCH  15  20
HETATM   20  N2  UNL     1      56.239   6.098  25.729  1.00  0.00    -0.226 N 
ATOM     21  H2  UNL     1      56.349   6.284  24.732  1.00  0.00     0.177 HD
BRANCH  20  22
HETATM   22  C4  UNL     1      56.305   4.763  26.213  1.00  0.00     0.138 C 
BRANCH  22  23
HETATM   23  C5  UNL     1      55.018   4.029  26.322  1.00  0.00     0.022 C 
BRANCH  23  24
HETATM   24  C6  UNL     1      54.446   3.456  25.086  1.00  0.00     0.028 C 
BRANCH  24  25
HETATM   25  C7  UNL     1      55.368   3.148  23.967  1.00  0.00     0.164 C 
BRANCH  25  26
HETATM   26  O1  UNL     1      54.690   3.515  22.771  1.00  0.00    -0.401 OA
ATOM     27  H1  UNL     1      55.123   3.055  22.062  1.00  0.00     0.209 HD
ENDBRANCH  25  26
ENDBRANCH  24  25
ENDBRANCH  23  24
ENDBRANCH  22  23
ENDBRANCH  20  22
ENDBRANCH  15  20
BRANCH  18  28
HETATM   28  N4  UNL     1      57.977   8.821  28.898  1.00  0.00    -0.383 N 
ATOM     29  H42 UNL     1      58.911   8.544  28.595  1.00  0.00     0.157 HD
ATOM     30  H41 UNL     1      57.811   9.359  29.748  1.00  0.00     0.157 HD
ENDBRANCH  18  28
ENDBRANCH   9  11
ENDBRANCH   1   9
BRANCH   4  31
HETATM   31  S1  UNL     1      59.383  12.750  31.679  1.00  0.00    -0.012 SA
BRANCH  31  32
HETATM   32  C12 UNL     1      59.366  14.531  31.879  1.00  0.00     0.206 A 
HETATM   33  N7  UNL     1      60.389  15.356  31.576  1.00  0.00    -0.263 N 
HETATM   34  N8  UNL     1      60.076  16.614  31.833  1.00  0.00    -0.129 N 
ATOM     35  H7  UNL     1      61.285  15.050  31.198  1.00  0.00     0.189 HD
HETATM   36  C13 UNL     1      58.823  16.600  32.313  1.00  0.00     0.713 A 
ATOM     37  H8  UNL     1      60.669  17.432  31.695  1.00  0.00     0.205 HD
HETATM   38  N10 UNL     1      58.371  15.313  32.347  1.00  0.00    -0.067 N 
BRANCH  36  39
HETATM   39  N9  UNL     1      58.116  17.623  32.695  1.00  0.00    -0.231 N 
ATOM     40  H92 UNL     1      58.518  18.527  32.944  1.00  0.00     0.174 HD
ATOM     41  H91 UNL     1      57.102  17.668  32.797  1.00  0.00     0.174 HD
ENDBRANCH  36  39
BRANCH  38  42
HETATM   42  N11 UNL     1      57.127  14.866  32.777  1.00  0.00    -0.322 N 
ATOM     43 2H11 UNL     1      56.871  13.919  33.055  1.00  0.00     0.178 HD
ATOM     44 1H11 UNL     1      56.290  15.442  32.871  1.00  0.00     0.178 HD
ENDBRANCH  38  42
ENDBRANCH  31  32
ENDBRANCH   4  31
TORSDOF 13
ENDMDL
