MODEL 1
REMARK VINA RESULT: -5.399730825      0.000      0.000
REMARK  11 active torsions:
REMARK  status: ('A' for Active; 'I' for Inactive)
REMARK    1  A    between atoms: C7_7  and  O1_8 
REMARK    2  A    between atoms: O1_8  and  C8_9 
REMARK    3  A    between atoms: C8_9  and  C9_10 
REMARK    4  A    between atoms: C9_10  and  C10_11 
REMARK    5  A    between atoms: C9_10  and  C12_24 
REMARK    6  A    between atoms: N4_20  and  N5_21 
REMARK    7  A    between atoms: C12_24  and  N6_25 
REMARK    8  A    between atoms: C12_24  and  C13_29 
REMARK    9  A    between atoms: C13_29  and  O2_30 
REMARK   10  A    between atoms: C13_29  and  C14_32 
REMARK   11  A    between atoms: C16_37  and  N9_38 
ROOT
HETATM    1  C9  UNL     1      55.535  10.243  29.264  1.00  0.00     0.115 C 
ENDROOT
BRANCH   1   2
HETATM    2  C8  UNL     1      56.802   9.527  29.582  1.00  0.00     0.190 C 
BRANCH   2   3
HETATM    3  O1  UNL     1      57.735   9.299  28.703  1.00  0.00    -0.350 OA
BRANCH   3   4
HETATM    4  C7  UNL     1      58.908   9.446  28.185  1.00  0.00     0.074 A 
HETATM    5  C2  UNL     1      59.974   8.678  28.726  1.00  0.00    -0.029 A 
HETATM    6  C1  UNL     1      59.641   7.773  29.846  1.00  0.00     0.051 C 
HETATM    7  C3  UNL     1      61.256   8.744  28.264  1.00  0.00     0.009 A 
HETATM    8  C4  UNL     1      61.600   9.575  27.224  1.00  0.00     0.001 A 
HETATM    9  C5  UNL     1      60.604  10.328  26.677  1.00  0.00     0.003 A 
HETATM   10  C6  UNL     1      59.304  10.276  27.129  1.00  0.00     0.037 A 
ENDBRANCH   3   4
ENDBRANCH   2   3
ENDBRANCH   1   2
BRANCH   1  11
HETATM   11  C10 UNL     1      55.679  11.383  28.340  1.00  0.00     0.144 A 
HETATM   12  N1  UNL     1      54.945  11.734  27.277  1.00  0.00    -0.272 N 
HETATM   13  N2  UNL     1      55.418  12.819  26.738  1.00  0.00    -0.129 N 
ATOM     14  H1  UNL     1      54.130  11.222  26.937  1.00  0.00     0.189 HD
HETATM   15  C11 UNL     1      56.488  13.208  27.446  1.00  0.00     0.712 A 
ATOM     16  H2  UNL     1      55.040  13.293  25.918  1.00  0.00     0.205 HD
HETATM   17  N3  UNL     1      57.240  14.256  27.222  1.00  0.00    -0.232 N 
HETATM   18  N4  UNL     1      56.659  12.334  28.433  1.00  0.00    -0.077 N 
ATOM     19  H32 UNL     1      57.110  14.926  26.465  1.00  0.00     0.174 HD
ATOM     20  H31 UNL     1      58.054  14.552  27.761  1.00  0.00     0.174 HD
BRANCH  18  21
HETATM   21  N5  UNL     1      57.673  12.412  29.376  1.00  0.00    -0.323 N 
ATOM     22  H52 UNL     1      58.656  12.230  29.176  1.00  0.00     0.178 HD
ATOM     23  H51 UNL     1      57.585  12.653  30.363  1.00  0.00     0.178 HD
ENDBRANCH  18  21
ENDBRANCH   1  11
BRANCH   1  24
HETATM   24  C12 UNL     1      54.511   9.278  28.673  1.00  0.00     0.230 C 
BRANCH  24  25
HETATM   25  N6  UNL     1      53.206   9.654  29.068  1.00  0.00    -0.071 N 
ATOM     26  H63 UNL     1      52.967   9.292  29.991  1.00  0.00     0.274 HD
ATOM     27  H62 UNL     1      53.142  10.651  29.277  1.00  0.00     0.274 HD
ATOM     28  H61 UNL     1      52.530   9.370  28.359  1.00  0.00     0.274 HD
ENDBRANCH  24  25
BRANCH  24  29
HETATM   29  C13 UNL     1      54.697   8.884  27.282  1.00  0.00     0.191 C 
BRANCH  29  30
HETATM   30  O2  UNL     1      53.663   9.383  26.445  1.00  0.00    -0.388 OA
ATOM     31  H2  UNL     1      53.758   9.087  25.548  1.00  0.00     0.210 HD
ENDBRANCH  29  30
BRANCH  29  32
HETATM   32  C14 UNL     1      54.989   7.484  26.938  1.00  0.00     0.082 A 
HETATM   33  C15 UNL     1      53.966   6.523  27.139  1.00  0.00     0.146 A 
HETATM   34  N7  UNL     1      52.705   6.919  27.642  1.00  0.00    -0.081 NA
HETATM   35  N8  UNL     1      54.126   5.230  26.866  1.00  0.00    -0.178 N 
HETATM   36  C16 UNL     1      55.306   4.822  26.380  1.00  0.00     0.680 A 
ATOM     37  H8  UNL     1      53.369   4.565  27.023  1.00  0.00     0.185 HD
HETATM   38  N10 UNL     1      56.321   5.670  26.163  1.00  0.00    -0.156 N 
HETATM   39  C17 UNL     1      56.166   7.008  26.441  1.00  0.00     0.271 A 
ATOM     40  H10 UNL     1      57.206   5.324  25.793  1.00  0.00     0.187 HD
HETATM   41  O3  UNL     1      57.192   7.676  26.190  1.00  0.00    -0.267 OA
BRANCH  36  42
HETATM   42  N9  UNL     1      55.470   3.562  26.111  1.00  0.00    -0.234 N 
ATOM     43  H92 UNL     1      54.850   2.878  26.546  1.00  0.00     0.174 HD
ATOM     44  H91 UNL     1      56.215   3.289  25.471  1.00  0.00     0.174 HD
ENDBRANCH  36  42
ENDBRANCH  29  32
ENDBRANCH  24  29
ENDBRANCH   1  24
TORSDOF 11
ENDMDL
MODEL 2
REMARK VINA RESULT: -5.060173813      2.737      6.114
REMARK  11 active torsions:
REMARK  status: ('A' for Active; 'I' for Inactive)
REMARK    1  A    between atoms: C7_7  and  O1_8 
REMARK    2  A    between atoms: O1_8  and  C8_9 
REMARK    3  A    between atoms: C8_9  and  C9_10 
REMARK    4  A    between atoms: C9_10  and  C10_11 
REMARK    5  A    between atoms: C9_10  and  C12_24 
REMARK    6  A    between atoms: N4_20  and  N5_21 
REMARK    7  A    between atoms: C12_24  and  N6_25 
REMARK    8  A    between atoms: C12_24  and  C13_29 
REMARK    9  A    between atoms: C13_29  and  O2_30 
REMARK   10  A    between atoms: C13_29  and  C14_32 
REMARK   11  A    between atoms: C16_37  and  N9_38 
ROOT
HETATM    1  C9  UNL     1      57.479   8.261  28.972  1.00  0.00     0.115 C 
ENDROOT
BRANCH   1   2
HETATM    2  C8  UNL     1      57.404   8.291  27.485  1.00  0.00     0.190 C 
BRANCH   2   3
HETATM    3  O1  UNL     1      56.693   7.453  26.788  1.00  0.00    -0.350 OA
BRANCH   3   4
HETATM    4  C7  UNL     1      56.244   6.283  26.478  1.00  0.00     0.074 A 
HETATM    5  C2  UNL     1      54.899   5.975  26.817  1.00  0.00    -0.029 A 
HETATM    6  C1  UNL     1      54.128   7.033  27.503  1.00  0.00     0.051 C 
HETATM    7  C3  UNL     1      54.311   4.777  26.542  1.00  0.00     0.009 A 
HETATM    8  C4  UNL     1      55.000   3.770  25.905  1.00  0.00     0.001 A 
HETATM    9  C5  UNL     1      56.294   4.026  25.562  1.00  0.00     0.003 A 
HETATM   10  C6  UNL     1      56.906   5.231  25.832  1.00  0.00     0.037 A 
ENDBRANCH   3   4
ENDBRANCH   2   3
ENDBRANCH   1   2
BRANCH   1  11
HETATM   11  C10 UNL     1      58.835   8.417  29.531  1.00  0.00     0.144 A 
HETATM   12  N1  UNL     1      59.317   8.092  30.737  1.00  0.00    -0.272 N 
HETATM   13  N2  UNL     1      60.577   8.401  30.818  1.00  0.00    -0.129 N 
ATOM     14  H1  UNL     1      58.773   7.662  31.486  1.00  0.00     0.189 HD
HETATM   15  C11 UNL     1      60.954   8.945  29.653  1.00  0.00     0.712 A 
ATOM     16  H2  UNL     1      61.177   8.255  31.631  1.00  0.00     0.205 HD
HETATM   17  N3  UNL     1      62.146   9.385  29.338  1.00  0.00    -0.232 N 
HETATM   18  N4  UNL     1      59.892   8.960  28.853  1.00  0.00    -0.077 N 
ATOM     19  H32 UNL     1      62.960   9.373  29.952  1.00  0.00     0.174 HD
ATOM     20  H31 UNL     1      62.433   9.798  28.452  1.00  0.00     0.174 HD
BRANCH  18  21
HETATM   21  N5  UNL     1      59.900   9.453  27.556  1.00  0.00    -0.323 N 
ATOM     22  H52 UNL     1      59.535   8.948  26.750  1.00  0.00     0.178 HD
ATOM     23  H51 UNL     1      60.258  10.353  27.237  1.00  0.00     0.178 HD
ENDBRANCH  18  21
ENDBRANCH   1  11
BRANCH   1  24
HETATM   24  C12 UNL     1      56.588   9.343  29.574  1.00  0.00     0.230 C 
BRANCH  24  25
HETATM   25  N6  UNL     1      56.362   9.079  30.945  1.00  0.00    -0.071 N 
ATOM     26  H63 UNL     1      56.771   8.191  31.235  1.00  0.00     0.274 HD
ATOM     27  H62 UNL     1      56.904   9.698  31.548  1.00  0.00     0.274 HD
ATOM     28  H61 UNL     1      55.364   9.125  31.150  1.00  0.00     0.274 HD
ENDBRANCH  24  25
BRANCH  24  29
HETATM   29  C13 UNL     1      56.878  10.723  29.202  1.00  0.00     0.191 C 
BRANCH  29  30
HETATM   30  O2  UNL     1      57.063  11.552  30.340  1.00  0.00    -0.388 OA
ATOM     31  H2  UNL     1      56.755  12.438  30.189  1.00  0.00     0.210 HD
ENDBRANCH  29  30
BRANCH  29  32
HETATM   32  C14 UNL     1      56.047  11.416  28.206  1.00  0.00     0.082 A 
HETATM   33  C15 UNL     1      56.581  12.574  27.586  1.00  0.00     0.146 A 
HETATM   34  N7  UNL     1      57.880  13.023  27.916  1.00  0.00    -0.081 NA
HETATM   35  N8  UNL     1      55.912  13.278  26.675  1.00  0.00    -0.178 N 
HETATM   36  C16 UNL     1      54.682  12.874  26.333  1.00  0.00     0.680 A 
ATOM     37  H8  UNL     1      56.327  14.107  26.249  1.00  0.00     0.185 HD
HETATM   38  N10 UNL     1      54.109  11.790  26.876  1.00  0.00    -0.156 N 
HETATM   39  C17 UNL     1      54.791  11.055  27.817  1.00  0.00     0.271 A 
ATOM     40  H10 UNL     1      53.170  11.513  26.592  1.00  0.00     0.187 HD
HETATM   41  O3  UNL     1      54.135  10.075  28.233  1.00  0.00    -0.267 OA
BRANCH  36  42
HETATM   42  N9  UNL     1      54.023  13.557  25.446  1.00  0.00    -0.234 N 
ATOM     43  H92 UNL     1      53.915  14.563  25.576  1.00  0.00     0.174 HD
ATOM     44  H91 UNL     1      53.631  13.068  24.642  1.00  0.00     0.174 HD
ENDBRANCH  36  42
ENDBRANCH  29  32
ENDBRANCH  24  29
ENDBRANCH   1  24
TORSDOF 11
ENDMDL
MODEL 3
REMARK VINA RESULT: -4.901585252      2.597      5.941
REMARK  11 active torsions:
REMARK  status: ('A' for Active; 'I' for Inactive)
REMARK    1  A    between atoms: C7_7  and  O1_8 
REMARK    2  A    between atoms: O1_8  and  C8_9 
REMARK    3  A    between atoms: C8_9  and  C9_10 
REMARK    4  A    between atoms: C9_10  and  C10_11 
REMARK    5  A    between atoms: C9_10  and  C12_24 
REMARK    6  A    between atoms: N4_20  and  N5_21 
REMARK    7  A    between atoms: C12_24  and  N6_25 
REMARK    8  A    between atoms: C12_24  and  C13_29 
REMARK    9  A    between atoms: C13_29  and  O2_30 
REMARK   10  A    between atoms: C13_29  and  C14_32 
REMARK   11  A    between atoms: C16_37  and  N9_38 
ROOT
HETATM    1  C9  UNL     1      57.521   8.301  28.986  1.00  0.00     0.115 C 
ENDROOT
BRANCH   1   2
HETATM    2  C8  UNL     1      57.449   8.296  27.498  1.00  0.00     0.190 C 
BRANCH   2   3
HETATM    3  O1  UNL     1      56.708   7.468  26.821  1.00  0.00    -0.350 OA
BRANCH   3   4
HETATM    4  C7  UNL     1      56.261   6.300  26.499  1.00  0.00     0.074 A 
HETATM    5  C2  UNL     1      54.911   5.993  26.818  1.00  0.00    -0.029 A 
HETATM    6  C1  UNL     1      54.133   7.050  27.498  1.00  0.00     0.051 C 
HETATM    7  C3  UNL     1      54.325   4.797  26.529  1.00  0.00     0.009 A 
HETATM    8  C4  UNL     1      55.020   3.792  25.897  1.00  0.00     0.001 A 
HETATM    9  C5  UNL     1      56.320   4.048  25.574  1.00  0.00     0.003 A 
HETATM   10  C6  UNL     1      56.930   5.250  25.857  1.00  0.00     0.037 A 
ENDBRANCH   3   4
ENDBRANCH   2   3
ENDBRANCH   1   2
BRANCH   1  11
HETATM   11  C10 UNL     1      58.877   8.457  29.544  1.00  0.00     0.144 A 
HETATM   12  N1  UNL     1      59.351   8.163  30.761  1.00  0.00    -0.272 N 
HETATM   13  N2  UNL     1      60.615   8.459  30.837  1.00  0.00    -0.129 N 
ATOM     14  H1  UNL     1      58.800   7.763  31.521  1.00  0.00     0.189 HD
HETATM   15  C11 UNL     1      61.002   8.962  29.657  1.00  0.00     0.712 A 
ATOM     16  H2  UNL     1      61.211   8.330  31.656  1.00  0.00     0.205 HD
HETATM   17  N3  UNL     1      62.200   9.378  29.333  1.00  0.00    -0.232 N 
HETATM   18  N4  UNL     1      59.943   8.966  28.854  1.00  0.00    -0.077 N 
ATOM     19  H32 UNL     1      63.013   9.374  29.949  1.00  0.00     0.174 HD
ATOM     20  H31 UNL     1      62.495   9.760  28.436  1.00  0.00     0.174 HD
BRANCH  18  21
HETATM   21  N5  UNL     1      59.961   9.420  27.543  1.00  0.00    -0.323 N 
ATOM     22  H52 UNL     1      60.542  10.189  27.211  1.00  0.00     0.178 HD
ATOM     23  H51 UNL     1      59.419   9.064  26.756  1.00  0.00     0.178 HD
ENDBRANCH  18  21
ENDBRANCH   1  11
BRANCH   1  24
HETATM   24  C12 UNL     1      56.639   9.406  29.559  1.00  0.00     0.230 C 
BRANCH  24  25
HETATM   25  N6  UNL     1      56.352   9.143  30.918  1.00  0.00    -0.071 N 
ATOM     26  H63 UNL     1      56.988   9.635  31.545  1.00  0.00     0.274 HD
ATOM     27  H62 UNL     1      55.480   9.579  31.216  1.00  0.00     0.274 HD
ATOM     28  H61 UNL     1      56.352   8.137  31.087  1.00  0.00     0.274 HD
ENDBRANCH  24  25
BRANCH  24  29
HETATM   29  C13 UNL     1      56.984  10.778  29.207  1.00  0.00     0.191 C 
BRANCH  29  30
HETATM   30  O2  UNL     1      57.202  11.583  30.356  1.00  0.00    -0.388 OA
ATOM     31  H2  UNL     1      56.527  11.458  31.012  1.00  0.00     0.210 HD
ENDBRANCH  29  30
BRANCH  29  32
HETATM   32  C14 UNL     1      56.181  11.519  28.221  1.00  0.00     0.082 A 
HETATM   33  C15 UNL     1      54.886  11.028  27.917  1.00  0.00     0.146 A 
HETATM   34  N7  UNL     1      54.393   9.870  28.562  1.00  0.00    -0.081 NA
HETATM   35  N8  UNL     1      54.080  11.618  27.037  1.00  0.00    -0.178 N 
HETATM   36  C16 UNL     1      54.513  12.721  26.414  1.00  0.00     0.680 A 
ATOM     37  H8  UNL     1      53.154  11.238  26.841  1.00  0.00     0.185 HD
HETATM   38  N10 UNL     1      55.725  13.245  26.648  1.00  0.00    -0.156 N 
HETATM   39  C17 UNL     1      56.566  12.644  27.556  1.00  0.00     0.271 A 
ATOM     40  H10 UNL     1      56.021  14.086  26.154  1.00  0.00     0.187 HD
HETATM   41  O3  UNL     1      57.658  13.241  27.671  1.00  0.00    -0.267 OA
BRANCH  36  42
HETATM   42  N9  UNL     1      53.731  13.302  25.554  1.00  0.00    -0.234 N 
ATOM     43  H92 UNL     1      54.015  13.340  24.575  1.00  0.00     0.174 HD
ATOM     44  H91 UNL     1      52.854  13.705  25.882  1.00  0.00     0.174 HD
ENDBRANCH  36  42
ENDBRANCH  29  32
ENDBRANCH  24  29
ENDBRANCH   1  24
TORSDOF 11
ENDMDL
MODEL 4
REMARK VINA RESULT: -4.418640965      0.849      1.519
REMARK  11 active torsions:
REMARK  status: ('A' for Active; 'I' for Inactive)
REMARK    1  A    between atoms: C7_7  and  O1_8 
REMARK    2  A    between atoms: O1_8  and  C8_9 
REMARK    3  A    between atoms: C8_9  and  C9_10 
REMARK    4  A    between atoms: C9_10  and  C10_11 
REMARK    5  A    between atoms: C9_10  and  C12_24 
REMARK    6  A    between atoms: N4_20  and  N5_21 
REMARK    7  A    between atoms: C12_24  and  N6_25 
REMARK    8  A    between atoms: C12_24  and  C13_29 
REMARK    9  A    between atoms: C13_29  and  O2_30 
REMARK   10  A    between atoms: C13_29  and  C14_32 
REMARK   11  A    between atoms: C16_37  and  N9_38 
ROOT
HETATM    1  C9  UNL     1      55.537  10.179  29.308  1.00  0.00     0.115 C 
ENDROOT
BRANCH   1   2
HETATM    2  C8  UNL     1      56.762   9.384  29.604  1.00  0.00     0.190 C 
BRANCH   2   3
HETATM    3  O1  UNL     1      57.953   9.733  29.211  1.00  0.00    -0.350 OA
BRANCH   3   4
HETATM    4  C7  UNL     1      58.991   9.675  28.446  1.00  0.00     0.074 A 
HETATM    5  C2  UNL     1      59.940   8.646  28.691  1.00  0.00    -0.029 A 
HETATM    6  C1  UNL     1      59.651   7.727  29.811  1.00  0.00     0.051 C 
HETATM    7  C3  UNL     1      61.074   8.480  27.952  1.00  0.00     0.009 A 
HETATM    8  C4  UNL     1      61.374   9.317  26.902  1.00  0.00     0.001 A 
HETATM    9  C5  UNL     1      60.487  10.318  26.635  1.00  0.00     0.003 A 
HETATM   10  C6  UNL     1      59.336  10.502  27.370  1.00  0.00     0.037 A 
ENDBRANCH   3   4
ENDBRANCH   2   3
ENDBRANCH   1   2
BRANCH   1  11
HETATM   11  C10 UNL     1      55.742  11.327  28.405  1.00  0.00     0.144 A 
HETATM   12  N1  UNL     1      55.119  11.655  27.267  1.00  0.00    -0.272 N 
HETATM   13  N2  UNL     1      55.611  12.758  26.784  1.00  0.00    -0.129 N 
ATOM     14  H1  UNL     1      54.367  11.116  26.838  1.00  0.00     0.189 HD
HETATM   15  C11 UNL     1      56.580  13.183  27.606  1.00  0.00     0.712 A 
ATOM     16  H2  UNL     1      55.309  13.222  25.927  1.00  0.00     0.205 HD
HETATM   17  N3  UNL     1      57.314  14.258  27.468  1.00  0.00    -0.232 N 
HETATM   18  N4  UNL     1      56.670  12.312  28.607  1.00  0.00    -0.077 N 
ATOM     19  H32 UNL     1      57.245  14.926  26.701  1.00  0.00     0.174 HD
ATOM     20  H31 UNL     1      58.051  14.581  28.094  1.00  0.00     0.174 HD
BRANCH  18  21
HETATM   21  N5  UNL     1      57.569  12.423  29.657  1.00  0.00    -0.323 N 
ATOM     22  H52 UNL     1      57.549  13.169  30.352  1.00  0.00     0.178 HD
ATOM     23  H51 UNL     1      58.347  11.801  29.877  1.00  0.00     0.178 HD
ENDBRANCH  18  21
ENDBRANCH   1  11
BRANCH   1  24
HETATM   24  C12 UNL     1      54.456   9.287  28.705  1.00  0.00     0.230 C 
BRANCH  24  25
HETATM   25  N6  UNL     1      53.175   9.777  29.051  1.00  0.00    -0.071 N 
ATOM     26  H63 UNL     1      52.428   9.196  28.670  1.00  0.00     0.274 HD
ATOM     27  H62 UNL     1      52.971   9.649  30.042  1.00  0.00     0.274 HD
ATOM     28  H61 UNL     1      53.084  10.752  28.766  1.00  0.00     0.274 HD
ENDBRANCH  24  25
BRANCH  24  29
HETATM   29  C13 UNL     1      54.649   8.848  27.329  1.00  0.00     0.191 C 
BRANCH  29  30
HETATM   30  O2  UNL     1      53.688   9.413  26.450  1.00  0.00    -0.388 OA
ATOM     31  H2  UNL     1      54.013   9.474  25.559  1.00  0.00     0.210 HD
ENDBRANCH  29  30
BRANCH  29  32
HETATM   32  C14 UNL     1      54.832   7.421  27.022  1.00  0.00     0.082 A 
HETATM   33  C15 UNL     1      56.099   7.002  26.543  1.00  0.00     0.146 A 
HETATM   34  N7  UNL     1      57.147   7.938  26.386  1.00  0.00    -0.081 NA
HETATM   35  N8  UNL     1      56.370   5.736  26.230  1.00  0.00    -0.178 N 
HETATM   36  C16 UNL     1      55.402   4.822  26.374  1.00  0.00     0.680 A 
ATOM     37  H8  UNL     1      57.293   5.469  25.888  1.00  0.00     0.185 HD
HETATM   38  N10 UNL     1      54.179   5.141  26.820  1.00  0.00    -0.156 N 
HETATM   39  C17 UNL     1      53.888   6.445  27.147  1.00  0.00     0.271 A 
ATOM     40  H10 UNL     1      53.466   4.418  26.917  1.00  0.00     0.187 HD
HETATM   41  O3  UNL     1      52.713   6.593  27.548  1.00  0.00    -0.267 OA
BRANCH  36  42
HETATM   42  N9  UNL     1      55.659   3.585  26.070  1.00  0.00    -0.234 N 
ATOM     43  H92 UNL     1      56.378   3.386  25.375  1.00  0.00     0.174 HD
ATOM     44  H91 UNL     1      55.134   2.846  26.537  1.00  0.00     0.174 HD
ENDBRANCH  36  42
ENDBRANCH  29  32
ENDBRANCH  24  29
ENDBRANCH   1  24
TORSDOF 11
ENDMDL
MODEL 5
REMARK VINA RESULT: -4.075920953      2.359      4.429
REMARK  11 active torsions:
REMARK  status: ('A' for Active; 'I' for Inactive)
REMARK    1  A    between atoms: C7_7  and  O1_8 
REMARK    2  A    between atoms: O1_8  and  C8_9 
REMARK    3  A    between atoms: C8_9  and  C9_10 
REMARK    4  A    between atoms: C9_10  and  C10_11 
REMARK    5  A    between atoms: C9_10  and  C12_24 
REMARK    6  A    between atoms: N4_20  and  N5_21 
REMARK    7  A    between atoms: C12_24  and  N6_25 
REMARK    8  A    between atoms: C12_24  and  C13_29 
REMARK    9  A    between atoms: C13_29  and  O2_30 
REMARK   10  A    between atoms: C13_29  and  C14_32 
REMARK   11  A    between atoms: C16_37  and  N9_38 
ROOT
HETATM    1  C9  UNL     1      57.147   9.884  28.591  1.00  0.00     0.115 C 
ENDROOT
BRANCH   1   2
HETATM    2  C8  UNL     1      56.975  11.323  28.938  1.00  0.00     0.190 C 
BRANCH   2   3
HETATM    3  O1  UNL     1      56.291  12.157  28.210  1.00  0.00    -0.350 OA
BRANCH   3   4
HETATM    4  C7  UNL     1      55.687  12.541  27.135  1.00  0.00     0.074 A 
HETATM    5  C2  UNL     1      56.406  13.363  26.227  1.00  0.00    -0.029 A 
HETATM    6  C1  UNL     1      57.794  13.709  26.598  1.00  0.00     0.051 C 
HETATM    7  C3  UNL     1      55.879  13.831  25.060  1.00  0.00     0.009 A 
HETATM    8  C4  UNL     1      54.591  13.528  24.683  1.00  0.00     0.001 A 
HETATM    9  C5  UNL     1      53.868  12.741  25.529  1.00  0.00     0.003 A 
HETATM   10  C6  UNL     1      54.382  12.258  26.712  1.00  0.00     0.037 A 
ENDBRANCH   3   4
ENDBRANCH   2   3
ENDBRANCH   1   2
BRANCH   1  11
HETATM   11  C10 UNL     1      58.247   9.200  29.296  1.00  0.00     0.144 A 
HETATM   12  N1  UNL     1      58.226   8.424  30.387  1.00  0.00    -0.272 N 
HETATM   13  N2  UNL     1      59.427   8.018  30.676  1.00  0.00    -0.129 N 
ATOM     14  H1  UNL     1      57.387   8.185  30.916  1.00  0.00     0.189 HD
HETATM   15  C11 UNL     1      60.273   8.527  29.770  1.00  0.00     0.712 A 
ATOM     16  H2  UNL     1      59.681   7.415  31.459  1.00  0.00     0.205 HD
HETATM   17  N3  UNL     1      61.569   8.349  29.717  1.00  0.00    -0.232 N 
HETATM   18  N4  UNL     1      59.560   9.255  28.917  1.00  0.00    -0.077 N 
ATOM     19  H32 UNL     1      62.116   7.791  30.372  1.00  0.00     0.174 HD
ATOM     20  H31 UNL     1      62.213   8.736  29.028  1.00  0.00     0.174 HD
BRANCH  18  21
HETATM   21  N5  UNL     1      60.100   9.939  27.836  1.00  0.00    -0.323 N 
ATOM     22  H52 UNL     1      60.066   9.605  26.874  1.00  0.00     0.178 HD
ATOM     23  H51 UNL     1      60.586  10.835  27.849  1.00  0.00     0.178 HD
ENDBRANCH  18  21
ENDBRANCH   1  11
BRANCH   1  24
HETATM   24  C12 UNL     1      55.858   9.114  28.859  1.00  0.00     0.230 C 
BRANCH  24  25
HETATM   25  N6  UNL     1      55.201   9.647  29.992  1.00  0.00    -0.071 N 
ATOM     26  H63 UNL     1      55.815   9.689  30.805  1.00  0.00     0.274 HD
ATOM     27  H62 UNL     1      55.017  10.645  29.893  1.00  0.00     0.274 HD
ATOM     28  H61 UNL     1      54.349   9.119  30.184  1.00  0.00     0.274 HD
ENDBRANCH  24  25
BRANCH  24  29
HETATM   29  C13 UNL     1      55.030   8.785  27.705  1.00  0.00     0.191 C 
BRANCH  29  30
HETATM   30  O2  UNL     1      53.680   9.189  27.887  1.00  0.00    -0.388 OA
ATOM     31  H2  UNL     1      53.074   8.619  27.428  1.00  0.00     0.210 HD
ENDBRANCH  29  30
BRANCH  29  32
HETATM   32  C14 UNL     1      55.076   7.439  27.115  1.00  0.00     0.082 A 
HETATM   33  C15 UNL     1      53.975   6.575  27.346  1.00  0.00     0.146 A 
HETATM   34  N7  UNL     1      52.870   7.017  28.109  1.00  0.00    -0.081 NA
HETATM   35  N8  UNL     1      53.918   5.335  26.863  1.00  0.00    -0.178 N 
HETATM   36  C16 UNL     1      54.944   4.888  26.129  1.00  0.00     0.680 A 
ATOM     37  H8  UNL     1      53.110   4.740  27.048  1.00  0.00     0.185 HD
HETATM   38  N10 UNL     1      56.019   5.645  25.868  1.00  0.00    -0.156 N 
HETATM   39  C17 UNL     1      56.090   6.927  26.361  1.00  0.00     0.271 A 
ATOM     40  H10 UNL     1      56.783   5.270  25.305  1.00  0.00     0.187 HD
HETATM   41  O3  UNL     1      57.146   7.512  26.038  1.00  0.00    -0.267 OA
BRANCH  36  42
HETATM   42  N9  UNL     1      54.895   3.679  25.654  1.00  0.00    -0.234 N 
ATOM     43  H92 UNL     1      55.199   2.904  26.243  1.00  0.00     0.174 HD
ATOM     44  H91 UNL     1      54.553   3.539  24.704  1.00  0.00     0.174 HD
ENDBRANCH  36  42
ENDBRANCH  29  32
ENDBRANCH  24  29
ENDBRANCH   1  24
TORSDOF 11
ENDMDL
