MODEL 1
REMARK VINA RESULT: -7.583505008      0.000      0.000
REMARK  13 active torsions:
REMARK  status: ('A' for Active; 'I' for Inactive)
REMARK    1  A    between atoms: N1_1  and  C1_4 
REMARK    2  A    between atoms: C2_7  and  N3_8 
REMARK    3  A    between atoms: C4_14  and  C5_15 
REMARK    4  A    between atoms: C5_15  and  O1_16 
REMARK    5  A    between atoms: C5_15  and  C6_18 
REMARK    6  A    between atoms: C6_18  and  O2_19 
REMARK    7  A    between atoms: C6_18  and  C7_21 
REMARK    8  A    between atoms: C7_21  and  O3_22 
REMARK    9  A    between atoms: N5_24  and  C8_25 
REMARK   10  A    between atoms: C8_25  and  C9_26 
REMARK   11  A    between atoms: C9_26  and  C10_27 
REMARK   12  A    between atoms: C10_27  and  N6_28 
REMARK   13  A    between atoms: C13_33  and  N8_34 
ROOT
HETATM    1  C1  UNL     1      57.806   4.882  25.785  1.00  0.00     0.679 A 
HETATM    2  N2  UNL     1      58.868   4.902  24.958  1.00  0.00    -0.175 N 
ATOM      3  H2  UNL     1      58.923   4.256  24.171  1.00  0.00     0.186 HD
HETATM    4  C2  UNL     1      59.849   5.783  25.184  1.00  0.00     0.145 A 
HETATM    5  C3  UNL     1      59.747   6.644  26.255  1.00  0.00     0.123 A 
HETATM    6  N4  UNL     1      60.539   7.610  26.731  1.00  0.00    -0.337 N 
ATOM      7  H4  UNL     1      61.435   7.881  26.325  1.00  0.00     0.167 HD
HETATM    8  C4  UNL     1      59.985   8.177  27.825  1.00  0.00     0.117 A 
HETATM    9  N5  UNL     1      58.811   7.567  28.064  1.00  0.00    -0.318 N 
HETATM   10  C16 UNL     1      58.645   6.619  27.109  1.00  0.00     0.155 A 
HETATM   11  N11 UNL     1      57.692   5.716  26.834  1.00  0.00    -0.174 N 
ATOM     12  H11 UNL     1      56.867   5.660  27.431  1.00  0.00     0.186 HD
ENDROOT
BRANCH   9  13
HETATM   13  C8  UNL     1      57.875   7.835  29.112  1.00  0.00     0.133 C 
BRANCH  13  14
HETATM   14  C9  UNL     1      57.556   9.269  29.359  1.00  0.00     0.041 C 
BRANCH  14  15
HETATM   15  C10 UNL     1      56.135   9.297  29.942  1.00  0.00     0.133 C 
BRANCH  15  16
HETATM   16  N6  UNL     1      55.190   9.859  29.028  1.00  0.00    -0.327 N 
HETATM   17  C11 UNL     1      53.970   9.355  28.766  1.00  0.00     0.185 A 
HETATM   18  N7  UNL     1      53.364  10.157  27.849  1.00  0.00    -0.346 N 
HETATM   19  C12 UNL     1      54.175  11.166  27.521  1.00  0.00     0.122 A 
ATOM     20  H7  UNL     1      52.429  10.009  27.469  1.00  0.00     0.167 HD
HETATM   21  C13 UNL     1      54.073  12.243  26.664  1.00  0.00     0.131 A 
HETATM   22  C15 UNL     1      55.333  10.964  28.278  1.00  0.00     0.140 A 
HETATM   23  N9  UNL     1      55.103  13.100  26.564  1.00  0.00    -0.337 N 
HETATM   24  C14 UNL     1      56.237  12.912  27.298  1.00  0.00     0.183 A 
ATOM     25  H9  UNL     1      55.036  13.898  25.933  1.00  0.00     0.168 HD
HETATM   26  N10 UNL     1      56.332  11.857  28.135  1.00  0.00    -0.336 N 
ATOM     27  H10 UNL     1      57.187  11.731  28.676  1.00  0.00     0.168 HD
BRANCH  21  28
HETATM   28  N8  UNL     1      53.012  12.429  25.969  1.00  0.00    -0.383 N 
ATOM     29  H82 UNL     1      52.138  11.977  26.239  1.00  0.00     0.157 HD
ATOM     30  H81 UNL     1      53.027  13.028  25.144  1.00  0.00     0.157 HD
ENDBRANCH  21  28
ENDBRANCH  15  16
ENDBRANCH  14  15
ENDBRANCH  13  14
ENDBRANCH   9  13
BRANCH   8  31
HETATM   31  C5  UNL     1      60.641   9.282  28.551  1.00  0.00     0.216 C 
BRANCH  31  32
HETATM   32  O1  UNL     1      61.676   9.855  27.767  1.00  0.00    -0.385 OA
ATOM     33  H1  UNL     1      62.505   9.826  28.230  1.00  0.00     0.210 HD
ENDBRANCH  31  32
BRANCH  31  34
HETATM   34  C6  UNL     1      61.383   8.779  29.797  1.00  0.00     0.177 C 
BRANCH  34  35
HETATM   35  O2  UNL     1      61.364   7.411  29.804  1.00  0.00    -0.390 OA
ATOM     36  H2  UNL     1      61.189   7.109  30.688  1.00  0.00     0.210 HD
ENDBRANCH  34  35
BRANCH  34  37
HETATM   37  C7  UNL     1      60.603   9.261  31.011  1.00  0.00     0.198 C 
BRANCH  37  38
HETATM   38  O3  UNL     1      60.126   8.217  31.767  1.00  0.00    -0.398 OA
ATOM     39  H3  UNL     1      59.318   8.439  32.214  1.00  0.00     0.209 HD
ENDBRANCH  37  38
ENDBRANCH  34  37
ENDBRANCH  31  34
ENDBRANCH   8  31
BRANCH   4  40
HETATM   40  N3  UNL     1      60.864   5.807  24.401  1.00  0.00    -0.383 N 
ATOM     41  H32 UNL     1      61.343   4.950  24.125  1.00  0.00     0.157 HD
ATOM     42  H31 UNL     1      61.199   6.703  24.047  1.00  0.00     0.157 HD
ENDBRANCH   4  40
BRANCH   1  43
HETATM   43  N1  UNL     1      56.890   4.008  25.515  1.00  0.00    -0.234 N 
ATOM     44  H12 UNL     1      56.737   3.675  24.563  1.00  0.00     0.174 HD
ATOM     45  H11 UNL     1      56.336   3.679  26.306  1.00  0.00     0.174 HD
ENDBRANCH   1  43
TORSDOF 13
ENDMDL
MODEL 2
REMARK VINA RESULT: -6.924687774      2.155      4.019
REMARK  13 active torsions:
REMARK  status: ('A' for Active; 'I' for Inactive)
REMARK    1  A    between atoms: N1_1  and  C1_4 
REMARK    2  A    between atoms: C2_7  and  N3_8 
REMARK    3  A    between atoms: C4_14  and  C5_15 
REMARK    4  A    between atoms: C5_15  and  O1_16 
REMARK    5  A    between atoms: C5_15  and  C6_18 
REMARK    6  A    between atoms: C6_18  and  O2_19 
REMARK    7  A    between atoms: C6_18  and  C7_21 
REMARK    8  A    between atoms: C7_21  and  O3_22 
REMARK    9  A    between atoms: N5_24  and  C8_25 
REMARK   10  A    between atoms: C8_25  and  C9_26 
REMARK   11  A    between atoms: C9_26  and  C10_27 
REMARK   12  A    between atoms: C10_27  and  N6_28 
REMARK   13  A    between atoms: C13_33  and  N8_34 
ROOT
HETATM    1  C1  UNL     1      54.634   5.708  26.937  1.00  0.00     0.679 A 
HETATM    2  N2  UNL     1      54.600   4.593  26.184  1.00  0.00    -0.175 N 
ATOM      3  H2  UNL     1      53.715   4.123  25.995  1.00  0.00     0.186 HD
HETATM    4  C2  UNL     1      55.745   4.111  25.688  1.00  0.00     0.145 A 
HETATM    5  C3  UNL     1      56.925   4.767  25.960  1.00  0.00     0.123 A 
HETATM    6  N4  UNL     1      58.198   4.540  25.619  1.00  0.00    -0.337 N 
ATOM      7  H4  UNL     1      58.516   3.761  25.043  1.00  0.00     0.167 HD
HETATM    8  C4  UNL     1      59.003   5.490  26.145  1.00  0.00     0.117 A 
HETATM    9  N5  UNL     1      58.238   6.348  26.841  1.00  0.00    -0.318 N 
HETATM   10  C16 UNL     1      56.955   5.923  26.740  1.00  0.00     0.155 A 
HETATM   11  N11 UNL     1      55.778   6.360  27.211  1.00  0.00    -0.174 N 
ATOM     12  H11 UNL     1      55.749   7.201  27.787  1.00  0.00     0.186 HD
ENDROOT
BRANCH   9  13
HETATM   13  C8  UNL     1      58.652   7.512  27.563  1.00  0.00     0.133 C 
BRANCH  13  14
HETATM   14  C9  UNL     1      58.941   7.321  29.011  1.00  0.00     0.041 C 
BRANCH  14  15
HETATM   15  C10 UNL     1      57.811   8.033  29.771  1.00  0.00     0.133 C 
BRANCH  15  16
HETATM   16  N6  UNL     1      57.401   9.238  29.119  1.00  0.00    -0.327 N 
HETATM   17  C11 UNL     1      58.228  10.219  28.713  1.00  0.00     0.185 A 
HETATM   18  N7  UNL     1      57.478  11.199  28.138  1.00  0.00    -0.346 N 
HETATM   19  C12 UNL     1      56.187  10.860  28.168  1.00  0.00     0.122 A 
ATOM     20  H7  UNL     1      57.848  12.063  27.743  1.00  0.00     0.167 HD
HETATM   21  C13 UNL     1      55.023  11.464  27.738  1.00  0.00     0.131 A 
HETATM   22  C15 UNL     1      56.152   9.611  28.795  1.00  0.00     0.140 A 
HETATM   23  N9  UNL     1      53.851  10.836  27.927  1.00  0.00    -0.337 N 
HETATM   24  C14 UNL     1      53.806   9.617  28.537  1.00  0.00     0.183 A 
ATOM     25  H9  UNL     1      52.986  11.275  27.612  1.00  0.00     0.168 HD
HETATM   26  N10 UNL     1      54.947   9.030  28.957  1.00  0.00    -0.336 N 
ATOM     27  H10 UNL     1      54.896   8.119  29.411  1.00  0.00     0.168 HD
BRANCH  21  28
HETATM   28  N8  UNL     1      55.054  12.610  27.163  1.00  0.00    -0.383 N 
ATOM     29  H82 UNL     1      55.898  12.917  26.680  1.00  0.00     0.157 HD
ATOM     30  H81 UNL     1      54.240  13.224  27.181  1.00  0.00     0.157 HD
ENDBRANCH  21  28
ENDBRANCH  15  16
ENDBRANCH  14  15
ENDBRANCH  13  14
ENDBRANCH   9  13
BRANCH   8  31
HETATM   31  C5  UNL     1      60.462   5.492  25.919  1.00  0.00     0.216 C 
BRANCH  31  32
HETATM   32  O1  UNL     1      61.144   6.025  27.043  1.00  0.00    -0.385 OA
ATOM     33  H1  UNL     1      61.891   5.483  27.272  1.00  0.00     0.210 HD
ENDBRANCH  31  32
BRANCH  31  34
HETATM   34  C6  UNL     1      60.856   6.449  24.785  1.00  0.00     0.177 C 
BRANCH  34  35
HETATM   35  O2  UNL     1      60.100   6.165  23.680  1.00  0.00    -0.390 OA
ATOM     36  H2  UNL     1      60.356   6.747  22.973  1.00  0.00     0.210 HD
ENDBRANCH  34  35
BRANCH  34  37
HETATM   37  C7  UNL     1      62.310   6.161  24.439  1.00  0.00     0.198 C 
BRANCH  37  38
HETATM   38  O3  UNL     1      63.165   7.084  24.991  1.00  0.00    -0.398 OA
ATOM     39  H3  UNL     1      63.008   7.960  24.659  1.00  0.00     0.209 HD
ENDBRANCH  37  38
ENDBRANCH  34  37
ENDBRANCH  31  34
ENDBRANCH   8  31
BRANCH   4  40
HETATM   40  N3  UNL     1      55.721   3.049  24.971  1.00  0.00    -0.383 N 
ATOM     41  H32 UNL     1      55.056   2.939  24.205  1.00  0.00     0.157 HD
ATOM     42  H31 UNL     1      56.380   2.296  25.172  1.00  0.00     0.157 HD
ENDBRANCH   4  40
BRANCH   1  43
HETATM   43  N1  UNL     1      53.494   6.126  27.388  1.00  0.00    -0.234 N 
ATOM     44  H12 UNL     1      52.652   5.555  27.316  1.00  0.00     0.174 HD
ATOM     45  H11 UNL     1      53.493   7.052  27.815  1.00  0.00     0.174 HD
ENDBRANCH   1  43
TORSDOF 13
ENDMDL
MODEL 3
REMARK VINA RESULT: -6.295231214      2.718      4.841
REMARK  13 active torsions:
REMARK  status: ('A' for Active; 'I' for Inactive)
REMARK    1  A    between atoms: N1_1  and  C1_4 
REMARK    2  A    between atoms: C2_7  and  N3_8 
REMARK    3  A    between atoms: C4_14  and  C5_15 
REMARK    4  A    between atoms: C5_15  and  O1_16 
REMARK    5  A    between atoms: C5_15  and  C6_18 
REMARK    6  A    between atoms: C6_18  and  O2_19 
REMARK    7  A    between atoms: C6_18  and  C7_21 
REMARK    8  A    between atoms: C7_21  and  O3_22 
REMARK    9  A    between atoms: N5_24  and  C8_25 
REMARK   10  A    between atoms: C8_25  and  C9_26 
REMARK   11  A    between atoms: C9_26  and  C10_27 
REMARK   12  A    between atoms: C10_27  and  N6_28 
REMARK   13  A    between atoms: C13_33  and  N8_34 
ROOT
HETATM    1  C1  UNL     1      62.939   5.899  23.955  1.00  0.00     0.679 A 
HETATM    2  N2  UNL     1      62.329   5.976  22.758  1.00  0.00    -0.175 N 
ATOM      3  H2  UNL     1      62.877   5.982  21.897  1.00  0.00     0.186 HD
HETATM    4  C2  UNL     1      60.994   6.044  22.714  1.00  0.00     0.145 A 
HETATM    5  C3  UNL     1      60.280   6.034  23.893  1.00  0.00     0.123 A 
HETATM    6  N4  UNL     1      58.974   6.088  24.171  1.00  0.00    -0.337 N 
ATOM      7  H4  UNL     1      58.232   6.152  23.474  1.00  0.00     0.167 HD
HETATM    8  C4  UNL     1      58.775   6.046  25.507  1.00  0.00     0.117 A 
HETATM    9  N5  UNL     1      59.976   5.963  26.106  1.00  0.00    -0.318 N 
HETATM   10  C16 UNL     1      60.917   5.954  25.130  1.00  0.00     0.155 A 
HETATM   11  N11 UNL     1      62.256   5.888  25.114  1.00  0.00    -0.174 N 
ATOM     12  H11 UNL     1      62.767   5.829  25.995  1.00  0.00     0.186 HD
ENDROOT
BRANCH   9  13
HETATM   13  C8  UNL     1      60.259   5.888  27.507  1.00  0.00     0.133 C 
BRANCH  13  14
HETATM   14  C9  UNL     1      60.945   7.068  28.104  1.00  0.00     0.041 C 
BRANCH  14  15
HETATM   15  C10 UNL     1      59.949   7.683  29.099  1.00  0.00     0.133 C 
BRANCH  15  16
HETATM   16  N6  UNL     1      59.226   8.777  28.529  1.00  0.00    -0.327 N 
HETATM   17  C11 UNL     1      59.645   9.527  27.493  1.00  0.00     0.185 A 
HETATM   18  N7  UNL     1      58.696  10.467  27.234  1.00  0.00    -0.346 N 
HETATM   19  C12 UNL     1      57.677  10.330  28.086  1.00  0.00     0.122 A 
ATOM     20  H7  UNL     1      58.754  11.171  26.498  1.00  0.00     0.167 HD
HETATM   21  C13 UNL     1      56.482  10.995  28.272  1.00  0.00     0.131 A 
HETATM   22  C15 UNL     1      58.027   9.252  28.904  1.00  0.00     0.140 A 
HETATM   23  N9  UNL     1      55.654  10.594  29.251  1.00  0.00    -0.337 N 
HETATM   24  C14 UNL     1      55.987   9.543  30.054  1.00  0.00     0.183 A 
ATOM     25  H9  UNL     1      54.769  11.079  29.395  1.00  0.00     0.168 HD
HETATM   26  N10 UNL     1      57.157   8.896  29.869  1.00  0.00    -0.336 N 
ATOM     27  H10 UNL     1      57.390   8.112  30.478  1.00  0.00     0.168 HD
BRANCH  21  28
HETATM   28  N8  UNL     1      56.159  11.984  27.523  1.00  0.00    -0.383 N 
ATOM     29  H82 UNL     1      56.873  12.464  26.974  1.00  0.00     0.157 HD
ATOM     30  H81 UNL     1      55.192  12.302  27.466  1.00  0.00     0.157 HD
ENDBRANCH  21  28
ENDBRANCH  15  16
ENDBRANCH  14  15
ENDBRANCH  13  14
ENDBRANCH   9  13
BRANCH   8  31
HETATM   31  C5  UNL     1      57.423   6.079  26.099  1.00  0.00     0.216 C 
BRANCH  31  32
HETATM   32  O1  UNL     1      57.473   6.540  27.441  1.00  0.00    -0.385 OA
ATOM     33  H1  UNL     1      57.617   5.817  28.041  1.00  0.00     0.210 HD
ENDBRANCH  31  32
BRANCH  31  34
HETATM   34  C6  UNL     1      56.831   4.669  26.235  1.00  0.00     0.177 C 
BRANCH  34  35
HETATM   35  O2  UNL     1      57.318   3.883  25.228  1.00  0.00    -0.390 OA
ATOM     36  H2  UNL     1      56.634   3.290  24.940  1.00  0.00     0.210 HD
ENDBRANCH  34  35
BRANCH  34  37
HETATM   37  C7  UNL     1      55.327   4.792  26.042  1.00  0.00     0.198 C 
BRANCH  37  38
HETATM   38  O3  UNL     1      54.853   6.018  26.443  1.00  0.00    -0.398 OA
ATOM     39  H3  UNL     1      54.059   5.943  26.959  1.00  0.00     0.209 HD
ENDBRANCH  37  38
ENDBRANCH  34  37
ENDBRANCH  31  34
ENDBRANCH   8  31
BRANCH   4  40
HETATM   40  N3  UNL     1      60.406   6.118  21.577  1.00  0.00    -0.383 N 
ATOM     41  H32 UNL     1      60.549   6.914  20.955  1.00  0.00     0.157 HD
ATOM     42  H31 UNL     1      59.782   5.365  21.288  1.00  0.00     0.157 HD
ENDBRANCH   4  40
BRANCH   1  43
HETATM   43  N1  UNL     1      64.232   5.836  23.933  1.00  0.00    -0.234 N 
ATOM     44  H12 UNL     1      64.808   6.613  24.258  1.00  0.00     0.174 HD
ATOM     45  H11 UNL     1      64.633   4.970  23.572  1.00  0.00     0.174 HD
ENDBRANCH   1  43
TORSDOF 13
ENDMDL
MODEL 4
REMARK VINA RESULT: -6.267222338      1.570      2.402
REMARK  13 active torsions:
REMARK  status: ('A' for Active; 'I' for Inactive)
REMARK    1  A    between atoms: N1_1  and  C1_4 
REMARK    2  A    between atoms: C2_7  and  N3_8 
REMARK    3  A    between atoms: C4_14  and  C5_15 
REMARK    4  A    between atoms: C5_15  and  O1_16 
REMARK    5  A    between atoms: C5_15  and  C6_18 
REMARK    6  A    between atoms: C6_18  and  O2_19 
REMARK    7  A    between atoms: C6_18  and  C7_21 
REMARK    8  A    between atoms: C7_21  and  O3_22 
REMARK    9  A    between atoms: N5_24  and  C8_25 
REMARK   10  A    between atoms: C8_25  and  C9_26 
REMARK   11  A    between atoms: C9_26  and  C10_27 
REMARK   12  A    between atoms: C10_27  and  N6_28 
REMARK   13  A    between atoms: C13_33  and  N8_34 
ROOT
HETATM    1  C1  UNL     1      55.477   5.292  26.550  1.00  0.00     0.679 A 
HETATM    2  N2  UNL     1      56.116   4.376  25.799  1.00  0.00    -0.175 N 
ATOM      3  H2  UNL     1      55.598   3.622  25.349  1.00  0.00     0.186 HD
HETATM    4  C2  UNL     1      57.443   4.471  25.651  1.00  0.00     0.145 A 
HETATM    5  C3  UNL     1      58.117   5.501  26.271  1.00  0.00     0.123 A 
HETATM    6  N4  UNL     1      59.405   5.856  26.313  1.00  0.00    -0.337 N 
ATOM      7  H4  UNL     1      60.161   5.360  25.840  1.00  0.00     0.167 HD
HETATM    8  C4  UNL     1      59.564   6.963  27.071  1.00  0.00     0.117 A 
HETATM    9  N5  UNL     1      58.356   7.333  27.529  1.00  0.00    -0.318 N 
HETATM   10  C16 UNL     1      57.450   6.447  27.048  1.00  0.00     0.155 A 
HETATM   11  N11 UNL     1      56.121   6.303  27.161  1.00  0.00    -0.174 N 
ATOM     12  H11 UNL     1      55.590   6.970  27.720  1.00  0.00     0.186 HD
ENDROOT
BRANCH   9  13
HETATM   13  C8  UNL     1      58.033   8.450  28.364  1.00  0.00     0.133 C 
BRANCH  13  14
HETATM   14  C9  UNL     1      57.232   8.151  29.583  1.00  0.00     0.041 C 
BRANCH  14  15
HETATM   15  C10 UNL     1      56.644   9.493  30.049  1.00  0.00     0.133 C 
BRANCH  15  16
HETATM   16  N6  UNL     1      55.625   9.968  29.166  1.00  0.00    -0.327 N 
HETATM   17  C11 UNL     1      54.425   9.387  28.985  1.00  0.00     0.185 A 
HETATM   18  N7  UNL     1      53.728  10.120  28.074  1.00  0.00    -0.346 N 
HETATM   19  C12 UNL     1      54.462  11.160  27.671  1.00  0.00     0.122 A 
ATOM     20  H7  UNL     1      52.786   9.906  27.748  1.00  0.00     0.167 HD
HETATM   21  C13 UNL     1      54.256  12.198  26.785  1.00  0.00     0.131 A 
HETATM   22  C15 UNL     1      55.666  11.051  28.373  1.00  0.00     0.140 A 
HETATM   23  N9  UNL     1      55.229  13.107  26.603  1.00  0.00    -0.337 N 
HETATM   24  C14 UNL     1      56.406  13.009  27.284  1.00  0.00     0.183 A 
ATOM     25  H9  UNL     1      55.085  13.877  25.950  1.00  0.00     0.168 HD
HETATM   26  N10 UNL     1      56.603  11.992  28.149  1.00  0.00    -0.336 N 
ATOM     27  H10 UNL     1      57.490  11.934  28.650  1.00  0.00     0.168 HD
BRANCH  21  28
HETATM   28  N8  UNL     1      53.152  12.299  26.140  1.00  0.00    -0.383 N 
ATOM     29  H82 UNL     1      52.823  11.524  25.566  1.00  0.00     0.157 HD
ATOM     30  H81 UNL     1      52.594  13.151  26.193  1.00  0.00     0.157 HD
ENDBRANCH  21  28
ENDBRANCH  15  16
ENDBRANCH  14  15
ENDBRANCH  13  14
ENDBRANCH   9  13
BRANCH   8  31
HETATM   31  C5  UNL     1      60.886   7.584  27.283  1.00  0.00     0.216 C 
BRANCH  31  32
HETATM   32  O1  UNL     1      60.834   8.534  28.336  1.00  0.00    -0.385 OA
ATOM     33  H1  UNL     1      60.284   8.221  29.045  1.00  0.00     0.210 HD
ENDBRANCH  31  32
BRANCH  31  34
HETATM   34  C6  UNL     1      61.315   8.427  26.073  1.00  0.00     0.177 C 
BRANCH  34  35
HETATM   35  O2  UNL     1      62.547   8.006  25.652  1.00  0.00    -0.390 OA
ATOM     36  H2  UNL     1      62.552   7.966  24.703  1.00  0.00     0.210 HD
ENDBRANCH  34  35
BRANCH  34  37
HETATM   37  C7  UNL     1      61.454   9.864  26.553  1.00  0.00     0.198 C 
BRANCH  37  38
HETATM   38  O3  UNL     1      62.223  10.621  25.702  1.00  0.00    -0.398 OA
ATOM     39  H3  UNL     1      61.804  10.748  24.859  1.00  0.00     0.209 HD
ENDBRANCH  37  38
ENDBRANCH  34  37
ENDBRANCH  31  34
ENDBRANCH   8  31
BRANCH   4  40
HETATM   40  N3  UNL     1      58.059   3.603  24.938  1.00  0.00    -0.383 N 
ATOM     41  H32 UNL     1      57.632   2.706  24.705  1.00  0.00     0.157 HD
ATOM     42  H31 UNL     1      58.996   3.813  24.595  1.00  0.00     0.157 HD
ENDBRANCH   4  40
BRANCH   1  43
HETATM   43  N1  UNL     1      54.195   5.147  26.656  1.00  0.00    -0.234 N 
ATOM     44  H12 UNL     1      53.551   5.649  26.045  1.00  0.00     0.174 HD
ATOM     45  H11 UNL     1      53.874   4.506  27.382  1.00  0.00     0.174 HD
ENDBRANCH   1  43
TORSDOF 13
ENDMDL
MODEL 5
REMARK VINA RESULT: -6.220818015      1.691      3.225
REMARK  13 active torsions:
REMARK  status: ('A' for Active; 'I' for Inactive)
REMARK    1  A    between atoms: N1_1  and  C1_4 
REMARK    2  A    between atoms: C2_7  and  N3_8 
REMARK    3  A    between atoms: C4_14  and  C5_15 
REMARK    4  A    between atoms: C5_15  and  O1_16 
REMARK    5  A    between atoms: C5_15  and  C6_18 
REMARK    6  A    between atoms: C6_18  and  O2_19 
REMARK    7  A    between atoms: C6_18  and  C7_21 
REMARK    8  A    between atoms: C7_21  and  O3_22 
REMARK    9  A    between atoms: N5_24  and  C8_25 
REMARK   10  A    between atoms: C8_25  and  C9_26 
REMARK   11  A    between atoms: C9_26  and  C10_27 
REMARK   12  A    between atoms: C10_27  and  N6_28 
REMARK   13  A    between atoms: C13_33  and  N8_34 
ROOT
HETATM    1  C1  UNL     1      55.195   5.676  26.777  1.00  0.00     0.679 A 
HETATM    2  N2  UNL     1      55.477   4.610  26.005  1.00  0.00    -0.175 N 
ATOM      3  H2  UNL     1      54.731   4.005  25.664  1.00  0.00     0.186 HD
HETATM    4  C2  UNL     1      56.754   4.356  25.692  1.00  0.00     0.145 A 
HETATM    5  C3  UNL     1      57.742   5.191  26.166  1.00  0.00     0.123 A 
HETATM    6  N4  UNL     1      59.071   5.203  26.032  1.00  0.00    -0.337 N 
ATOM      7  H4  UNL     1      59.609   4.519  25.499  1.00  0.00     0.167 HD
HETATM    8  C4  UNL     1      59.603   6.249  26.702  1.00  0.00     0.117 A 
HETATM    9  N5  UNL     1      58.599   6.928  27.282  1.00  0.00    -0.318 N 
HETATM   10  C16 UNL     1      57.443   6.294  26.965  1.00  0.00     0.155 A 
HETATM   11  N11 UNL     1      56.148   6.500  27.248  1.00  0.00    -0.174 N 
ATOM     12  H11 UNL     1      55.881   7.294  27.829  1.00  0.00     0.186 HD
ENDROOT
BRANCH   9  13
HETATM   13  C8  UNL     1      58.682   8.108  28.087  1.00  0.00     0.133 C 
BRANCH  13  14
HETATM   14  C9  UNL     1      58.118   8.009  29.462  1.00  0.00     0.041 C 
BRANCH  14  15
HETATM   15  C10 UNL     1      58.021   9.450  29.989  1.00  0.00     0.133 C 
BRANCH  15  16
HETATM   16  N6  UNL     1      57.182  10.267  29.169  1.00  0.00    -0.327 N 
HETATM   17  C11 UNL     1      57.571  11.392  28.542  1.00  0.00     0.185 A 
HETATM   18  N7  UNL     1      56.504  11.892  27.861  1.00  0.00    -0.346 N 
HETATM   19  C12 UNL     1      55.440  11.105  28.042  1.00  0.00     0.122 A 
ATOM     20  H7  UNL     1      56.515  12.742  27.297  1.00  0.00     0.167 HD
HETATM   21  C13 UNL     1      54.134  11.135  27.597  1.00  0.00     0.131 A 
HETATM   22  C15 UNL     1      55.886  10.076  28.876  1.00  0.00     0.140 A 
HETATM   23  N9  UNL     1      53.291  10.160  27.976  1.00  0.00    -0.337 N 
HETATM   24  C14 UNL     1      53.716   9.151  28.789  1.00  0.00     0.183 A 
ATOM     25  H9  UNL     1      52.324  10.175  27.652  1.00  0.00     0.168 HD
HETATM   26  N10 UNL     1      54.994   9.126  29.221  1.00  0.00    -0.336 N 
ATOM     27  H10 UNL     1      55.295   8.364  29.829  1.00  0.00     0.168 HD
BRANCH  21  28
HETATM   28  N8  UNL     1      53.724  12.079  26.832  1.00  0.00    -0.383 N 
ATOM     29  H82 UNL     1      54.395  12.641  26.310  1.00  0.00     0.157 HD
ATOM     30  H81 UNL     1      52.729  12.278  26.738  1.00  0.00     0.157 HD
ENDBRANCH  21  28
ENDBRANCH  15  16
ENDBRANCH  14  15
ENDBRANCH  13  14
ENDBRANCH   9  13
BRANCH   8  31
HETATM   31  C5  UNL     1      61.056   6.512  26.716  1.00  0.00     0.216 C 
BRANCH  31  32
HETATM   32  O1  UNL     1      61.449   7.094  27.949  1.00  0.00    -0.385 OA
ATOM     33  H1  UNL     1      61.372   6.466  28.659  1.00  0.00     0.210 HD
ENDBRANCH  31  32
BRANCH  31  34
HETATM   34  C6  UNL     1      61.446   7.580  25.685  1.00  0.00     0.177 C 
BRANCH  34  35
HETATM   35  O2  UNL     1      62.756   7.402  25.334  1.00  0.00    -0.390 OA
ATOM     36  H2  UNL     1      62.795   6.912  24.521  1.00  0.00     0.210 HD
ENDBRANCH  34  35
BRANCH  34  37
HETATM   37  C7  UNL     1      61.330   8.933  26.372  1.00  0.00     0.198 C 
BRANCH  37  38
HETATM   38  O3  UNL     1      62.276   9.824  25.925  1.00  0.00    -0.398 OA
ATOM     39  H3  UNL     1      62.254  10.641  26.408  1.00  0.00     0.209 HD
ENDBRANCH  37  38
ENDBRANCH  34  37
ENDBRANCH  31  34
ENDBRANCH   8  31
BRANCH   4  40
HETATM   40  N3  UNL     1      57.030   3.343  24.958  1.00  0.00    -0.383 N 
ATOM     41  H32 UNL     1      56.949   2.390  25.314  1.00  0.00     0.157 HD
ATOM     42  H31 UNL     1      57.338   3.491  23.997  1.00  0.00     0.157 HD
ENDBRANCH   4  40
BRANCH   1  43
HETATM   43  N1  UNL     1      53.944   5.869  27.045  1.00  0.00    -0.234 N 
ATOM     44  H12 UNL     1      53.577   6.803  27.229  1.00  0.00     0.174 HD
ATOM     45  H11 UNL     1      53.355   5.036  27.062  1.00  0.00     0.174 HD
ENDBRANCH   1  43
TORSDOF 13
ENDMDL
