MODEL 1
REMARK VINA RESULT: -4.415638673      0.000      0.000
REMARK  12 active torsions:
REMARK  status: ('A' for Active; 'I' for Inactive)
REMARK    1  A    between atoms: S1_2  and  C2_3 
REMARK    2  A    between atoms: C2_3  and  C3_4 
REMARK    3  A    between atoms: C3_4  and  O1_5 
REMARK    4  A    between atoms: C4_9  and  C5_10 
REMARK    5  A    between atoms: C4_9  and  C9_23 
REMARK    6  A    between atoms: C5_10  and  C6_11 
REMARK    7  A    between atoms: C6_11  and  C7_12 
REMARK    8  A    between atoms: C7_12  and  N2_13 
REMARK    9  A    between atoms: N2_13  and  C8_16 
REMARK   10  A    between atoms: C8_16  and  N3_17 
REMARK   11  A    between atoms: C8_16  and  O2_21 
REMARK   12  A    between atoms: C13_31  and  N6_32 
ROOT
HETATM    1  C2  UNL     1      55.025   9.126  29.009  1.00  0.00     0.161 C 
HETATM    2  N1  UNL     1      55.768   9.270  30.131  1.00  0.00    -0.377 N 
ATOM      3  H1  UNL     1      55.621   8.931  31.082  1.00  0.00     0.156 HD
HETATM    4  C4  UNL     1      56.896  10.103  29.520  1.00  0.00     0.121 C 
HETATM    5  C16 UNL     1      55.789  10.380  28.608  1.00  0.00     0.199 C 
HETATM    6  O3  UNL     1      55.290  11.113  27.765  1.00  0.00    -0.291 OA
ENDROOT
BRANCH   4   7
HETATM    7  C5  UNL     1      57.061  11.086  30.727  1.00  0.00     0.046 C 
BRANCH   7   8
HETATM    8  C6  UNL     1      57.787  12.335  30.332  1.00  0.00     0.031 C 
BRANCH   8   9
HETATM    9  C7  UNL     1      58.494  12.806  31.616  1.00  0.00     0.237 C 
BRANCH   9  10
HETATM   10  N2  UNL     1      57.906  14.057  31.979  1.00  0.00    -0.023 N 
ATOM     11  H22 UNL     1      57.449  14.492  31.177  1.00  0.00     0.282 HD
ATOM     12  H21 UNL     1      57.091  13.917  32.577  1.00  0.00     0.282 HD
BRANCH  10  13
HETATM   13  C8  UNL     1      58.849  14.967  32.594  1.00  0.00     0.519 C 
BRANCH  13  14
HETATM   14  N3  UNL     1      58.080  16.011  33.246  1.00  0.00    -0.027 N 
ATOM     15  H33 UNL     1      57.121  16.072  32.904  1.00  0.00     0.279 HD
ATOM     16  H32 UNL     1      57.861  15.797  34.219  1.00  0.00     0.279 HD
ATOM     17  H31 UNL     1      58.598  16.883  33.136  1.00  0.00     0.279 HD
ENDBRANCH  13  14
BRANCH  13  18
HETATM   18  O2  UNL     1      59.585  15.568  31.575  1.00  0.00    -0.349 OA
ATOM     19  H2  UNL     1      60.054  16.304  31.952  1.00  0.00     0.213 HD
ENDBRANCH  13  18
ENDBRANCH  10  13
ENDBRANCH   9  10
ENDBRANCH   8   9
ENDBRANCH   7   8
ENDBRANCH   4   7
BRANCH   4  20
HETATM   20  C9  UNL     1      57.923   9.095  29.402  1.00  0.00    -0.004 A 
HETATM   21  C10 UNL     1      58.076   8.007  30.293  1.00  0.00     0.028 A 
HETATM   22  C11 UNL     1      59.094   7.092  30.269  1.00  0.00     0.090 A 
HETATM   23  N4  UNL     1      60.019   7.235  29.335  1.00  0.00    -0.351 N 
HETATM   24  C12 UNL     1      59.975   8.219  28.445  1.00  0.00     0.135 A 
ATOM     25  H4  UNL     1      60.789   6.567  29.297  1.00  0.00     0.166 HD
HETATM   26  N5  UNL     1      60.944   8.291  27.507  1.00  0.00    -0.176 N 
HETATM   27  C15 UNL     1      58.933   9.162  28.461  1.00  0.00     0.062 A 
HETATM   28  C13 UNL     1      60.930   9.257  26.573  1.00  0.00     0.679 A 
ATOM     29  H5  UNL     1      61.697   7.603  27.506  1.00  0.00     0.186 HD
HETATM   30  N7  UNL     1      59.962  10.168  26.546  1.00  0.00    -0.176 N 
HETATM   31  C14 UNL     1      58.980  10.114  27.480  1.00  0.00     0.129 A 
ATOM     32  H7  UNL     1      59.959  10.897  25.833  1.00  0.00     0.186 HD
HETATM   33  N8  UNL     1      58.036  10.961  27.416  1.00  0.00    -0.384 N 
ATOM     34  H82 UNL     1      58.072  11.671  26.684  1.00  0.00     0.157 HD
ATOM     35  H81 UNL     1      57.297  10.921  28.118  1.00  0.00     0.157 HD
BRANCH  28  36
HETATM   36  N6  UNL     1      61.870   9.287  25.701  1.00  0.00    -0.234 N 
ATOM     37  H62 UNL     1      62.104   8.450  25.169  1.00  0.00     0.174 HD
ATOM     38  H61 UNL     1      62.376  10.161  25.553  1.00  0.00     0.174 HD
ENDBRANCH  28  36
ENDBRANCH   4  20
BRANCH   1  39
HETATM   39  S1  UNL     1      55.238   7.860  27.796  1.00  0.00    -0.133 SA
HETATM   40  C1  UNL     1      53.678   6.981  27.540  1.00  0.00     0.093 C 
ENDBRANCH   1  39
BRANCH   1  41
HETATM   41  C3  UNL     1      53.539   9.345  29.281  1.00  0.00     0.214 C 
BRANCH  41  42
HETATM   42  O1  UNL     1      53.007  10.011  28.191  1.00  0.00    -0.397 OA
ATOM     43  H1  UNL     1      52.384  10.648  28.519  1.00  0.00     0.209 HD
ENDBRANCH  41  42
ENDBRANCH   1  41
TORSDOF 12
ENDMDL
MODEL 2
REMARK VINA RESULT: -4.233639743      4.067      7.565
REMARK  12 active torsions:
REMARK  status: ('A' for Active; 'I' for Inactive)
REMARK    1  A    between atoms: S1_2  and  C2_3 
REMARK    2  A    between atoms: C2_3  and  C3_4 
REMARK    3  A    between atoms: C3_4  and  O1_5 
REMARK    4  A    between atoms: C4_9  and  C5_10 
REMARK    5  A    between atoms: C4_9  and  C9_23 
REMARK    6  A    between atoms: C5_10  and  C6_11 
REMARK    7  A    between atoms: C6_11  and  C7_12 
REMARK    8  A    between atoms: C7_12  and  N2_13 
REMARK    9  A    between atoms: N2_13  and  C8_16 
REMARK   10  A    between atoms: C8_16  and  N3_17 
REMARK   11  A    between atoms: C8_16  and  O2_21 
REMARK   12  A    between atoms: C13_31  and  N6_32 
ROOT
HETATM    1  C2  UNL     1      61.338   6.850  25.449  1.00  0.00     0.161 C 
HETATM    2  N1  UNL     1      61.043   5.817  26.272  1.00  0.00    -0.377 N 
ATOM      3  H1  UNL     1      61.611   5.034  26.599  1.00  0.00     0.156 HD
HETATM    4  C4  UNL     1      59.588   6.195  26.555  1.00  0.00     0.121 C 
HETATM    5  C16 UNL     1      59.826   6.854  25.273  1.00  0.00     0.199 C 
HETATM    6  O3  UNL     1      59.368   7.343  24.249  1.00  0.00    -0.291 OA
ENDROOT
BRANCH   4   7
HETATM    7  C5  UNL     1      59.013   4.741  26.489  1.00  0.00     0.046 C 
BRANCH   7   8
HETATM    8  C6  UNL     1      58.043   4.576  25.361  1.00  0.00     0.031 C 
BRANCH   8   9
HETATM    9  C7  UNL     1      56.781   3.977  26.006  1.00  0.00     0.237 C 
BRANCH   9  10
HETATM   10  N2  UNL     1      55.696   4.852  25.686  1.00  0.00    -0.023 N 
ATOM     11  H22 UNL     1      56.024   5.661  25.158  1.00  0.00     0.282 HD
ATOM     12  H21 UNL     1      55.084   4.433  24.986  1.00  0.00     0.282 HD
BRANCH  10  13
HETATM   13  C8  UNL     1      54.942   5.265  26.851  1.00  0.00     0.519 C 
BRANCH  13  14
HETATM   14  N3  UNL     1      53.691   4.530  26.839  1.00  0.00    -0.027 N 
ATOM     15  H33 UNL     1      53.709   3.722  26.216  1.00  0.00     0.279 HD
ATOM     16  H32 UNL     1      53.516   4.024  27.707  1.00  0.00     0.279 HD
ATOM     17  H31 UNL     1      52.951   5.194  26.609  1.00  0.00     0.279 HD
ENDBRANCH  13  14
BRANCH  13  18
HETATM   18  O2  UNL     1      54.632   6.615  26.700  1.00  0.00    -0.349 OA
ATOM     19  H2  UNL     1      53.686   6.691  26.647  1.00  0.00     0.213 HD
ENDBRANCH  13  18
ENDBRANCH  10  13
ENDBRANCH   9  10
ENDBRANCH   8   9
ENDBRANCH   7   8
ENDBRANCH   4   7
BRANCH   4  20
HETATM   20  C9  UNL     1      59.720   6.745  27.884  1.00  0.00    -0.004 A 
HETATM   21  C10 UNL     1      60.832   6.522  28.730  1.00  0.00     0.028 A 
HETATM   22  C11 UNL     1      60.945   6.944  30.027  1.00  0.00     0.090 A 
HETATM   23  N4  UNL     1      59.930   7.618  30.539  1.00  0.00    -0.351 N 
HETATM   24  C12 UNL     1      58.836   7.886  29.835  1.00  0.00     0.135 A 
ATOM     25  H4  UNL     1      59.989   7.943  31.504  1.00  0.00     0.166 HD
HETATM   26  N5  UNL     1      57.847   8.598  30.417  1.00  0.00    -0.176 N 
HETATM   27  C15 UNL     1      58.712   7.459  28.502  1.00  0.00     0.062 A 
HETATM   28  C13 UNL     1      56.731   8.912  29.738  1.00  0.00     0.679 A 
ATOM     29  H5  UNL     1      57.947   8.901  31.386  1.00  0.00     0.186 HD
HETATM   30  N7  UNL     1      56.570   8.532  28.474  1.00  0.00    -0.176 N 
HETATM   31  C14 UNL     1      57.552   7.817  27.871  1.00  0.00     0.129 A 
ATOM     32  H7  UNL     1      55.721   8.775  27.966  1.00  0.00     0.186 HD
HETATM   33  N8  UNL     1      57.407   7.499  26.650  1.00  0.00    -0.384 N 
ATOM     34  H82 UNL     1      56.542   7.767  26.180  1.00  0.00     0.157 HD
ATOM     35  H81 UNL     1      58.146   6.961  26.196  1.00  0.00     0.157 HD
BRANCH  28  36
HETATM   36  N6  UNL     1      55.817   9.589  30.330  1.00  0.00    -0.234 N 
ATOM     37  H62 UNL     1      55.731  10.591  30.165  1.00  0.00     0.174 HD
ATOM     38  H61 UNL     1      55.182   9.106  30.967  1.00  0.00     0.174 HD
ENDBRANCH  28  36
ENDBRANCH   4  20
BRANCH   1  39
HETATM   39  S1  UNL     1      61.903   8.442  25.967  1.00  0.00    -0.133 SA
HETATM   40  C1  UNL     1      60.500   9.569  26.139  1.00  0.00     0.093 C 
ENDBRANCH   1  39
BRANCH   1  41
HETATM   41  C3  UNL     1      62.121   6.391  24.222  1.00  0.00     0.214 C 
BRANCH  41  42
HETATM   42  O1  UNL     1      63.458   6.339  24.574  1.00  0.00    -0.397 OA
ATOM     43  H1  UNL     1      63.914   5.851  23.899  1.00  0.00     0.209 HD
ENDBRANCH  41  42
ENDBRANCH   1  41
TORSDOF 12
ENDMDL
MODEL 3
REMARK VINA RESULT: -4.116735566      2.450      5.049
REMARK  12 active torsions:
REMARK  status: ('A' for Active; 'I' for Inactive)
REMARK    1  A    between atoms: S1_2  and  C2_3 
REMARK    2  A    between atoms: C2_3  and  C3_4 
REMARK    3  A    between atoms: C3_4  and  O1_5 
REMARK    4  A    between atoms: C4_9  and  C5_10 
REMARK    5  A    between atoms: C4_9  and  C9_23 
REMARK    6  A    between atoms: C5_10  and  C6_11 
REMARK    7  A    between atoms: C6_11  and  C7_12 
REMARK    8  A    between atoms: C7_12  and  N2_13 
REMARK    9  A    between atoms: N2_13  and  C8_16 
REMARK   10  A    between atoms: C8_16  and  N3_17 
REMARK   11  A    between atoms: C8_16  and  O2_21 
REMARK   12  A    between atoms: C13_31  and  N6_32 
ROOT
HETATM    1  C2  UNL     1      59.561   8.880  28.670  1.00  0.00     0.161 C 
HETATM    2  N1  UNL     1      59.541  10.190  29.010  1.00  0.00    -0.377 N 
ATOM      3  H1  UNL     1      60.179  10.953  28.784  1.00  0.00     0.156 HD
HETATM    4  C4  UNL     1      58.258  10.161  29.843  1.00  0.00     0.121 C 
HETATM    5  C16 UNL     1      58.697   8.770  29.918  1.00  0.00     0.199 C 
HETATM    6  O3  UNL     1      58.659   7.694  30.498  1.00  0.00    -0.291 OA
ENDROOT
BRANCH   4   7
HETATM    7  C5  UNL     1      58.767  11.109  30.980  1.00  0.00     0.046 C 
BRANCH   7   8
HETATM    8  C6  UNL     1      57.842  12.267  31.195  1.00  0.00     0.031 C 
BRANCH   8   9
HETATM    9  C7  UNL     1      58.673  13.300  31.977  1.00  0.00     0.237 C 
BRANCH   9  10
HETATM   10  N2  UNL     1      57.791  14.374  32.312  1.00  0.00    -0.023 N 
ATOM     11  H22 UNL     1      57.107  14.529  31.571  1.00  0.00     0.282 HD
ATOM     12  H21 UNL     1      57.160  14.106  33.067  1.00  0.00     0.282 HD
BRANCH  10  13
HETATM   13  C8  UNL     1      58.492  15.599  32.635  1.00  0.00     0.519 C 
BRANCH  13  14
HETATM   14  N3  UNL     1      57.562  16.695  32.432  1.00  0.00    -0.027 N 
ATOM     15  H33 UNL     1      57.928  17.593  32.749  1.00  0.00     0.279 HD
ATOM     16  H32 UNL     1      57.442  16.941  31.449  1.00  0.00     0.279 HD
ATOM     17  H31 UNL     1      56.686  16.438  32.887  1.00  0.00     0.279 HD
ENDBRANCH  13  14
BRANCH  13  18
HETATM   18  O2  UNL     1      59.523  15.755  31.710  1.00  0.00    -0.349 OA
ATOM     19  H2  UNL     1      60.009  14.939  31.678  1.00  0.00     0.213 HD
ENDBRANCH  13  18
ENDBRANCH  10  13
ENDBRANCH   9  10
ENDBRANCH   8   9
ENDBRANCH   7   8
ENDBRANCH   4   7
BRANCH   4  20
HETATM   20  C9  UNL     1      57.333  10.761  28.910  1.00  0.00    -0.004 A 
HETATM   21  C10 UNL     1      57.625  11.899  28.121  1.00  0.00     0.028 A 
HETATM   22  C11 UNL     1      56.742  12.550  27.303  1.00  0.00     0.090 A 
HETATM   23  N4  UNL     1      55.508  12.080  27.242  1.00  0.00    -0.351 N 
HETATM   24  C12 UNL     1      55.124  11.017  27.938  1.00  0.00     0.135 A 
ATOM     25  H4  UNL     1      54.830  12.549  26.640  1.00  0.00     0.166 HD
HETATM   26  N5  UNL     1      53.851  10.581  27.811  1.00  0.00    -0.176 N 
HETATM   27  C15 UNL     1      56.024  10.340  28.780  1.00  0.00     0.062 A 
HETATM   28  C13 UNL     1      53.423   9.497  28.479  1.00  0.00     0.679 A 
ATOM     29  H5  UNL     1      53.207  11.081  27.199  1.00  0.00     0.186 HD
HETATM   30  N7  UNL     1      54.240   8.823  29.283  1.00  0.00    -0.176 N 
HETATM   31  C14 UNL     1      55.521   9.244  29.426  1.00  0.00     0.129 A 
ATOM     32  H7  UNL     1      53.907   8.001  29.786  1.00  0.00     0.186 HD
HETATM   33  N8  UNL     1      56.304   8.566  30.160  1.00  0.00    -0.384 N 
ATOM     34  H82 UNL     1      55.929   7.748  30.642  1.00  0.00     0.157 HD
ATOM     35  H81 UNL     1      57.268   8.883  30.268  1.00  0.00     0.157 HD
BRANCH  28  36
HETATM   36  N6  UNL     1      52.207   9.118  28.328  1.00  0.00    -0.234 N 
ATOM     37  H62 UNL     1      51.443   9.689  28.689  1.00  0.00     0.174 HD
ATOM     38  H61 UNL     1      52.023   8.240  27.844  1.00  0.00     0.174 HD
ENDBRANCH  28  36
ENDBRANCH   4  20
BRANCH   1  39
HETATM   39  S1  UNL     1      58.731   8.171  27.281  1.00  0.00    -0.133 SA
HETATM   40  C1  UNL     1      59.281   6.465  27.038  1.00  0.00     0.093 C 
ENDBRANCH   1  39
BRANCH   1  41
HETATM   41  C3  UNL     1      60.958   8.281  28.808  1.00  0.00     0.214 C 
BRANCH  41  42
HETATM   42  O1  UNL     1      61.376   8.490  30.110  1.00  0.00    -0.397 OA
ATOM     43  H1  UNL     1      62.248   8.865  30.075  1.00  0.00     0.209 HD
ENDBRANCH  41  42
ENDBRANCH   1  41
TORSDOF 12
ENDMDL
MODEL 4
REMARK VINA RESULT: -3.819671954      2.488      4.624
REMARK  12 active torsions:
REMARK  status: ('A' for Active; 'I' for Inactive)
REMARK    1  A    between atoms: S1_2  and  C2_3 
REMARK    2  A    between atoms: C2_3  and  C3_4 
REMARK    3  A    between atoms: C3_4  and  O1_5 
REMARK    4  A    between atoms: C4_9  and  C5_10 
REMARK    5  A    between atoms: C4_9  and  C9_23 
REMARK    6  A    between atoms: C5_10  and  C6_11 
REMARK    7  A    between atoms: C6_11  and  C7_12 
REMARK    8  A    between atoms: C7_12  and  N2_13 
REMARK    9  A    between atoms: N2_13  and  C8_16 
REMARK   10  A    between atoms: C8_16  and  N3_17 
REMARK   11  A    between atoms: C8_16  and  O2_21 
REMARK   12  A    between atoms: C13_31  and  N6_32 
ROOT
HETATM    1  C2  UNL     1      58.650   9.138  28.340  1.00  0.00     0.161 C 
HETATM    2  N1  UNL     1      58.137  10.387  28.257  1.00  0.00    -0.377 N 
ATOM      3  H1  UNL     1      58.157  11.074  27.503  1.00  0.00     0.156 HD
HETATM    4  C4  UNL     1      57.516  10.441  29.654  1.00  0.00     0.121 C 
HETATM    5  C16 UNL     1      58.563   9.439  29.829  1.00  0.00     0.199 C 
HETATM    6  O3  UNL     1      59.303   8.823  30.585  1.00  0.00    -0.291 OA
ENDROOT
BRANCH   4   7
HETATM    7  C5  UNL     1      57.915  11.922  29.966  1.00  0.00     0.046 C 
BRANCH   7   8
HETATM    8  C6  UNL     1      57.663  12.277  31.398  1.00  0.00     0.031 C 
BRANCH   8   9
HETATM    9  C7  UNL     1      58.609  13.455  31.688  1.00  0.00     0.237 C 
BRANCH   9  10
HETATM   10  N2  UNL     1      57.845  14.439  32.389  1.00  0.00    -0.023 N 
ATOM     11  H22 UNL     1      56.965  14.629  31.908  1.00  0.00     0.282 HD
ATOM     12  H21 UNL     1      57.478  14.061  33.263  1.00  0.00     0.282 HD
BRANCH  10  13
HETATM   13  C8  UNL     1      58.581  15.664  32.624  1.00  0.00     0.519 C 
BRANCH  13  14
HETATM   14  N3  UNL     1      57.669  16.768  32.382  1.00  0.00    -0.027 N 
ATOM     15  H33 UNL     1      56.929  16.536  31.720  1.00  0.00     0.279 HD
ATOM     16  H32 UNL     1      57.072  16.974  33.183  1.00  0.00     0.279 HD
ATOM     17  H31 UNL     1      58.231  17.567  32.089  1.00  0.00     0.279 HD
ENDBRANCH  13  14
BRANCH  13  18
HETATM   18  O2  UNL     1      59.590  15.743  31.666  1.00  0.00    -0.349 OA
ATOM     19  H2  UNL     1      60.254  15.102  31.891  1.00  0.00     0.213 HD
ENDBRANCH  13  18
ENDBRANCH  10  13
ENDBRANCH   9  10
ENDBRANCH   8   9
ENDBRANCH   7   8
ENDBRANCH   4   7
BRANCH   4  20
HETATM   20  C9  UNL     1      56.125  10.236  29.324  1.00  0.00    -0.004 A 
HETATM   21  C10 UNL     1      55.319   9.211  29.874  1.00  0.00     0.028 A 
HETATM   22  C11 UNL     1      54.030   8.927  29.510  1.00  0.00     0.090 A 
HETATM   23  N4  UNL     1      53.486   9.671  28.563  1.00  0.00    -0.351 N 
HETATM   24  C12 UNL     1      54.150  10.661  27.977  1.00  0.00     0.135 A 
ATOM     25  H4  UNL     1      52.528   9.479  28.273  1.00  0.00     0.166 HD
HETATM   26  N5  UNL     1      53.523  11.393  27.030  1.00  0.00    -0.176 N 
HETATM   27  C15 UNL     1      55.473  10.962  28.345  1.00  0.00     0.062 A 
HETATM   28  C13 UNL     1      54.146  12.418  26.426  1.00  0.00     0.679 A 
ATOM     29  H5  UNL     1      52.564  11.165  26.771  1.00  0.00     0.186 HD
HETATM   30  N7  UNL     1      55.396  12.741  26.743  1.00  0.00    -0.176 N 
HETATM   31  C14 UNL     1      56.043  12.019  27.691  1.00  0.00     0.129 A 
ATOM     32  H7  UNL     1      55.862  13.522  26.280  1.00  0.00     0.186 HD
HETATM   33  N8  UNL     1      57.220  12.366  28.019  1.00  0.00    -0.384 N 
ATOM     34  H82 UNL     1      57.645  13.155  27.532  1.00  0.00     0.157 HD
ATOM     35  H81 UNL     1      57.708  11.823  28.732  1.00  0.00     0.157 HD
BRANCH  28  36
HETATM   36  N6  UNL     1      53.514  13.086  25.532  1.00  0.00    -0.234 N 
ATOM     37  H62 UNL     1      52.907  12.608  24.867  1.00  0.00     0.174 HD
ATOM     38  H61 UNL     1      53.631  14.099  25.501  1.00  0.00     0.174 HD
ENDBRANCH  28  36
ENDBRANCH   4  20
BRANCH   1  39
HETATM   39  S1  UNL     1      57.783   7.647  27.959  1.00  0.00    -0.133 SA
HETATM   40  C1  UNL     1      58.864   6.518  27.050  1.00  0.00     0.093 C 
ENDBRANCH   1  39
BRANCH   1  41
HETATM   41  C3  UNL     1      60.072   9.073  27.786  1.00  0.00     0.214 C 
BRANCH  41  42
HETATM   42  O1  UNL     1      60.239  10.152  26.936  1.00  0.00    -0.397 OA
ATOM     43  H1  UNL     1      61.171  10.321  26.867  1.00  0.00     0.209 HD
ENDBRANCH  41  42
ENDBRANCH   1  41
TORSDOF 12
ENDMDL
MODEL 5
REMARK VINA RESULT: -3.759113565      3.272      5.440
REMARK  12 active torsions:
REMARK  status: ('A' for Active; 'I' for Inactive)
REMARK    1  A    between atoms: S1_2  and  C2_3 
REMARK    2  A    between atoms: C2_3  and  C3_4 
REMARK    3  A    between atoms: C3_4  and  O1_5 
REMARK    4  A    between atoms: C4_9  and  C5_10 
REMARK    5  A    between atoms: C4_9  and  C9_23 
REMARK    6  A    between atoms: C5_10  and  C6_11 
REMARK    7  A    between atoms: C6_11  and  C7_12 
REMARK    8  A    between atoms: C7_12  and  N2_13 
REMARK    9  A    between atoms: N2_13  and  C8_16 
REMARK   10  A    between atoms: C8_16  and  N3_17 
REMARK   11  A    between atoms: C8_16  and  O2_21 
REMARK   12  A    between atoms: C13_31  and  N6_32 
ROOT
HETATM    1  C2  UNL     1      60.803   8.717  29.663  1.00  0.00     0.161 C 
HETATM    2  N1  UNL     1      60.785   9.439  28.518  1.00  0.00    -0.377 N 
ATOM      3  H1  UNL     1      61.422  10.153  28.164  1.00  0.00     0.156 HD
HETATM    4  C4  UNL     1      59.505   8.845  27.927  1.00  0.00     0.121 C 
HETATM    5  C16 UNL     1      59.316   8.604  29.355  1.00  0.00     0.199 C 
HETATM    6  O3  UNL     1      58.552   8.379  30.283  1.00  0.00    -0.291 OA
ENDROOT
BRANCH   4   7
HETATM    7  C5  UNL     1      58.930  10.190  27.370  1.00  0.00     0.046 C 
BRANCH   7   8
HETATM    8  C6  UNL     1      57.458  10.310  27.617  1.00  0.00     0.031 C 
BRANCH   8   9
HETATM    9  C7  UNL     1      57.320  11.445  28.648  1.00  0.00     0.237 C 
BRANCH   9  10
HETATM   10  N2  UNL     1      56.582  10.915  29.752  1.00  0.00    -0.023 N 
ATOM     11  H22 UNL     1      57.198  10.721  30.543  1.00  0.00     0.282 HD
ATOM     12  H21 UNL     1      55.992  11.632  30.174  1.00  0.00     0.282 HD
BRANCH  10  13
HETATM   13  C8  UNL     1      55.805   9.744  29.402  1.00  0.00     0.519 C 
BRANCH  13  14
HETATM   14  N3  UNL     1      54.468  10.198  29.068  1.00  0.00    -0.027 N 
ATOM     15  H33 UNL     1      53.781   9.444  29.059  1.00  0.00     0.279 HD
ATOM     16  H32 UNL     1      54.040  10.758  29.807  1.00  0.00     0.279 HD
ATOM     17  H31 UNL     1      54.528  10.693  28.179  1.00  0.00     0.279 HD
ENDBRANCH  13  14
BRANCH  13  18
HETATM   18  O2  UNL     1      55.700   8.948  30.541  1.00  0.00    -0.349 OA
ATOM     19  H2  UNL     1      55.142   9.402  31.162  1.00  0.00     0.213 HD
ENDBRANCH  13  18
ENDBRANCH  10  13
ENDBRANCH   9  10
ENDBRANCH   8   9
ENDBRANCH   7   8
ENDBRANCH   4   7
BRANCH   4  20
HETATM   20  C9  UNL     1      60.069   7.960  26.935  1.00  0.00    -0.004 A 
HETATM   21  C10 UNL     1      61.320   8.164  26.305  1.00  0.00     0.028 A 
HETATM   22  C11 UNL     1      61.837   7.401  25.293  1.00  0.00     0.090 A 
HETATM   23  N4  UNL     1      61.109   6.385  24.862  1.00  0.00    -0.351 N 
HETATM   24  C12 UNL     1      59.920   6.100  25.381  1.00  0.00     0.135 A 
ATOM     25  H4  UNL     1      61.472   5.803  24.108  1.00  0.00     0.166 HD
HETATM   26  N5  UNL     1      59.241   5.035  24.904  1.00  0.00    -0.176 N 
HETATM   27  C15 UNL     1      59.381   6.877  26.422  1.00  0.00     0.062 A 
HETATM   28  C13 UNL     1      58.045   4.695  25.412  1.00  0.00     0.679 A 
ATOM     29  H5  UNL     1      59.641   4.480  24.148  1.00  0.00     0.186 HD
HETATM   30  N7  UNL     1      57.497   5.397  26.400  1.00  0.00    -0.176 N 
HETATM   31  C14 UNL     1      58.163   6.471  26.893  1.00  0.00     0.129 A 
ATOM     32  H7  UNL     1      56.589   5.132  26.780  1.00  0.00     0.186 HD
HETATM   33  N8  UNL     1      57.651   7.106  27.867  1.00  0.00    -0.384 N 
ATOM     34  H82 UNL     1      56.743   6.803  28.218  1.00  0.00     0.157 HD
ATOM     35  H81 UNL     1      58.152   7.914  28.237  1.00  0.00     0.157 HD
BRANCH  28  36
HETATM   36  N6  UNL     1      57.435   3.676  24.929  1.00  0.00    -0.234 N 
ATOM     37  H62 UNL     1      57.853   3.139  24.171  1.00  0.00     0.174 HD
ATOM     38  H61 UNL     1      56.528   3.417  25.317  1.00  0.00     0.174 HD
ENDBRANCH  28  36
ENDBRANCH   4  20
BRANCH   1  39
HETATM   39  S1  UNL     1      61.518   7.113  29.850  1.00  0.00    -0.133 SA
HETATM   40  C1  UNL     1      60.249   5.842  29.632  1.00  0.00     0.093 C 
ENDBRANCH   1  39
BRANCH   1  41
HETATM   41  C3  UNL     1      61.138   9.584  30.874  1.00  0.00     0.214 C 
BRANCH  41  42
HETATM   42  O1  UNL     1      59.978  10.234  31.257  1.00  0.00    -0.397 OA
ATOM     43  H1  UNL     1      59.399   9.587  31.639  1.00  0.00     0.209 HD
ENDBRANCH  41  42
ENDBRANCH   1  41
TORSDOF 12
ENDMDL
