MODEL 1
REMARK VINA RESULT: -7.973795206      0.000      0.000
REMARK  3 active torsions:
REMARK  status: ('A' for Active; 'I' for Inactive)
REMARK    1  A    between atoms: C3_3  and  N1_4 
REMARK    2  A    between atoms: N1_4  and  C4_6 
REMARK    3  A    between atoms: C23_25  and  C24_26 
ROOT
HETATM    1  C1  UNL     1      45.298  21.953 101.174  1.00  0.00     0.017 C 
HETATM    2  C2  UNL     1      44.561  22.072 100.121  1.00  0.00    -0.062 C 
HETATM    3  C3  UNL     1      43.087  22.183 100.191  1.00  0.00     0.109 C 
HETATM    4  C14 UNL     1      42.581  20.839  99.730  1.00  0.00     0.064 C 
HETATM    5  C15 UNL     1      43.676  20.085  99.025  1.00  0.00    -0.071 C 
HETATM    6  C16 UNL     1      43.807  18.767  99.265  1.00  0.00    -0.081 C 
HETATM    7  C17 UNL     1      42.911  18.048 100.198  1.00  0.00     0.043 C 
HETATM    8  C18 UNL     1      44.868  17.997  98.561  1.00  0.00     0.038 C 
HETATM    9  C19 UNL     1      44.897  18.613  97.151  1.00  0.00    -0.014 C 
HETATM   10  C20 UNL     1      45.703  17.793  96.194  1.00  0.00     0.010 C 
HETATM   11  C21 UNL     1      45.549  19.989  97.387  1.00  0.00     0.014 C 
HETATM   12  C22 UNL     1      44.557  20.839  98.091  1.00  0.00     0.023 C 
HETATM   13  C23 UNL     1      45.117  22.082  98.745  1.00  0.00     0.023 C 
ENDROOT
BRANCH   3  14
HETATM   14  N1  UNL     1      42.542  22.510 101.460  1.00  0.00    -0.408 N 
ATOM     15  H1  UNL     1      42.646  21.896 102.268  1.00  0.00     0.154 HD
BRANCH  14  16
HETATM   16  C4  UNL     1      41.845  23.744 101.538  1.00  0.00     0.085 C 
HETATM   17  C5  UNL     1      40.679  23.796 100.548  1.00  0.00     0.009 C 
HETATM   18  C6  UNL     1      39.624  22.772 100.881  1.00  0.00     0.011 C 
HETATM   19  C10 UNL     1      40.044  25.172 100.676  1.00  0.00     0.011 C 
HETATM   20  C7  UNL     1      39.073  22.994 102.274  1.00  0.00    -0.013 C 
HETATM   21  C8  UNL     1      38.441  24.358 102.344  1.00  0.00     0.009 C 
HETATM   22  C13 UNL     1      40.220  22.871 103.248  1.00  0.00     0.011 C 
HETATM   23  C9  UNL     1      39.498  25.401 102.073  1.00  0.00    -0.013 C 
HETATM   24  C11 UNL     1      40.638  25.303 103.040  1.00  0.00     0.011 C 
HETATM   25  C12 UNL     1      41.252  23.913 102.913  1.00  0.00     0.009 C 
ENDBRANCH  14  16
ENDBRANCH   3  14
BRANCH  13  26
HETATM   26  C24 UNL     1      46.596  22.225  98.728  1.00  0.00     0.005 C 
HETATM   27  C25 UNL     1      47.156  23.194  97.732  1.00  0.00     0.006 C 
ENDBRANCH  13  26
TORSDOF 3
ENDMDL
MODEL 2
REMARK VINA RESULT: -7.862262662      0.655      1.759
REMARK  3 active torsions:
REMARK  status: ('A' for Active; 'I' for Inactive)
REMARK    1  A    between atoms: C3_3  and  N1_4 
REMARK    2  A    between atoms: N1_4  and  C4_6 
REMARK    3  A    between atoms: C23_25  and  C24_26 
ROOT
HETATM    1  C1  UNL     1      45.372  22.108 101.296  1.00  0.00     0.017 C 
HETATM    2  C2  UNL     1      44.709  22.228 100.196  1.00  0.00    -0.062 C 
HETATM    3  C3  UNL     1      43.294  22.661 100.165  1.00  0.00     0.109 C 
HETATM    4  C14 UNL     1      42.518  21.403  99.861  1.00  0.00     0.064 C 
HETATM    5  C15 UNL     1      43.440  20.339  99.328  1.00  0.00    -0.071 C 
HETATM    6  C16 UNL     1      43.271  19.072  99.751  1.00  0.00    -0.081 C 
HETATM    7  C17 UNL     1      42.214  18.703 100.719  1.00  0.00     0.043 C 
HETATM    8  C18 UNL     1      44.156  18.001  99.220  1.00  0.00     0.038 C 
HETATM    9  C19 UNL     1      44.358  18.386  97.743  1.00  0.00    -0.014 C 
HETATM   10  C20 UNL     1      44.990  17.284  96.954  1.00  0.00     0.010 C 
HETATM   11  C21 UNL     1      45.289  19.610  97.829  1.00  0.00     0.014 C 
HETATM   12  C22 UNL     1      44.489  20.745  98.353  1.00  0.00     0.023 C 
HETATM   13  C23 UNL     1      45.291  21.921  98.865  1.00  0.00     0.023 C 
ENDROOT
BRANCH   3  14
HETATM   14  N1  UNL     1      42.800  23.276 101.344  1.00  0.00    -0.408 N 
ATOM     15  H1  UNL     1      43.339  23.973 101.857  1.00  0.00     0.154 HD
BRANCH  14  16
HETATM   16  C4  UNL     1      41.510  22.862 101.766  1.00  0.00     0.085 C 
HETATM   17  C5  UNL     1      41.120  23.502 103.101  1.00  0.00     0.009 C 
HETATM   18  C6  UNL     1      40.988  24.999 102.979  1.00  0.00     0.011 C 
HETATM   19  C10 UNL     1      39.756  22.949 103.482  1.00  0.00     0.011 C 
HETATM   20  C7  UNL     1      39.941  25.370 101.951  1.00  0.00    -0.013 C 
HETATM   21  C8  UNL     1      38.609  24.817 102.382  1.00  0.00     0.009 C 
HETATM   22  C13 UNL     1      40.370  24.792 100.625  1.00  0.00     0.011 C 
HETATM   23  C9  UNL     1      38.704  23.311 102.450  1.00  0.00    -0.013 C 
HETATM   24  C11 UNL     1      39.116  22.719 101.138  1.00  0.00     0.011 C 
HETATM   25  C12 UNL     1      40.476  23.298 100.760  1.00  0.00     0.009 C 
ENDBRANCH  14  16
ENDBRANCH   3  14
BRANCH  13  26
HETATM   26  C24 UNL     1      46.765  21.741  98.916  1.00  0.00     0.005 C 
HETATM   27  C25 UNL     1      47.562  22.536  97.927  1.00  0.00     0.006 C 
ENDBRANCH  13  26
TORSDOF 3
ENDMDL
MODEL 3
REMARK VINA RESULT: -7.644521819      1.620      7.211
REMARK  3 active torsions:
REMARK  status: ('A' for Active; 'I' for Inactive)
REMARK    1  A    between atoms: C3_3  and  N1_4 
REMARK    2  A    between atoms: N1_4  and  C4_6 
REMARK    3  A    between atoms: C23_25  and  C24_26 
ROOT
HETATM    1  C1  UNL     1      43.783  21.402  98.783  1.00  0.00     0.017 C 
HETATM    2  C2  UNL     1      43.552  21.165 100.031  1.00  0.00    -0.062 C 
HETATM    3  C3  UNL     1      43.069  19.853 100.514  1.00  0.00     0.109 C 
HETATM    4  C14 UNL     1      41.615  20.081 100.848  1.00  0.00     0.064 C 
HETATM    5  C15 UNL     1      41.331  21.555 100.953  1.00  0.00    -0.071 C 
HETATM    6  C16 UNL     1      40.187  22.027 100.425  1.00  0.00    -0.081 C 
HETATM    7  C17 UNL     1      39.211  21.143  99.750  1.00  0.00     0.043 C 
HETATM    8  C18 UNL     1      39.874  23.478 100.537  1.00  0.00     0.038 C 
HETATM    9  C19 UNL     1      40.388  23.859 101.937  1.00  0.00    -0.014 C 
HETATM   10  C20 UNL     1      39.917  25.214 102.361  1.00  0.00     0.010 C 
HETATM   11  C21 UNL     1      41.919  23.835 101.763  1.00  0.00     0.014 C 
HETATM   12  C22 UNL     1      42.333  22.415 101.642  1.00  0.00     0.023 C 
HETATM   13  C23 UNL     1      43.723  22.190 101.092  1.00  0.00     0.023 C 
ENDROOT
BRANCH   3  14
HETATM   14  N1  UNL     1      43.206  18.763  99.614  1.00  0.00    -0.408 N 
ATOM     15  H1  UNL     1      42.407  18.365  99.121  1.00  0.00     0.154 HD
BRANCH  14  16
HETATM   16  C4  UNL     1      44.522  18.263  99.440  1.00  0.00     0.085 C 
HETATM   17  C5  UNL     1      44.515  16.805  98.973  1.00  0.00     0.009 C 
HETATM   18  C6  UNL     1      43.901  16.667  97.603  1.00  0.00     0.011 C 
HETATM   19  C10 UNL     1      45.965  16.358  98.876  1.00  0.00     0.011 C 
HETATM   20  C7  UNL     1      44.659  17.488  96.582  1.00  0.00    -0.013 C 
HETATM   21  C8  UNL     1      46.080  16.996  96.510  1.00  0.00     0.009 C 
HETATM   22  C13 UNL     1      44.601  18.932  97.017  1.00  0.00     0.011 C 
HETATM   23  C9  UNL     1      46.731  17.185  97.859  1.00  0.00    -0.013 C 
HETATM   24  C11 UNL     1      46.695  18.616  98.300  1.00  0.00     0.011 C 
HETATM   25  C12 UNL     1      45.236  19.055  98.375  1.00  0.00     0.009 C 
ENDBRANCH  14  16
ENDBRANCH   3  14
BRANCH  13  26
HETATM   26  C24 UNL     1      44.443  23.395 100.608  1.00  0.00     0.005 C 
HETATM   27  C25 UNL     1      45.939  23.311 100.593  1.00  0.00     0.006 C 
ENDBRANCH  13  26
TORSDOF 3
ENDMDL
MODEL 4
REMARK VINA RESULT: -7.588352401      1.846      7.388
REMARK  3 active torsions:
REMARK  status: ('A' for Active; 'I' for Inactive)
REMARK    1  A    between atoms: C3_3  and  N1_4 
REMARK    2  A    between atoms: N1_4  and  C4_6 
REMARK    3  A    between atoms: C23_25  and  C24_26 
ROOT
HETATM    1  C1  UNL     1      43.758  19.052 101.178  1.00  0.00     0.017 C 
HETATM    2  C2  UNL     1      43.175  19.637 100.186  1.00  0.00    -0.062 C 
HETATM    3  C3  UNL     1      43.931  20.295  99.097  1.00  0.00     0.109 C 
HETATM    4  C14 UNL     1      43.769  21.772  99.360  1.00  0.00     0.064 C 
HETATM    5  C15 UNL     1      42.635  22.009 100.320  1.00  0.00    -0.071 C 
HETATM    6  C16 UNL     1      42.792  22.935 101.285  1.00  0.00    -0.081 C 
HETATM    7  C17 UNL     1      44.041  23.717 101.424  1.00  0.00     0.043 C 
HETATM    8  C18 UNL     1      41.675  23.201 102.231  1.00  0.00     0.038 C 
HETATM    9  C19 UNL     1      40.414  23.089 101.355  1.00  0.00    -0.014 C 
HETATM   10  C20 UNL     1      39.195  23.599 102.055  1.00  0.00     0.010 C 
HETATM   11  C21 UNL     1      40.308  21.574 101.093  1.00  0.00     0.014 C 
HETATM   12  C22 UNL     1      41.392  21.207 100.149  1.00  0.00     0.023 C 
HETATM   13  C23 UNL     1      41.699  19.729 100.058  1.00  0.00     0.023 C 
ENDROOT
BRANCH   3  14
HETATM   14  N1  UNL     1      45.305  19.957  98.994  1.00  0.00    -0.408 N 
ATOM     15  H1  UNL     1      45.635  18.997  99.087  1.00  0.00     0.154 HD
BRANCH  14  16
HETATM   16  C4  UNL     1      46.194  21.037  98.751  1.00  0.00     0.085 C 
HETATM   17  C5  UNL     1      47.657  20.598  98.853  1.00  0.00     0.009 C 
HETATM   18  C6  UNL     1      48.011  19.601  97.780  1.00  0.00     0.011 C 
HETATM   19  C10 UNL     1      48.512  21.836  98.635  1.00  0.00     0.011 C 
HETATM   20  C7  UNL     1      47.787  20.185  96.402  1.00  0.00    -0.013 C 
HETATM   21  C8  UNL     1      48.668  21.393  96.227  1.00  0.00     0.009 C 
HETATM   22  C13 UNL     1      46.327  20.549  96.287  1.00  0.00     0.011 C 
HETATM   23  C9  UNL     1      48.284  22.429  97.256  1.00  0.00    -0.013 C 
HETATM   24  C11 UNL     1      46.840  22.814  97.148  1.00  0.00     0.011 C 
HETATM   25  C12 UNL     1      45.996  21.560  97.351  1.00  0.00     0.009 C 
ENDBRANCH  14  16
ENDBRANCH   3  14
BRANCH  13  26
HETATM   26  C24 UNL     1      40.988  18.848 101.020  1.00  0.00     0.005 C 
HETATM   27  C25 UNL     1      40.512  17.532 100.484  1.00  0.00     0.006 C 
ENDBRANCH  13  26
TORSDOF 3
ENDMDL
MODEL 5
REMARK VINA RESULT: -7.461839738      1.174      3.217
REMARK  3 active torsions:
REMARK  status: ('A' for Active; 'I' for Inactive)
REMARK    1  A    between atoms: C3_3  and  N1_4 
REMARK    2  A    between atoms: N1_4  and  C4_6 
REMARK    3  A    between atoms: C23_25  and  C24_26 
ROOT
HETATM    1  C1  UNL     1      42.946  20.513  98.711  1.00  0.00     0.017 C 
HETATM    2  C2  UNL     1      43.911  20.662  99.555  1.00  0.00    -0.062 C 
HETATM    3  C3  UNL     1      43.753  21.420 100.816  1.00  0.00     0.109 C 
HETATM    4  C14 UNL     1      44.485  22.718 100.576  1.00  0.00     0.064 C 
HETATM    5  C15 UNL     1      45.391  22.589  99.381  1.00  0.00    -0.071 C 
HETATM    6  C16 UNL     1      45.463  23.619  98.516  1.00  0.00    -0.081 C 
HETATM    7  C17 UNL     1      44.680  24.860  98.708  1.00  0.00     0.043 C 
HETATM    8  C18 UNL     1      46.369  23.523  97.340  1.00  0.00     0.038 C 
HETATM    9  C19 UNL     1      47.603  22.779  97.884  1.00  0.00    -0.014 C 
HETATM   10  C20 UNL     1      48.755  22.828  96.932  1.00  0.00     0.010 C 
HETATM   11  C21 UNL     1      47.089  21.337  98.058  1.00  0.00     0.014 C 
HETATM   12  C22 UNL     1      46.167  21.329  99.221  1.00  0.00     0.023 C 
HETATM   13  C23 UNL     1      45.272  20.114  99.329  1.00  0.00     0.023 C 
ENDROOT
BRANCH   3  14
HETATM   14  N1  UNL     1      42.420  21.673 101.234  1.00  0.00    -0.408 N 
ATOM     15  H1  UNL     1      41.784  20.920 101.495  1.00  0.00     0.154 HD
BRANCH  14  16
HETATM   16  C4  UNL     1      42.028  23.036 101.266  1.00  0.00     0.085 C 
HETATM   17  C5  UNL     1      40.856  23.308 100.319  1.00  0.00     0.009 C 
HETATM   18  C6  UNL     1      39.613  22.572 100.751  1.00  0.00     0.011 C 
HETATM   19  C10 UNL     1      40.558  24.798 100.391  1.00  0.00     0.011 C 
HETATM   20  C7  UNL     1      39.198  22.981 102.148  1.00  0.00    -0.013 C 
HETATM   21  C8  UNL     1      38.898  24.456 102.163  1.00  0.00     0.009 C 
HETATM   22  C13 UNL     1      40.334  22.644 103.084  1.00  0.00     0.011 C 
HETATM   23  C9  UNL     1      40.150  25.213 101.792  1.00  0.00    -0.013 C 
HETATM   24  C11 UNL     1      41.284  24.902 102.719  1.00  0.00     0.011 C 
HETATM   25  C12 UNL     1      41.558  23.403 102.650  1.00  0.00     0.009 C 
ENDBRANCH  14  16
ENDBRANCH   3  14
BRANCH  13  26
HETATM   26  C24 UNL     1      45.320  19.157  98.194  1.00  0.00     0.005 C 
HETATM   27  C25 UNL     1      45.737  17.757  98.526  1.00  0.00     0.006 C 
ENDBRANCH  13  26
TORSDOF 3
ENDMDL
