MODEL 1
REMARK VINA RESULT: -9.211568834      0.000      0.000
REMARK  4 active torsions:
REMARK  status: ('A' for Active; 'I' for Inactive)
REMARK    1  A    between atoms: C2_2  and  C5_5 
REMARK    2  A    between atoms: C5_5  and  C6_6 
REMARK    3  A    between atoms: C6_6  and  C7_7 
REMARK    4  A    between atoms: C19_19  and  O1_20 
ROOT
HETATM    1  C7  UNL     1      41.883  21.814 101.246  1.00  0.00     0.015 C 
HETATM    2  C8  UNL     1      40.972  20.639 101.140  1.00  0.00     0.009 C 
HETATM    3  C9  UNL     1      41.765  19.349 101.251  1.00  0.00     0.005 C 
HETATM    4  C10 UNL     1      42.652  19.279 100.034  1.00  0.00     0.035 C 
HETATM    5  C11 UNL     1      43.386  20.553  99.808  1.00  0.00    -0.072 C 
HETATM    6  C12 UNL     1      43.063  21.712 100.341  1.00  0.00    -0.073 C 
HETATM    7  C13 UNL     1      43.810  22.974 100.103  1.00  0.00     0.035 C 
HETATM    8  C14 UNL     1      45.156  22.789  99.499  1.00  0.00     0.010 C 
HETATM    9  C15 UNL     1      45.636  21.359  99.517  1.00  0.00     0.002 C 
HETATM   10  C16 UNL     1      46.918  21.235  98.767  1.00  0.00     0.019 C 
HETATM   11  C17 UNL     1      47.668  19.975  99.214  1.00  0.00     0.012 C 
HETATM   12  C18 UNL     1      48.974  19.935  98.482  1.00  0.00     0.032 C 
HETATM   13  C19 UNL     1      48.743  19.816  96.990  1.00  0.00     0.122 C 
HETATM   14  C20 UNL     1      47.963  21.027  96.463  1.00  0.00     0.065 C 
HETATM   15  C21 UNL     1      46.703  21.067  97.293  1.00  0.00    -0.077 C 
HETATM   16  C22 UNL     1      45.519  20.962  96.738  1.00  0.00    -0.023 C 
HETATM   17  C23 UNL     1      44.247  20.997  97.520  1.00  0.00     0.036 C 
HETATM   18  C24 UNL     1      44.572  20.504  98.911  1.00  0.00     0.023 C 
ENDROOT
BRANCH   1  19
HETATM   19  C6  UNL     1      41.141  23.119 101.033  1.00  0.00     0.010 C 
BRANCH  19  20
HETATM   20  C5  UNL     1      39.699  22.944 101.443  1.00  0.00     0.009 C 
BRANCH  20  21
HETATM   21  C2  UNL     1      39.360  23.772 102.665  1.00  0.00    -0.051 C 
HETATM   22  C1  UNL     1      37.864  24.014 102.639  1.00  0.00     0.014 C 
HETATM   23  C3  UNL     1      39.696  22.988 103.903  1.00  0.00     0.014 C 
HETATM   24  C4  UNL     1      40.091  25.096 102.600  1.00  0.00     0.014 C 
ENDBRANCH  20  21
ENDBRANCH  19  20
ENDBRANCH   1  19
BRANCH  13  25
HETATM   25  O1  UNL     1      47.916  18.712  96.791  1.00  0.00    -0.395 OA
ATOM     26  H1  UNL     1      47.257  18.730  97.476  1.00  0.00     0.210 HD
ENDBRANCH  13  25
TORSDOF 4
ENDMDL
MODEL 2
REMARK VINA RESULT: -8.190122453      3.187      8.143
REMARK  4 active torsions:
REMARK  status: ('A' for Active; 'I' for Inactive)
REMARK    1  A    between atoms: C2_2  and  C5_5 
REMARK    2  A    between atoms: C5_5  and  C6_6 
REMARK    3  A    between atoms: C6_6  and  C7_7 
REMARK    4  A    between atoms: C19_19  and  O1_20 
ROOT
HETATM    1  C7  UNL     1      44.488  21.246  99.892  1.00  0.00     0.015 C 
HETATM    2  C8  UNL     1      45.505  22.337  99.872  1.00  0.00     0.009 C 
HETATM    3  C9  UNL     1      45.514  23.070 101.201  1.00  0.00     0.005 C 
HETATM    4  C10 UNL     1      44.183  23.767 101.322  1.00  0.00     0.035 C 
HETATM    5  C11 UNL     1      43.049  22.853 101.017  1.00  0.00    -0.072 C 
HETATM    6  C12 UNL     1      43.156  21.710 100.374  1.00  0.00    -0.073 C 
HETATM    7  C13 UNL     1      42.010  20.811 100.079  1.00  0.00     0.035 C 
HETATM    8  C14 UNL     1      40.778  21.109 100.856  1.00  0.00     0.010 C 
HETATM    9  C15 UNL     1      41.002  22.060 102.005  1.00  0.00     0.002 C 
HETATM   10  C16 UNL     1      39.701  22.419 102.638  1.00  0.00     0.019 C 
HETATM   11  C17 UNL     1      39.935  22.917 104.069  1.00  0.00     0.012 C 
HETATM   12  C18 UNL     1      38.596  23.199 104.681  1.00  0.00     0.032 C 
HETATM   13  C19 UNL     1      37.892  24.308 103.927  1.00  0.00     0.122 C 
HETATM   14  C20 UNL     1      37.650  23.904 102.468  1.00  0.00     0.065 C 
HETATM   15  C21 UNL     1      39.016  23.550 101.932  1.00  0.00    -0.077 C 
HETATM   16  C22 UNL     1      39.540  24.200 100.920  1.00  0.00    -0.023 C 
HETATM   17  C23 UNL     1      40.886  23.882 100.357  1.00  0.00     0.036 C 
HETATM   18  C24 UNL     1      41.698  23.271 101.476  1.00  0.00     0.023 C 
ENDROOT
BRANCH   1  19
HETATM   19  C6  UNL     1      44.376  20.561  98.544  1.00  0.00     0.010 C 
BRANCH  19  20
HETATM   20  C5  UNL     1      45.538  19.615  98.369  1.00  0.00     0.009 C 
BRANCH  20  21
HETATM   21  C2  UNL     1      45.071  18.210  98.043  1.00  0.00    -0.051 C 
HETATM   22  C1  UNL     1      46.264  17.292  98.219  1.00  0.00     0.014 C 
HETATM   23  C3  UNL     1      44.006  17.803  99.021  1.00  0.00     0.014 C 
HETATM   24  C4  UNL     1      44.595  18.155  96.607  1.00  0.00     0.014 C 
ENDBRANCH  20  21
ENDBRANCH  19  20
ENDBRANCH   1  19
BRANCH  13  25
HETATM   25  O1  UNL     1      38.767  25.393 103.885  1.00  0.00    -0.395 OA
ATOM     26  H1  UNL     1      38.350  26.105 104.354  1.00  0.00     0.210 HD
ENDBRANCH  13  25
TORSDOF 4
ENDMDL
MODEL 3
REMARK VINA RESULT: -8.047241352      1.219      1.437
REMARK  4 active torsions:
REMARK  status: ('A' for Active; 'I' for Inactive)
REMARK    1  A    between atoms: C2_2  and  C5_5 
REMARK    2  A    between atoms: C5_5  and  C6_6 
REMARK    3  A    between atoms: C6_6  and  C7_7 
REMARK    4  A    between atoms: C19_19  and  O1_20 
ROOT
HETATM    1  C7  UNL     1      42.018  20.339 101.072  1.00  0.00     0.015 C 
HETATM    2  C8  UNL     1      41.600  18.989 100.598  1.00  0.00     0.009 C 
HETATM    3  C9  UNL     1      42.810  18.085 100.455  1.00  0.00     0.005 C 
HETATM    4  C10 UNL     1      43.650  18.657  99.341  1.00  0.00     0.035 C 
HETATM    5  C11 UNL     1      43.865  20.119  99.504  1.00  0.00    -0.072 C 
HETATM    6  C12 UNL     1      43.145  20.904 100.277  1.00  0.00    -0.073 C 
HETATM    7  C13 UNL     1      43.377  22.365 100.426  1.00  0.00     0.035 C 
HETATM    8  C14 UNL     1      44.692  22.836  99.915  1.00  0.00     0.010 C 
HETATM    9  C15 UNL     1      45.661  21.718  99.621  1.00  0.00     0.002 C 
HETATM   10  C16 UNL     1      46.893  22.260  98.979  1.00  0.00     0.019 C 
HETATM   11  C17 UNL     1      48.056  21.278  99.164  1.00  0.00     0.012 C 
HETATM   12  C18 UNL     1      49.280  21.899  98.562  1.00  0.00     0.032 C 
HETATM   13  C19 UNL     1      49.094  22.102  97.073  1.00  0.00     0.122 C 
HETATM   14  C20 UNL     1      47.921  23.050  96.797  1.00  0.00     0.065 C 
HETATM   15  C21 UNL     1      46.741  22.420  97.496  1.00  0.00    -0.077 C 
HETATM   16  C22 UNL     1      45.672  22.051  96.831  1.00  0.00    -0.023 C 
HETATM   17  C23 UNL     1      44.483  21.426  97.483  1.00  0.00     0.036 C 
HETATM   18  C24 UNL     1      44.978  20.733  98.731  1.00  0.00     0.023 C 
ENDROOT
BRANCH   1  19
HETATM   19  C6  UNL     1      40.848  21.302 101.125  1.00  0.00     0.010 C 
BRANCH  19  20
HETATM   20  C5  UNL     1      40.990  22.191 102.335  1.00  0.00     0.009 C 
BRANCH  20  21
HETATM   21  C2  UNL     1      39.949  23.292 102.346  1.00  0.00    -0.051 C 
HETATM   22  C1  UNL     1      39.125  23.138 101.083  1.00  0.00     0.014 C 
HETATM   23  C3  UNL     1      39.044  23.105 103.532  1.00  0.00     0.014 C 
HETATM   24  C4  UNL     1      40.635  24.640 102.345  1.00  0.00     0.014 C 
ENDBRANCH  20  21
ENDBRANCH  19  20
ENDBRANCH   1  19
BRANCH  13  25
HETATM   25  O1  UNL     1      48.727  20.870  96.535  1.00  0.00    -0.395 OA
ATOM     26  H1  UNL     1      48.471  21.025  95.633  1.00  0.00     0.210 HD
ENDBRANCH  13  25
TORSDOF 4
ENDMDL
MODEL 4
REMARK VINA RESULT: -8.015177825      3.176      8.179
REMARK  4 active torsions:
REMARK  status: ('A' for Active; 'I' for Inactive)
REMARK    1  A    between atoms: C2_2  and  C5_5 
REMARK    2  A    between atoms: C5_5  and  C6_6 
REMARK    3  A    between atoms: C6_6  and  C7_7 
REMARK    4  A    between atoms: C19_19  and  O1_20 
ROOT
HETATM    1  C7  UNL     1      44.578  21.418  99.926  1.00  0.00     0.015 C 
HETATM    2  C8  UNL     1      45.576  22.525  99.933  1.00  0.00     0.009 C 
HETATM    3  C9  UNL     1      45.558  23.239 101.273  1.00  0.00     0.005 C 
HETATM    4  C10 UNL     1      44.214  23.912 101.388  1.00  0.00     0.035 C 
HETATM    5  C11 UNL     1      43.099  22.985 101.057  1.00  0.00    -0.072 C 
HETATM    6  C12 UNL     1      43.232  21.853 100.399  1.00  0.00    -0.073 C 
HETATM    7  C13 UNL     1      42.105  20.940 100.077  1.00  0.00     0.035 C 
HETATM    8  C14 UNL     1      40.859  21.206 100.844  1.00  0.00     0.010 C 
HETATM    9  C15 UNL     1      41.054  22.144 102.009  1.00  0.00     0.002 C 
HETATM   10  C16 UNL     1      39.740  22.473 102.632  1.00  0.00     0.019 C 
HETATM   11  C17 UNL     1      39.949  22.954 104.072  1.00  0.00     0.012 C 
HETATM   12  C18 UNL     1      38.599  23.206 104.672  1.00  0.00     0.032 C 
HETATM   13  C19 UNL     1      37.885  24.313 103.925  1.00  0.00     0.122 C 
HETATM   14  C20 UNL     1      37.667  23.926 102.458  1.00  0.00     0.065 C 
HETATM   15  C21 UNL     1      39.044  23.602 101.933  1.00  0.00    -0.077 C 
HETATM   16  C22 UNL     1      39.569  24.275 100.937  1.00  0.00    -0.023 C 
HETATM   17  C23 UNL     1      40.927  23.987 100.385  1.00  0.00     0.036 C 
HETATM   18  C24 UNL     1      41.735  23.374 101.506  1.00  0.00     0.023 C 
ENDROOT
BRANCH   1  19
HETATM   19  C6  UNL     1      44.492  20.750  98.568  1.00  0.00     0.010 C 
BRANCH  19  20
HETATM   20  C5  UNL     1      45.519  19.647  98.490  1.00  0.00     0.009 C 
BRANCH  20  21
HETATM   21  C2  UNL     1      45.148  18.610  97.449  1.00  0.00    -0.051 C 
HETATM   22  C1  UNL     1      44.350  19.323  96.375  1.00  0.00     0.014 C 
HETATM   23  C3  UNL     1      46.402  18.062  96.829  1.00  0.00     0.014 C 
HETATM   24  C4  UNL     1      44.296  17.534  98.086  1.00  0.00     0.014 C 
ENDBRANCH  20  21
ENDBRANCH  19  20
ENDBRANCH   1  19
BRANCH  13  25
HETATM   25  O1  UNL     1      38.742  25.413 103.908  1.00  0.00    -0.395 OA
ATOM     26  H1  UNL     1      38.204  26.188 104.019  1.00  0.00     0.210 HD
ENDBRANCH  13  25
TORSDOF 4
ENDMDL
MODEL 5
REMARK VINA RESULT: -7.893278781      2.978      8.240
REMARK  4 active torsions:
REMARK  status: ('A' for Active; 'I' for Inactive)
REMARK    1  A    between atoms: C2_2  and  C5_5 
REMARK    2  A    between atoms: C5_5  and  C6_6 
REMARK    3  A    between atoms: C6_6  and  C7_7 
REMARK    4  A    between atoms: C19_19  and  O1_20 
ROOT
HETATM    1  C7  UNL     1      44.603  21.499 100.007  1.00  0.00     0.015 C 
HETATM    2  C8  UNL     1      45.592  22.613 100.062  1.00  0.00     0.009 C 
HETATM    3  C9  UNL     1      45.538  23.296 101.417  1.00  0.00     0.005 C 
HETATM    4  C10 UNL     1      44.186  23.957 101.516  1.00  0.00     0.035 C 
HETATM    5  C11 UNL     1      43.087  23.029 101.138  1.00  0.00    -0.072 C 
HETATM    6  C12 UNL     1      43.244  21.913 100.458  1.00  0.00    -0.073 C 
HETATM    7  C13 UNL     1      42.131  20.999 100.091  1.00  0.00     0.035 C 
HETATM    8  C14 UNL     1      40.866  21.238 100.835  1.00  0.00     0.010 C 
HETATM    9  C15 UNL     1      41.027  22.151 102.024  1.00  0.00     0.002 C 
HETATM   10  C16 UNL     1      39.697  22.457 102.625  1.00  0.00     0.019 C 
HETATM   11  C17 UNL     1      39.869  22.907 104.080  1.00  0.00     0.012 C 
HETATM   12  C18 UNL     1      38.504  23.134 104.654  1.00  0.00     0.032 C 
HETATM   13  C19 UNL     1      37.799  24.254 103.916  1.00  0.00     0.122 C 
HETATM   14  C20 UNL     1      37.617  23.898 102.436  1.00  0.00     0.065 C 
HETATM   15  C21 UNL     1      39.008  23.596 101.936  1.00  0.00    -0.077 C 
HETATM   16  C22 UNL     1      39.550  24.295 100.967  1.00  0.00    -0.023 C 
HETATM   17  C23 UNL     1      40.923  24.030 100.440  1.00  0.00     0.036 C 
HETATM   18  C24 UNL     1      41.710  23.398 101.565  1.00  0.00     0.023 C 
ENDROOT
BRANCH   1  19
HETATM   19  C6  UNL     1      44.553  20.860  98.633  1.00  0.00     0.010 C 
BRANCH  19  20
HETATM   20  C5  UNL     1      45.954  20.505  98.198  1.00  0.00     0.009 C 
BRANCH  20  21
HETATM   21  C2  UNL     1      46.177  20.807  96.730  1.00  0.00    -0.051 C 
HETATM   22  C1  UNL     1      46.360  22.307  96.606  1.00  0.00     0.014 C 
HETATM   23  C3  UNL     1      47.440  20.133  96.273  1.00  0.00     0.014 C 
HETATM   24  C4  UNL     1      44.965  20.376  95.933  1.00  0.00     0.014 C 
ENDBRANCH  20  21
ENDBRANCH  19  20
ENDBRANCH   1  19
BRANCH  13  25
HETATM   25  O1  UNL     1      38.647  25.359 103.944  1.00  0.00    -0.395 OA
ATOM     26  H1  UNL     1      38.288  26.001 103.343  1.00  0.00     0.210 HD
ENDBRANCH  13  25
TORSDOF 4
ENDMDL
