MODEL 1
REMARK VINA RESULT: -9.836237351      0.000      0.000
REMARK  4 active torsions:
REMARK  status: ('A' for Active; 'I' for Inactive)
REMARK    1  A    between atoms: C9_9  and  C10_10 
REMARK    2  A    between atoms: C10_10  and  C11_11 
REMARK    3  A    between atoms: C11_11  and  C12_12 
REMARK    4  A    between atoms: C21_21  and  O1_22 
ROOT
HETATM    1  C1  UNL     1      48.848  21.370  99.984  1.00  0.00     0.019 C 
HETATM    2  C2  UNL     1      48.104  21.619  98.925  1.00  0.00    -0.067 C 
HETATM    3  C3  UNL     1      48.613  21.418  97.576  1.00  0.00     0.002 C 
HETATM    4  C4  UNL     1      47.751  21.097  96.641  1.00  0.00    -0.021 C 
HETATM    5  C5  UNL     1      46.325  20.948  96.961  1.00  0.00     0.017 C 
HETATM    6  C6  UNL     1      45.830  21.900  97.969  1.00  0.00    -0.002 C 
HETATM    7  C7  UNL     1      46.724  22.118  99.158  1.00  0.00     0.043 C 
HETATM    8  C8  UNL     1      44.440  21.593  98.466  1.00  0.00     0.011 C 
HETATM    9  C9  UNL     1      44.352  20.141  98.871  1.00  0.00    -0.003 C 
HETATM   10  C19 UNL     1      44.709  19.188  97.804  1.00  0.00    -0.010 C 
HETATM   11  C20 UNL     1      44.838  17.806  98.467  1.00  0.00     0.018 C 
HETATM   12  C21 UNL     1      43.850  19.029  96.631  1.00  0.00     0.127 C 
HETATM   13  C22 UNL     1      44.733  18.151  95.732  1.00  0.00     0.033 C 
HETATM   14  C23 UNL     1      46.103  18.690  95.970  1.00  0.00     0.009 C 
HETATM   15  C24 UNL     1      46.064  19.500  97.246  1.00  0.00     0.004 C 
ENDROOT
BRANCH   9  16
HETATM   16  C10 UNL     1      43.180  19.822  99.721  1.00  0.00     0.006 C 
BRANCH  16  17
HETATM   17  C11 UNL     1      43.237  20.161 101.162  1.00  0.00     0.005 C 
BRANCH  17  18
HETATM   18  C12 UNL     1      42.139  21.220 101.396  1.00  0.00    -0.014 C 
HETATM   19  C13 UNL     1      42.705  22.584 101.462  1.00  0.00     0.004 C 
HETATM   20  C14 UNL     1      41.925  23.682 100.838  1.00  0.00     0.000 C 
HETATM   21  C15 UNL     1      40.686  23.978 101.669  1.00  0.00     0.000 C 
HETATM   22  C16 UNL     1      39.837  22.748 101.776  1.00  0.00     0.000 C 
HETATM   23  C17 UNL     1      39.911  22.012 100.478  1.00  0.00     0.000 C 
HETATM   24  C18 UNL     1      40.975  20.995 100.505  1.00  0.00     0.004 C 
ENDBRANCH  17  18
ENDBRANCH  16  17
ENDBRANCH   9  16
BRANCH  12  25
HETATM   25  O1  UNL     1      43.557  20.149  95.901  1.00  0.00    -0.395 OA
ATOM     26  H1  UNL     1      42.772  20.135  95.366  1.00  0.00     0.210 HD
ENDBRANCH  12  25
TORSDOF 4
ENDMDL
MODEL 2
REMARK VINA RESULT: -9.232672538      1.791      3.826
REMARK  4 active torsions:
REMARK  status: ('A' for Active; 'I' for Inactive)
REMARK    1  A    between atoms: C9_9  and  C10_10 
REMARK    2  A    between atoms: C10_10  and  C11_11 
REMARK    3  A    between atoms: C11_11  and  C12_12 
REMARK    4  A    between atoms: C21_21  and  O1_22 
ROOT
HETATM    1  C1  UNL     1      44.038  17.902  96.694  1.00  0.00     0.019 C 
HETATM    2  C2  UNL     1      45.180  18.169  97.294  1.00  0.00    -0.067 C 
HETATM    3  C3  UNL     1      46.454  17.782  96.707  1.00  0.00     0.002 C 
HETATM    4  C4  UNL     1      47.500  18.531  96.970  1.00  0.00    -0.021 C 
HETATM    5  C5  UNL     1      47.370  19.715  97.829  1.00  0.00     0.017 C 
HETATM    6  C6  UNL     1      46.420  19.553  98.941  1.00  0.00    -0.002 C 
HETATM    7  C7  UNL     1      45.120  18.878  98.598  1.00  0.00     0.043 C 
HETATM    8  C8  UNL     1      46.113  20.837  99.671  1.00  0.00     0.011 C 
HETATM    9  C9  UNL     1      45.748  21.915  98.679  1.00  0.00    -0.003 C 
HETATM   10  C19 UNL     1      46.776  22.172  97.653  1.00  0.00    -0.010 C 
HETATM   11  C20 UNL     1      46.126  23.071  96.587  1.00  0.00     0.018 C 
HETATM   12  C21 UNL     1      48.053  22.784  98.018  1.00  0.00     0.127 C 
HETATM   13  C22 UNL     1      48.845  22.621  96.711  1.00  0.00     0.033 C 
HETATM   14  C23 UNL     1      48.421  21.278  96.221  1.00  0.00     0.009 C 
HETATM   15  C24 UNL     1      47.147  20.904  96.945  1.00  0.00     0.004 C 
ENDROOT
BRANCH   9  16
HETATM   16  C10 UNL     1      45.064  23.083  99.282  1.00  0.00     0.006 C 
BRANCH  16  17
HETATM   17  C11 UNL     1      44.610  22.990 100.689  1.00  0.00     0.005 C 
BRANCH  17  18
HETATM   18  C12 UNL     1      43.087  22.744 100.631  1.00  0.00    -0.014 C 
HETATM   19  C13 UNL     1      42.773  21.303 100.522  1.00  0.00     0.004 C 
HETATM   20  C14 UNL     1      41.596  20.799 101.273  1.00  0.00     0.000 C 
HETATM   21  C15 UNL     1      40.313  21.296 100.625  1.00  0.00     0.000 C 
HETATM   22  C16 UNL     1      40.299  22.795 100.605  1.00  0.00     0.000 C 
HETATM   23  C17 UNL     1      40.937  23.287 101.863  1.00  0.00     0.000 C 
HETATM   24  C18 UNL     1      42.376  23.531 101.667  1.00  0.00     0.004 C 
ENDBRANCH  17  18
ENDBRANCH  16  17
ENDBRANCH   9  16
BRANCH  12  25
HETATM   25  O1  UNL     1      48.796  22.173  98.991  1.00  0.00    -0.395 OA
ATOM     26  H1  UNL     1      48.703  22.490  99.882  1.00  0.00     0.210 HD
ENDBRANCH  12  25
TORSDOF 4
ENDMDL
MODEL 3
REMARK VINA RESULT: -9.045883150      0.607      1.235
REMARK  4 active torsions:
REMARK  status: ('A' for Active; 'I' for Inactive)
REMARK    1  A    between atoms: C9_9  and  C10_10 
REMARK    2  A    between atoms: C10_10  and  C11_11 
REMARK    3  A    between atoms: C11_11  and  C12_12 
REMARK    4  A    between atoms: C21_21  and  O1_22 
ROOT
HETATM    1  C1  UNL     1      48.996  20.991  99.793  1.00  0.00     0.019 C 
HETATM    2  C2  UNL     1      48.296  21.276  98.714  1.00  0.00    -0.067 C 
HETATM    3  C3  UNL     1      48.787  20.949  97.383  1.00  0.00     0.002 C 
HETATM    4  C4  UNL     1      47.898  20.689  96.453  1.00  0.00    -0.021 C 
HETATM    5  C5  UNL     1      46.463  20.730  96.761  1.00  0.00     0.017 C 
HETATM    6  C6  UNL     1      46.080  21.783  97.715  1.00  0.00    -0.002 C 
HETATM    7  C7  UNL     1      46.985  21.949  98.905  1.00  0.00     0.043 C 
HETATM    8  C8  UNL     1      44.659  21.670  98.209  1.00  0.00     0.011 C 
HETATM    9  C9  UNL     1      44.392  20.261  98.681  1.00  0.00    -0.003 C 
HETATM   10  C19 UNL     1      44.639  19.221  97.666  1.00  0.00    -0.010 C 
HETATM   11  C20 UNL     1      44.594  17.868  98.395  1.00  0.00     0.018 C 
HETATM   12  C21 UNL     1      43.775  19.111  96.490  1.00  0.00     0.127 C 
HETATM   13  C22 UNL     1      44.552  18.089  95.646  1.00  0.00     0.033 C 
HETATM   14  C23 UNL     1      45.975  18.469  95.875  1.00  0.00     0.009 C 
HETATM   15  C24 UNL     1      46.026  19.340  97.111  1.00  0.00     0.004 C 
ENDROOT
BRANCH   9  16
HETATM   16  C10 UNL     1      43.185  20.129  99.530  1.00  0.00     0.006 C 
BRANCH  16  17
HETATM   17  C11 UNL     1      43.210  20.706 100.894  1.00  0.00     0.005 C 
BRANCH  17  18
HETATM   18  C12 UNL     1      42.110  21.788 100.922  1.00  0.00    -0.014 C 
HETATM   19  C13 UNL     1      40.871  21.287 101.555  1.00  0.00     0.004 C 
HETATM   20  C14 UNL     1      40.114  22.226 102.420  1.00  0.00     0.000 C 
HETATM   21  C15 UNL     1      39.443  23.293 101.568  1.00  0.00     0.000 C 
HETATM   22  C16 UNL     1      40.476  24.044 100.784  1.00  0.00     0.000 C 
HETATM   23  C17 UNL     1      41.698  24.187 101.632  1.00  0.00     0.000 C 
HETATM   24  C18 UNL     1      42.647  23.090 101.386  1.00  0.00     0.004 C 
ENDBRANCH  17  18
ENDBRANCH  16  17
ENDBRANCH   9  16
BRANCH  12  25
HETATM   25  O1  UNL     1      43.626  20.220  95.704  1.00  0.00    -0.395 OA
ATOM     26  H1  UNL     1      43.056  20.152  94.947  1.00  0.00     0.210 HD
ENDBRANCH  12  25
TORSDOF 4
ENDMDL
MODEL 4
REMARK VINA RESULT: -8.939937417      1.071      1.267
REMARK  4 active torsions:
REMARK  status: ('A' for Active; 'I' for Inactive)
REMARK    1  A    between atoms: C9_9  and  C10_10 
REMARK    2  A    between atoms: C10_10  and  C11_11 
REMARK    3  A    between atoms: C11_11  and  C12_12 
REMARK    4  A    between atoms: C21_21  and  O1_22 
ROOT
HETATM    1  C1  UNL     1      47.945  22.604  98.990  1.00  0.00     0.019 C 
HETATM    2  C2  UNL     1      47.411  21.969  97.966  1.00  0.00    -0.067 C 
HETATM    3  C3  UNL     1      48.230  21.211  97.032  1.00  0.00     0.002 C 
HETATM    4  C4  UNL     1      47.683  20.172  96.446  1.00  0.00    -0.021 C 
HETATM    5  C5  UNL     1      46.291  19.801  96.734  1.00  0.00     0.017 C 
HETATM    6  C6  UNL     1      45.392  20.947  96.944  1.00  0.00    -0.002 C 
HETATM    7  C7  UNL     1      45.938  22.059  97.797  1.00  0.00     0.043 C 
HETATM    8  C8  UNL     1      44.032  20.564  97.471  1.00  0.00     0.011 C 
HETATM    9  C9  UNL     1      44.184  19.653  98.666  1.00  0.00    -0.003 C 
HETATM   10  C19 UNL     1      44.965  18.430  98.403  1.00  0.00    -0.010 C 
HETATM   11  C20 UNL     1      45.253  17.784  99.769  1.00  0.00     0.018 C 
HETATM   12  C21 UNL     1      44.436  17.383  97.530  1.00  0.00     0.127 C 
HETATM   13  C22 UNL     1      45.666  16.474  97.377  1.00  0.00     0.033 C 
HETATM   14  C23 UNL     1      46.796  17.442  97.296  1.00  0.00     0.009 C 
HETATM   15  C24 UNL     1      46.304  18.771  97.823  1.00  0.00     0.004 C 
ENDROOT
BRANCH   9  16
HETATM   16  C10 UNL     1      42.957  19.528  99.488  1.00  0.00     0.006 C 
BRANCH  16  17
HETATM   17  C11 UNL     1      43.063  19.729 100.952  1.00  0.00     0.005 C 
BRANCH  17  18
HETATM   18  C12 UNL     1      42.165  20.940 101.284  1.00  0.00    -0.014 C 
HETATM   19  C13 UNL     1      42.938  22.200 101.303  1.00  0.00     0.004 C 
HETATM   20  C14 UNL     1      42.285  23.414 100.752  1.00  0.00     0.000 C 
HETATM   21  C15 UNL     1      41.183  23.883 101.689  1.00  0.00     0.000 C 
HETATM   22  C16 UNL     1      40.166  22.796 101.867  1.00  0.00     0.000 C 
HETATM   23  C17 UNL     1      40.015  22.077 100.566  1.00  0.00     0.000 C 
HETATM   24  C18 UNL     1      40.909  20.910 100.497  1.00  0.00     0.004 C 
ENDBRANCH  17  18
ENDBRANCH  16  17
ENDBRANCH   9  16
BRANCH  12  25
HETATM   25  O1  UNL     1      44.066  17.740  96.261  1.00  0.00    -0.395 OA
ATOM     26  H1  UNL     1      44.167  17.092  95.573  1.00  0.00     0.210 HD
ENDBRANCH  12  25
TORSDOF 4
ENDMDL
MODEL 5
REMARK VINA RESULT: -8.594530584      1.734      3.647
REMARK  4 active torsions:
REMARK  status: ('A' for Active; 'I' for Inactive)
REMARK    1  A    between atoms: C9_9  and  C10_10 
REMARK    2  A    between atoms: C10_10  and  C11_11 
REMARK    3  A    between atoms: C11_11  and  C12_12 
REMARK    4  A    between atoms: C21_21  and  O1_22 
ROOT
HETATM    1  C1  UNL     1      44.086  17.612  96.465  1.00  0.00     0.019 C 
HETATM    2  C2  UNL     1      45.163  17.905  97.165  1.00  0.00    -0.067 C 
HETATM    3  C3  UNL     1      46.497  17.591  96.673  1.00  0.00     0.002 C 
HETATM    4  C4  UNL     1      47.483  18.372  97.045  1.00  0.00    -0.021 C 
HETATM    5  C5  UNL     1      47.233  19.520  97.927  1.00  0.00     0.017 C 
HETATM    6  C6  UNL     1      46.203  19.280  98.951  1.00  0.00    -0.002 C 
HETATM    7  C7  UNL     1      44.967  18.565  98.481  1.00  0.00     0.043 C 
HETATM    8  C8  UNL     1      45.782  20.524  99.693  1.00  0.00     0.011 C 
HETATM    9  C9  UNL     1      45.452  21.620  98.709  1.00  0.00    -0.003 C 
HETATM   10  C19 UNL     1      46.547  21.955  97.780  1.00  0.00    -0.010 C 
HETATM   11  C20 UNL     1      45.947  22.863  96.693  1.00  0.00     0.018 C 
HETATM   12  C21 UNL     1      47.763  22.606  98.268  1.00  0.00     0.127 C 
HETATM   13  C22 UNL     1      48.664  22.521  97.026  1.00  0.00     0.033 C 
HETATM   14  C23 UNL     1      48.341  21.180  96.462  1.00  0.00     0.009 C 
HETATM   15  C24 UNL     1      47.030  20.729  97.065  1.00  0.00     0.004 C 
ENDROOT
BRANCH   9  16
HETATM   16  C10 UNL     1      44.670  22.737  99.290  1.00  0.00     0.006 C 
BRANCH  16  17
HETATM   17  C11 UNL     1      44.607  22.866 100.764  1.00  0.00     0.005 C 
BRANCH  17  18
HETATM   18  C12 UNL     1      43.137  22.602 101.154  1.00  0.00    -0.014 C 
HETATM   19  C13 UNL     1      42.380  23.863 101.307  1.00  0.00     0.004 C 
HETATM   20  C14 UNL     1      40.976  23.883 100.828  1.00  0.00     0.000 C 
HETATM   21  C15 UNL     1      40.098  23.052 101.752  1.00  0.00     0.000 C 
HETATM   22  C16 UNL     1      40.600  21.640 101.799  1.00  0.00     0.000 C 
HETATM   23  C17 UNL     1      41.098  21.273 100.439  1.00  0.00     0.000 C 
HETATM   24  C18 UNL     1      42.541  21.534 100.314  1.00  0.00     0.004 C 
ENDBRANCH  17  18
ENDBRANCH  16  17
ENDBRANCH   9  16
BRANCH  12  25
HETATM   25  O1  UNL     1      48.450  21.992  99.280  1.00  0.00    -0.395 OA
ATOM     26  H1  UNL     1      49.187  22.458  99.659  1.00  0.00     0.210 HD
ENDBRANCH  12  25
TORSDOF 4
ENDMDL
