MODEL 1
REMARK VINA RESULT: -9.559792623      0.000      0.000
REMARK  4 active torsions:
REMARK  status: ('A' for Active; 'I' for Inactive)
REMARK    1  A    between atoms: C4_4  and  C5_5 
REMARK    2  A    between atoms: C14_14  and  C15_15 
REMARK    3  A    between atoms: C15_15  and  C17_17 
REMARK    4  A    between atoms: C24_24  and  O1_25 
ROOT
HETATM    1  C5  UNL     1      40.196  21.606 101.276  1.00  0.00     0.004 C 
HETATM    2  C6  UNL     1      41.343  21.133 100.841  1.00  0.00    -0.075 C 
HETATM    3  C7  UNL     1      41.529  19.667 100.760  1.00  0.00     0.034 C 
HETATM    4  C8  UNL     1      42.951  19.256 100.965  1.00  0.00     0.005 C 
HETATM    5  C9  UNL     1      43.970  20.102 100.293  1.00  0.00     0.006 C 
HETATM    6  C10 UNL     1      43.466  21.293  99.563  1.00  0.00    -0.002 C 
HETATM    7  C11 UNL     1      42.426  22.008 100.439  1.00  0.00     0.019 C 
HETATM    8  C12 UNL     1      43.292  22.505 101.560  1.00  0.00     0.010 C 
HETATM    9  C13 UNL     1      44.592  22.875 100.866  1.00  0.00     0.006 C 
HETATM   10  C14 UNL     1      44.468  22.406  99.443  1.00  0.00    -0.006 C 
ENDROOT
BRANCH   1  11
HETATM   11  C4  UNL     1      39.947  23.032 101.380  1.00  0.00     0.008 C 
HETATM   12  C3  UNL     1      39.175  23.570 102.303  1.00  0.00    -0.050 C 
HETATM   13  C2  UNL     1      38.932  25.002 102.399  1.00  0.00    -0.033 C 
HETATM   14  C20 UNL     1      38.526  22.646 103.290  1.00  0.00     0.043 C 
HETATM   15  C1  UNL     1      39.888  25.818 101.984  1.00  0.00     0.022 C 
HETATM   16  C24 UNL     1      37.669  25.569 102.938  1.00  0.00     0.151 C 
HETATM   17  C23 UNL     1      36.782  24.451 103.395  1.00  0.00     0.041 C 
HETATM   18  C21 UNL     1      37.519  23.370 104.145  1.00  0.00    -0.012 C 
HETATM   19  C22 UNL     1      38.195  23.854 105.385  1.00  0.00     0.010 C 
BRANCH  16  20
HETATM   20  O1  UNL     1      37.905  26.498 103.948  1.00  0.00    -0.391 OA
ATOM     21  H1  UNL     1      37.278  26.418 104.657  1.00  0.00     0.210 HD
ENDBRANCH  16  20
ENDBRANCH   1  11
BRANCH  10  22
HETATM   22  C15 UNL     1      45.778  21.998  98.853  1.00  0.00    -0.011 C 
HETATM   23  C16 UNL     1      46.722  23.177  98.963  1.00  0.00     0.011 C 
BRANCH  22  24
HETATM   24  C17 UNL     1      45.686  21.613  97.404  1.00  0.00    -0.019 C 
HETATM   25  C18 UNL     1      46.499  22.532  96.518  1.00  0.00     0.010 C 
HETATM   26  C19 UNL     1      46.304  20.224  97.274  1.00  0.00     0.010 C 
ENDBRANCH  22  24
ENDBRANCH  10  22
TORSDOF 4
ENDMDL
MODEL 2
REMARK VINA RESULT: -9.018381757      1.027      1.155
REMARK  4 active torsions:
REMARK  status: ('A' for Active; 'I' for Inactive)
REMARK    1  A    between atoms: C4_4  and  C5_5 
REMARK    2  A    between atoms: C14_14  and  C15_15 
REMARK    3  A    between atoms: C15_15  and  C17_17 
REMARK    4  A    between atoms: C24_24  and  O1_25 
ROOT
HETATM    1  C5  UNL     1      40.579  21.282 101.572  1.00  0.00     0.004 C 
HETATM    2  C6  UNL     1      41.489  20.635 100.877  1.00  0.00    -0.075 C 
HETATM    3  C7  UNL     1      41.412  19.159 100.796  1.00  0.00     0.034 C 
HETATM    4  C8  UNL     1      42.755  18.521 100.649  1.00  0.00     0.005 C 
HETATM    5  C9  UNL     1      43.692  19.198  99.718  1.00  0.00     0.006 C 
HETATM    6  C10 UNL     1      43.217  20.463  99.102  1.00  0.00    -0.002 C 
HETATM    7  C11 UNL     1      42.560  21.327 100.190  1.00  0.00     0.019 C 
HETATM    8  C12 UNL     1      43.749  21.665 101.041  1.00  0.00     0.010 C 
HETATM    9  C13 UNL     1      44.873  21.827 100.032  1.00  0.00     0.006 C 
HETATM   10  C14 UNL     1      44.320  21.400  98.701  1.00  0.00    -0.006 C 
ENDROOT
BRANCH   1  11
HETATM   11  C4  UNL     1      40.597  22.729 101.692  1.00  0.00     0.008 C 
HETATM   12  C3  UNL     1      39.706  23.412 102.384  1.00  0.00    -0.050 C 
HETATM   13  C2  UNL     1      39.731  24.863 102.498  1.00  0.00    -0.033 C 
HETATM   14  C20 UNL     1      38.624  22.638 103.076  1.00  0.00     0.043 C 
HETATM   15  C1  UNL     1      40.909  25.464 102.433  1.00  0.00     0.022 C 
HETATM   16  C24 UNL     1      38.503  25.677 102.681  1.00  0.00     0.151 C 
HETATM   17  C23 UNL     1      37.318  24.765 102.787  1.00  0.00     0.041 C 
HETATM   18  C21 UNL     1      37.571  23.553 103.647  1.00  0.00    -0.012 C 
HETATM   19  C22 UNL     1      37.927  23.882 105.058  1.00  0.00     0.010 C 
BRANCH  16  20
HETATM   20  O1  UNL     1      38.605  26.533 103.775  1.00  0.00    -0.391 OA
ATOM     21  H1  UNL     1      37.756  26.862 104.048  1.00  0.00     0.210 HD
ENDBRANCH  16  20
ENDBRANCH   1  11
BRANCH  10  22
HETATM   22  C15 UNL     1      45.355  20.792  97.813  1.00  0.00    -0.011 C 
HETATM   23  C16 UNL     1      46.387  21.859  97.507  1.00  0.00     0.011 C 
BRANCH  22  24
HETATM   24  C17 UNL     1      44.805  20.293  96.507  1.00  0.00    -0.019 C 
HETATM   25  C18 UNL     1      45.423  21.002  95.321  1.00  0.00     0.010 C 
HETATM   26  C19 UNL     1      45.200  18.825  96.391  1.00  0.00     0.010 C 
ENDBRANCH  22  24
ENDBRANCH  10  22
TORSDOF 4
ENDMDL
MODEL 3
REMARK VINA RESULT: -8.992012914      2.233      4.259
REMARK  4 active torsions:
REMARK  status: ('A' for Active; 'I' for Inactive)
REMARK    1  A    between atoms: C4_4  and  C5_5 
REMARK    2  A    between atoms: C14_14  and  C15_15 
REMARK    3  A    between atoms: C15_15  and  C17_17 
REMARK    4  A    between atoms: C24_24  and  O1_25 
ROOT
HETATM    1  C5  UNL     1      43.753  22.591 100.560  1.00  0.00     0.004 C 
HETATM    2  C6  UNL     1      44.663  21.879  99.933  1.00  0.00    -0.075 C 
HETATM    3  C7  UNL     1      46.050  22.389  99.865  1.00  0.00     0.034 C 
HETATM    4  C8  UNL     1      46.763  21.951  98.627  1.00  0.00     0.005 C 
HETATM    5  C9  UNL     1      46.544  20.539  98.222  1.00  0.00     0.006 C 
HETATM    6  C10 UNL     1      45.590  19.753  99.045  1.00  0.00    -0.002 C 
HETATM    7  C11 UNL     1      44.343  20.610  99.310  1.00  0.00     0.019 C 
HETATM    8  C12 UNL     1      43.765  20.707  97.929  1.00  0.00     0.010 C 
HETATM    9  C13 UNL     1      44.060  19.344  97.325  1.00  0.00     0.006 C 
HETATM   10  C14 UNL     1      44.936  18.620  98.308  1.00  0.00    -0.006 C 
ENDROOT
BRANCH   1  11
HETATM   11  C4  UNL     1      42.374  22.150 100.663  1.00  0.00     0.008 C 
HETATM   12  C3  UNL     1      41.428  22.852 101.254  1.00  0.00    -0.050 C 
HETATM   13  C2  UNL     1      40.048  22.400 101.354  1.00  0.00    -0.033 C 
HETATM   14  C20 UNL     1      41.813  24.175 101.846  1.00  0.00     0.043 C 
HETATM   15  C1  UNL     1      39.587  21.616 100.391  1.00  0.00     0.022 C 
HETATM   16  C24 UNL     1      39.154  22.782 102.477  1.00  0.00     0.151 C 
HETATM   17  C23 UNL     1      39.886  23.717 103.392  1.00  0.00     0.041 C 
HETATM   18  C21 UNL     1      40.690  24.763 102.661  1.00  0.00    -0.012 C 
HETATM   19  C22 UNL     1      39.868  25.649 101.785  1.00  0.00     0.010 C 
BRANCH  16  20
HETATM   20  O1  UNL     1      37.953  23.322 102.026  1.00  0.00    -0.391 OA
ATOM     21  H1  UNL     1      37.369  23.539 102.744  1.00  0.00     0.210 HD
ENDBRANCH  16  20
ENDBRANCH   1  11
BRANCH  10  22
HETATM   22  C15 UNL     1      45.890  17.680  97.647  1.00  0.00    -0.011 C 
HETATM   23  C16 UNL     1      45.607  17.701  96.160  1.00  0.00     0.011 C 
BRANCH  22  24
HETATM   24  C17 UNL     1      45.756  16.260  98.122  1.00  0.00    -0.019 C 
HETATM   25  C18 UNL     1      46.450  16.037  99.449  1.00  0.00     0.010 C 
HETATM   26  C19 UNL     1      44.271  16.009  98.359  1.00  0.00     0.010 C 
ENDBRANCH  22  24
ENDBRANCH  10  22
TORSDOF 4
ENDMDL
MODEL 4
REMARK VINA RESULT: -8.753193570      0.860      1.066
REMARK  4 active torsions:
REMARK  status: ('A' for Active; 'I' for Inactive)
REMARK    1  A    between atoms: C4_4  and  C5_5 
REMARK    2  A    between atoms: C14_14  and  C15_15 
REMARK    3  A    between atoms: C15_15  and  C17_17 
REMARK    4  A    between atoms: C24_24  and  O1_25 
ROOT
HETATM    1  C5  UNL     1      40.567  21.337 101.133  1.00  0.00     0.004 C 
HETATM    2  C6  UNL     1      41.616  20.726 100.627  1.00  0.00    -0.075 C 
HETATM    3  C7  UNL     1      41.603  19.250 100.521  1.00  0.00     0.034 C 
HETATM    4  C8  UNL     1      42.968  18.654 100.637  1.00  0.00     0.005 C 
HETATM    5  C9  UNL     1      44.050  19.371  99.916  1.00  0.00     0.006 C 
HETATM    6  C10 UNL     1      43.666  20.631  99.229  1.00  0.00    -0.002 C 
HETATM    7  C11 UNL     1      42.780  21.459 100.172  1.00  0.00     0.019 C 
HETATM    8  C12 UNL     1      43.766  21.820 101.245  1.00  0.00     0.010 C 
HETATM    9  C13 UNL     1      45.062  22.029 100.480  1.00  0.00     0.006 C 
HETATM   10  C14 UNL     1      44.796  21.605  99.062  1.00  0.00    -0.006 C 
ENDROOT
BRANCH   1  11
HETATM   11  C4  UNL     1      40.515  22.781 101.267  1.00  0.00     0.008 C 
HETATM   12  C3  UNL     1      39.690  23.406 102.083  1.00  0.00    -0.050 C 
HETATM   13  C2  UNL     1      39.644  24.856 102.209  1.00  0.00    -0.033 C 
HETATM   14  C20 UNL     1      38.763  22.566 102.910  1.00  0.00     0.043 C 
HETATM   15  C1  UNL     1      40.763  25.528 101.988  1.00  0.00     0.022 C 
HETATM   16  C24 UNL     1      38.407  25.594 102.571  1.00  0.00     0.151 C 
HETATM   17  C23 UNL     1      37.305  24.611 102.829  1.00  0.00     0.041 C 
HETATM   18  C21 UNL     1      37.747  23.413 103.632  1.00  0.00    -0.012 C 
HETATM   19  C22 UNL     1      38.277  23.759 104.984  1.00  0.00     0.010 C 
BRANCH  16  20
HETATM   20  O1  UNL     1      38.609  26.451 103.650  1.00  0.00    -0.391 OA
ATOM     21  H1  UNL     1      38.607  27.363 103.384  1.00  0.00     0.210 HD
ENDBRANCH  16  20
ENDBRANCH   1  11
BRANCH  10  22
HETATM   22  C15 UNL     1      46.006  21.041  98.392  1.00  0.00    -0.011 C 
HETATM   23  C16 UNL     1      47.177  21.197  99.341  1.00  0.00     0.011 C 
BRANCH  22  24
HETATM   24  C17 UNL     1      46.357  21.735  97.107  1.00  0.00    -0.019 C 
HETATM   25  C18 UNL     1      45.433  21.339  95.975  1.00  0.00     0.010 C 
HETATM   26  C19 UNL     1      46.147  23.228  97.338  1.00  0.00     0.010 C 
ENDBRANCH  22  24
ENDBRANCH  10  22
TORSDOF 4
ENDMDL
MODEL 5
REMARK VINA RESULT: -8.588088776      0.728      1.292
REMARK  4 active torsions:
REMARK  status: ('A' for Active; 'I' for Inactive)
REMARK    1  A    between atoms: C4_4  and  C5_5 
REMARK    2  A    between atoms: C14_14  and  C15_15 
REMARK    3  A    between atoms: C15_15  and  C17_17 
REMARK    4  A    between atoms: C24_24  and  O1_25 
ROOT
HETATM    1  C5  UNL     1      40.384  21.497 101.561  1.00  0.00     0.004 C 
HETATM    2  C6  UNL     1      41.407  20.952 100.941  1.00  0.00    -0.075 C 
HETATM    3  C7  UNL     1      41.482  19.478 100.840  1.00  0.00     0.034 C 
HETATM    4  C8  UNL     1      42.889  18.975 100.802  1.00  0.00     0.005 C 
HETATM    5  C9  UNL     1      43.830  19.756  99.960  1.00  0.00     0.006 C 
HETATM    6  C10 UNL     1      43.287  20.980  99.318  1.00  0.00    -0.002 C 
HETATM    7  C11 UNL     1      42.460  21.757 100.354  1.00  0.00     0.019 C 
HETATM    8  C12 UNL     1      43.534  22.193 101.307  1.00  0.00     0.010 C 
HETATM    9  C13 UNL     1      44.718  22.481 100.399  1.00  0.00     0.006 C 
HETATM   10  C14 UNL     1      44.323  22.025  99.022  1.00  0.00    -0.006 C 
ENDROOT
BRANCH   1  11
HETATM   11  C4  UNL     1      40.249  22.936 101.696  1.00  0.00     0.008 C 
HETATM   12  C3  UNL     1      39.364  23.513 102.484  1.00  0.00    -0.050 C 
HETATM   13  C2  UNL     1      39.237  24.957 102.612  1.00  0.00    -0.033 C 
HETATM   14  C20 UNL     1      38.456  22.621 103.277  1.00  0.00     0.043 C 
HETATM   15  C1  UNL     1      40.325  25.689 102.432  1.00  0.00     0.022 C 
HETATM   16  C24 UNL     1      37.950  25.626 102.933  1.00  0.00     0.151 C 
HETATM   17  C23 UNL     1      36.895  24.585 103.151  1.00  0.00     0.041 C 
HETATM   18  C21 UNL     1      37.372  23.409 103.966  1.00  0.00    -0.012 C 
HETATM   19  C22 UNL     1      37.836  23.777 105.336  1.00  0.00     0.010 C 
BRANCH  16  20
HETATM   20  O1  UNL     1      38.069  26.489 104.019  1.00  0.00    -0.391 OA
ATOM     21  H1  UNL     1      37.416  26.310 104.687  1.00  0.00     0.210 HD
ENDBRANCH  16  20
ENDBRANCH   1  11
BRANCH  10  22
HETATM   22  C15 UNL     1      45.484  21.536  98.220  1.00  0.00    -0.011 C 
HETATM   23  C16 UNL     1      45.016  20.349  97.403  1.00  0.00     0.011 C 
BRANCH  22  24
HETATM   24  C17 UNL     1      46.646  21.088  99.061  1.00  0.00    -0.019 C 
HETATM   25  C18 UNL     1      47.197  19.754  98.606  1.00  0.00     0.010 C 
HETATM   26  C19 UNL     1      47.759  22.111  98.862  1.00  0.00     0.010 C 
ENDBRANCH  22  24
ENDBRANCH  10  22
TORSDOF 4
ENDMDL
