MODEL 1
REMARK VINA RESULT: -9.440979691      0.000      0.000
REMARK  3 active torsions:
REMARK  status: ('A' for Active; 'I' for Inactive)
REMARK    1  A    between atoms: C1_2  and  C2_3 
REMARK       I    between atoms: C1_2  and  N1_20 
REMARK    2  A    between atoms: C5_6  and  C6_7 
REMARK    3  A    between atoms: C5_6  and  C12_13 
ROOT
HETATM    1  C2  UNL     1      42.857  21.657 100.321  1.00  0.00     0.078 C 
HETATM    2  C3  UNL     1      44.101  21.451 101.143  1.00  0.00     0.015 C 
HETATM    3  C4  UNL     1      45.367  21.603 100.422  1.00  0.00     0.011 C 
HETATM    4  C5  UNL     1      45.438  21.059  99.032  1.00  0.00    -0.033 C 
HETATM    5  C17 UNL     1      44.067  21.016  98.336  1.00  0.00     0.011 C 
HETATM    6  C18 UNL     1      42.950  20.607  99.227  1.00  0.00     0.015 C 
ENDROOT
BRANCH   4   7
HETATM    7  C6  UNL     1      46.264  21.940  98.174  1.00  0.00    -0.006 C 
HETATM    8  C7  UNL     1      46.044  21.639  96.702  1.00  0.00     0.005 C 
HETATM    9  C8  UNL     1      47.366  21.840  95.990  1.00  0.00     0.000 C 
HETATM   10  C9  UNL     1      47.940  23.132  96.561  1.00  0.00     0.000 C 
HETATM   11  C10 UNL     1      46.874  24.034  97.115  1.00  0.00     0.000 C 
HETATM   12  C11 UNL     1      46.143  23.403  98.310  1.00  0.00     0.005 C 
ENDBRANCH   4   7
BRANCH   4  13
HETATM   13  C12 UNL     1      45.827  19.613  99.095  1.00  0.00    -0.006 C 
HETATM   14  C13 UNL     1      47.157  19.218  98.615  1.00  0.00     0.005 C 
HETATM   15  C14 UNL     1      47.015  17.954  97.765  1.00  0.00     0.000 C 
HETATM   16  C15 UNL     1      45.601  17.505  97.903  1.00  0.00     0.000 C 
HETATM   17  C16 UNL     1      44.821  18.683  98.466  1.00  0.00     0.005 C 
ENDBRANCH   4  13
BRANCH   1  18
HETATM   18  C1  UNL     1      41.649  21.530 101.154  1.00  0.00     0.224 C 
HETATM   19  O1  UNL     1      41.147  20.359 101.240  1.00  0.00    -0.273 OA
HETATM   20  N1  UNL     1      41.015  22.582 101.851  1.00  0.00    -0.352 N 
HETATM   21  C19 UNL     1      39.812  22.280 102.614  1.00  0.00     0.125 C 
HETATM   22  C23 UNL     1      41.456  23.955 101.893  1.00  0.00     0.125 C 
HETATM   23  C20 UNL     1      39.288  23.554 103.214  1.00  0.00     0.020 C 
HETATM   24  C21 UNL     1      39.110  24.637 102.176  1.00  0.00     0.003 C 
HETATM   25  C22 UNL     1      40.324  24.796 101.291  1.00  0.00     0.020 C 
ENDBRANCH   1  18
TORSDOF 3
ENDMDL
MODEL 2
REMARK VINA RESULT: -9.081299631      0.808      1.353
REMARK  3 active torsions:
REMARK  status: ('A' for Active; 'I' for Inactive)
REMARK    1  A    between atoms: C1_2  and  C2_3 
REMARK       I    between atoms: C1_2  and  N1_20 
REMARK    2  A    between atoms: C5_6  and  C6_7 
REMARK    3  A    between atoms: C5_6  and  C12_13 
ROOT
HETATM    1  C2  UNL     1      42.997  21.416 100.226  1.00  0.00     0.078 C 
HETATM    2  C3  UNL     1      44.195  20.844 100.936  1.00  0.00     0.015 C 
HETATM    3  C4  UNL     1      45.450  20.877 100.183  1.00  0.00     0.011 C 
HETATM    4  C5  UNL     1      45.385  20.574  98.722  1.00  0.00    -0.033 C 
HETATM    5  C17 UNL     1      44.018  20.908  98.101  1.00  0.00     0.011 C 
HETATM    6  C18 UNL     1      42.863  20.570  98.972  1.00  0.00     0.015 C 
ENDROOT
BRANCH   4   7
HETATM    7  C6  UNL     1      46.349  21.418  97.977  1.00  0.00    -0.006 C 
HETATM    8  C7  UNL     1      46.307  22.858  98.458  1.00  0.00     0.005 C 
HETATM    9  C8  UNL     1      46.550  23.750  97.258  1.00  0.00     0.000 C 
HETATM   10  C9  UNL     1      47.696  23.097  96.494  1.00  0.00     0.000 C 
HETATM   11  C10 UNL     1      48.552  22.235  97.378  1.00  0.00     0.000 C 
HETATM   12  C11 UNL     1      47.775  21.041  97.954  1.00  0.00     0.005 C 
ENDBRANCH   4   7
BRANCH   4  13
HETATM   13  C12 UNL     1      45.489  19.093  98.526  1.00  0.00    -0.006 C 
HETATM   14  C13 UNL     1      45.305  18.543  97.177  1.00  0.00     0.005 C 
HETATM   15  C14 UNL     1      44.408  17.308  97.270  1.00  0.00     0.000 C 
HETATM   16  C15 UNL     1      44.214  17.030  98.721  1.00  0.00     0.000 C 
HETATM   17  C16 UNL     1      44.624  18.291  99.465  1.00  0.00     0.005 C 
ENDBRANCH   4  13
BRANCH   1  18
HETATM   18  C1  UNL     1      41.805  21.378 101.091  1.00  0.00     0.224 C 
HETATM   19  O1  UNL     1      41.265  20.231 101.250  1.00  0.00    -0.273 OA
HETATM   20  N1  UNL     1      41.224  22.487 101.743  1.00  0.00    -0.352 N 
HETATM   21  C19 UNL     1      40.029  22.270 102.547  1.00  0.00     0.125 C 
HETATM   22  C23 UNL     1      41.713  23.844 101.701  1.00  0.00     0.125 C 
HETATM   23  C20 UNL     1      39.564  23.592 103.088  1.00  0.00     0.020 C 
HETATM   24  C21 UNL     1      39.400  24.623 101.996  1.00  0.00     0.003 C 
HETATM   25  C22 UNL     1      40.597  24.692 101.078  1.00  0.00     0.020 C 
ENDBRANCH   1  18
TORSDOF 3
ENDMDL
MODEL 3
REMARK VINA RESULT: -8.900462254      1.421      2.313
REMARK  3 active torsions:
REMARK  status: ('A' for Active; 'I' for Inactive)
REMARK    1  A    between atoms: C1_2  and  C2_3 
REMARK       I    between atoms: C1_2  and  N1_20 
REMARK    2  A    between atoms: C5_6  and  C6_7 
REMARK    3  A    between atoms: C5_6  and  C12_13 
ROOT
HETATM    1  C2  UNL     1      42.927  20.867 100.520  1.00  0.00     0.078 C 
HETATM    2  C3  UNL     1      43.322  19.416 100.466  1.00  0.00     0.015 C 
HETATM    3  C4  UNL     1      44.575  19.128  99.764  1.00  0.00     0.011 C 
HETATM    4  C5  UNL     1      44.860  19.902  98.518  1.00  0.00    -0.033 C 
HETATM    5  C17 UNL     1      44.178  21.280  98.499  1.00  0.00     0.011 C 
HETATM    6  C18 UNL     1      42.802  21.278  99.063  1.00  0.00     0.015 C 
ENDROOT
BRANCH   4   7
HETATM    7  C6  UNL     1      46.308  20.202  98.417  1.00  0.00    -0.006 C 
HETATM    8  C7  UNL     1      46.739  21.203  99.475  1.00  0.00     0.005 C 
HETATM    9  C8  UNL     1      47.813  22.080  98.867  1.00  0.00     0.000 C 
HETATM   10  C9  UNL     1      48.734  21.127  98.112  1.00  0.00     0.000 C 
HETATM   11  C10 UNL     1      48.674  19.727  98.654  1.00  0.00     0.000 C 
HETATM   12  C11 UNL     1      47.283  19.097  98.485  1.00  0.00     0.005 C 
ENDBRANCH   4   7
BRANCH   4  13
HETATM   13  C12 UNL     1      44.230  19.200  97.354  1.00  0.00    -0.006 C 
HETATM   14  C13 UNL     1      44.314  17.736  97.281  1.00  0.00     0.005 C 
HETATM   15  C14 UNL     1      44.675  17.337  95.850  1.00  0.00     0.000 C 
HETATM   16  C15 UNL     1      44.624  18.583  95.034  1.00  0.00     0.000 C 
HETATM   17  C16 UNL     1      44.648  19.747  96.013  1.00  0.00     0.005 C 
ENDBRANCH   4  13
BRANCH   1  18
HETATM   18  C1  UNL     1      41.684  21.046 101.288  1.00  0.00     0.224 C 
HETATM   19  O1  UNL     1      40.978  19.996 101.464  1.00  0.00    -0.273 OA
HETATM   20  N1  UNL     1      41.218  22.262 101.834  1.00  0.00    -0.352 N 
HETATM   21  C19 UNL     1      39.952  22.260 102.551  1.00  0.00     0.125 C 
HETATM   22  C23 UNL     1      41.895  23.535 101.760  1.00  0.00     0.125 C 
HETATM   23  C20 UNL     1      39.639  23.665 102.983  1.00  0.00     0.020 C 
HETATM   24  C21 UNL     1      39.699  24.638 101.830  1.00  0.00     0.003 C 
HETATM   25  C22 UNL     1      40.956  24.486 101.007  1.00  0.00     0.020 C 
ENDBRANCH   1  18
TORSDOF 3
ENDMDL
MODEL 4
REMARK VINA RESULT: -8.831501811      1.636      3.865
REMARK  3 active torsions:
REMARK  status: ('A' for Active; 'I' for Inactive)
REMARK    1  A    between atoms: C1_2  and  C2_3 
REMARK       I    between atoms: C1_2  and  N1_20 
REMARK    2  A    between atoms: C5_6  and  C6_7 
REMARK    3  A    between atoms: C5_6  and  C12_13 
ROOT
HETATM    1  C2  UNL     1      43.662  21.801 100.634  1.00  0.00     0.078 C 
HETATM    2  C3  UNL     1      42.639  21.143  99.747  1.00  0.00     0.015 C 
HETATM    3  C4  UNL     1      43.070  19.904  99.097  1.00  0.00     0.011 C 
HETATM    4  C5  UNL     1      44.473  19.846  98.585  1.00  0.00    -0.033 C 
HETATM    5  C17 UNL     1      45.428  20.776  99.351  1.00  0.00     0.011 C 
HETATM    6  C18 UNL     1      44.833  22.089  99.710  1.00  0.00     0.015 C 
ENDROOT
BRANCH   4   7
HETATM    7  C6  UNL     1      45.038  18.490  98.779  1.00  0.00    -0.006 C 
HETATM    8  C7  UNL     1      44.196  17.437  98.079  1.00  0.00     0.005 C 
HETATM    9  C8  UNL     1      44.226  16.185  98.931  1.00  0.00     0.000 C 
HETATM   10  C9  UNL     1      45.680  16.024  99.361  1.00  0.00     0.000 C 
HETATM   11  C10 UNL     1      46.632  16.700  98.416  1.00  0.00     0.000 C 
HETATM   12  C11 UNL     1      46.432  18.223  98.379  1.00  0.00     0.005 C 
ENDBRANCH   4   7
BRANCH   4  13
HETATM   13  C12 UNL     1      44.507  20.403  97.194  1.00  0.00    -0.006 C 
HETATM   14  C13 UNL     1      44.115  19.537  96.076  1.00  0.00     0.005 C 
HETATM   15  C14 UNL     1      45.121  19.720  94.938  1.00  0.00     0.000 C 
HETATM   16  C15 UNL     1      46.011  20.847  95.335  1.00  0.00     0.000 C 
HETATM   17  C16 UNL     1      45.818  21.051  96.830  1.00  0.00     0.005 C 
ENDBRANCH   4  13
BRANCH   1  18
HETATM   18  C1  UNL     1      43.107  23.007 101.272  1.00  0.00     0.224 C 
HETATM   19  O1  UNL     1      43.959  23.849 101.715  1.00  0.00    -0.273 OA
HETATM   20  N1  UNL     1      41.735  23.298 101.431  1.00  0.00    -0.352 N 
HETATM   21  C19 UNL     1      41.362  24.532 102.107  1.00  0.00     0.125 C 
HETATM   22  C23 UNL     1      40.638  22.481 100.969  1.00  0.00     0.125 C 
HETATM   23  C20 UNL     1      39.864  24.595 102.209  1.00  0.00     0.020 C 
HETATM   24  C21 UNL     1      39.287  23.346 102.832  1.00  0.00     0.003 C 
HETATM   25  C22 UNL     1      39.836  22.082 102.213  1.00  0.00     0.020 C 
ENDBRANCH   1  18
TORSDOF 3
ENDMDL
MODEL 5
REMARK VINA RESULT: -8.758869305      1.816      3.213
REMARK  3 active torsions:
REMARK  status: ('A' for Active; 'I' for Inactive)
REMARK    1  A    between atoms: C1_2  and  C2_3 
REMARK       I    between atoms: C1_2  and  N1_20 
REMARK    2  A    between atoms: C5_6  and  C6_7 
REMARK    3  A    between atoms: C5_6  and  C12_13 
ROOT
HETATM    1  C2  UNL     1      43.502  22.399 100.217  1.00  0.00     0.078 C 
HETATM    2  C3  UNL     1      44.556  23.034  99.349  1.00  0.00     0.015 C 
HETATM    3  C4  UNL     1      45.136  22.166  98.323  1.00  0.00     0.011 C 
HETATM    4  C5  UNL     1      45.405  20.743  98.694  1.00  0.00    -0.033 C 
HETATM    5  C17 UNL     1      44.479  20.231  99.810  1.00  0.00     0.011 C 
HETATM    6  C18 UNL     1      44.213  21.230 100.878  1.00  0.00     0.015 C 
ENDROOT
BRANCH   4   7
HETATM    7  C6  UNL     1      45.132  19.849  97.544  1.00  0.00    -0.006 C 
HETATM    8  C7  UNL     1      44.095  18.797  97.898  1.00  0.00     0.005 C 
HETATM    9  C8  UNL     1      44.464  17.525  97.165  1.00  0.00     0.000 C 
HETATM   10  C9  UNL     1      44.843  17.966  95.755  1.00  0.00     0.000 C 
HETATM   11  C10 UNL     1      44.209  19.274  95.377  1.00  0.00     0.000 C 
HETATM   12  C11 UNL     1      44.694  20.432  96.262  1.00  0.00     0.005 C 
ENDBRANCH   4   7
BRANCH   4  13
HETATM   13  C12 UNL     1      46.764  20.651  99.317  1.00  0.00    -0.006 C 
HETATM   14  C13 UNL     1      47.578  21.868  99.421  1.00  0.00     0.005 C 
HETATM   15  C14 UNL     1      49.012  21.535  99.004  1.00  0.00     0.000 C 
HETATM   16  C15 UNL     1      49.071  20.057  98.827  1.00  0.00     0.000 C 
HETATM   17  C16 UNL     1      47.633  19.570  98.726  1.00  0.00     0.005 C 
ENDBRANCH   4  13
BRANCH   1  18
HETATM   18  C1  UNL     1      42.955  23.372 101.177  1.00  0.00     0.224 C 
HETATM   19  O1  UNL     1      43.811  24.031 101.858  1.00  0.00    -0.273 OA
HETATM   20  N1  UNL     1      41.584  23.627 101.401  1.00  0.00    -0.352 N 
HETATM   21  C19 UNL     1      41.219  24.614 102.408  1.00  0.00     0.125 C 
HETATM   22  C23 UNL     1      40.483  23.002 100.708  1.00  0.00     0.125 C 
HETATM   23  C20 UNL     1      39.721  24.669 102.509  1.00  0.00     0.020 C 
HETATM   24  C21 UNL     1      39.117  23.303 102.730  1.00  0.00     0.003 C 
HETATM   25  C22 UNL     1      39.657  22.268 101.771  1.00  0.00     0.020 C 
ENDBRANCH   1  18
TORSDOF 3
ENDMDL
