MODEL 1
REMARK VINA RESULT: -7.375518225      0.000      0.000
REMARK  10 active torsions:
REMARK  status: ('A' for Active; 'I' for Inactive)
REMARK    1  A    between atoms: C2_2  and  C3_3 
REMARK    2  A    between atoms: C3_3  and  C4_4 
REMARK    3  A    between atoms: C3_3  and  C6_6 
REMARK    4  A    between atoms: C9_11  and  S1_12 
REMARK    5  A    between atoms: S1_12  and  C10_13 
REMARK    6  A    between atoms: C10_13  and  C11_14 
REMARK    7  A    between atoms: C11_14  and  N3_17 
REMARK    8  A    between atoms: N3_17  and  C13_19 
REMARK    9  A    between atoms: C14_22  and  C15_23 
REMARK   10  A    between atoms: C17_27  and  N6_28 
ROOT
HETATM    1  C11 UNL     1      25.748  29.186  19.637  1.00  0.00     0.200 C 
HETATM    2  C12 UNL     1      25.577  27.772  19.776  1.00  0.00     0.085 C 
HETATM    3  N2  UNL     1      25.406  26.647  19.916  1.00  0.00    -0.195 NA
ENDROOT
BRANCH   1   4
HETATM    4  C10 UNL     1      26.920  29.702  18.899  1.00  0.00     0.122 C 
BRANCH   4   5
HETATM    5  S1  UNL     1      27.892  30.881  19.776  1.00  0.00    -0.091 SA
BRANCH   5   6
HETATM    6  C9  UNL     1      29.477  31.290  19.127  1.00  0.00     0.144 A 
HETATM    7  N1  UNL     1      29.695  32.211  18.200  1.00  0.00    -0.347 N 
HETATM    8  C8  UNL     1      30.886  32.547  17.687  1.00  0.00     0.092 A 
ATOM      9  H1  UNL     1      28.881  32.711  17.844  1.00  0.00     0.167 HD
HETATM   10  C7  UNL     1      31.989  31.865  18.174  1.00  0.00     0.042 A 
HETATM   11  C6  UNL     1      31.804  30.893  19.146  1.00  0.00     0.016 A 
HETATM   12  N9  UNL     1      30.584  30.624  19.599  1.00  0.00    -0.340 N 
ATOM     13  H9  UNL     1      30.466  29.905  20.314  1.00  0.00     0.167 HD
BRANCH  11  14
HETATM   14  C3  UNL     1      33.017  30.175  19.651  1.00  0.00     0.035 C 
BRANCH  14  15
HETATM   15  C2  UNL     1      32.894  29.798  21.091  1.00  0.00     0.006 C 
HETATM   16  C1  UNL     1      33.719  28.611  21.479  1.00  0.00     0.006 C 
ENDBRANCH  14  15
BRANCH  14  17
HETATM   17  C4  UNL     1      34.156  31.197  19.543  1.00  0.00     0.006 C 
HETATM   18  C5  UNL     1      35.334  30.540  18.854  1.00  0.00     0.006 C 
ENDBRANCH  14  17
ENDBRANCH  11  14
ENDBRANCH   5   6
ENDBRANCH   4   5
ENDBRANCH   1   4
BRANCH   1  19
HETATM   19  N3  UNL     1      25.674  29.795  20.985  1.00  0.00    -0.351 N 
ATOM     20  H3  UNL     1      26.431  29.717  21.665  1.00  0.00     0.163 HD
BRANCH  19  21
HETATM   21  C13 UNL     1      24.562  30.443  21.238  1.00  0.00     0.163 A 
HETATM   22  N4  UNL     1      23.458  29.935  21.765  1.00  0.00    -0.320 N 
HETATM   23  C14 UNL     1      22.432  30.705  21.955  1.00  0.00     0.142 A 
ATOM     24  H4  UNL     1      23.416  28.949  22.019  1.00  0.00     0.169 HD
HETATM   25  N8  UNL     1      22.540  31.991  21.606  1.00  0.00    -0.308 N 
HETATM   26  S2  UNL     1      24.114  32.074  21.008  1.00  0.00     0.024 SA
ATOM     27  H8  UNL     1      21.845  32.733  21.682  1.00  0.00     0.176 HD
BRANCH  23  28
HETATM   28  C15 UNL     1      21.168  30.189  22.541  1.00  0.00     0.092 A 
HETATM   29  C16 UNL     1      20.862  28.847  22.548  1.00  0.00     0.123 A 
HETATM   30  N5  UNL     1      19.703  28.397  23.085  1.00  0.00    -0.349 N 
HETATM   31  C17 UNL     1      18.813  29.238  23.629  1.00  0.00     0.114 A 
ATOM     32  H5  UNL     1      19.503  27.396  23.076  1.00  0.00     0.167 HD
HETATM   33  C18 UNL     1      19.110  30.582  23.626  1.00  0.00     0.136 A 
HETATM   34  N7  UNL     1      20.264  31.013  23.090  1.00  0.00    -0.358 N 
ATOM     35  H7  UNL     1      20.460  32.014  23.101  1.00  0.00     0.165 HD
BRANCH  31  36
HETATM   36  N6  UNL     1      17.704  28.787  24.139  1.00  0.00    -0.384 N 
ATOM     37  H62 UNL     1      17.635  28.529  25.124  1.00  0.00     0.157 HD
ATOM     38  H61 UNL     1      16.873  28.680  23.557  1.00  0.00     0.157 HD
ENDBRANCH  31  36
ENDBRANCH  23  28
ENDBRANCH  19  21
ENDBRANCH   1  19
TORSDOF 10
ENDMDL
MODEL 2
REMARK VINA RESULT: -7.374833290      1.258      1.468
REMARK  10 active torsions:
REMARK  status: ('A' for Active; 'I' for Inactive)
REMARK    1  A    between atoms: C2_2  and  C3_3 
REMARK    2  A    between atoms: C3_3  and  C4_4 
REMARK    3  A    between atoms: C3_3  and  C6_6 
REMARK    4  A    between atoms: C9_11  and  S1_12 
REMARK    5  A    between atoms: S1_12  and  C10_13 
REMARK    6  A    between atoms: C10_13  and  C11_14 
REMARK    7  A    between atoms: C11_14  and  N3_17 
REMARK    8  A    between atoms: N3_17  and  C13_19 
REMARK    9  A    between atoms: C14_22  and  C15_23 
REMARK   10  A    between atoms: C17_27  and  N6_28 
ROOT
HETATM    1  C11 UNL     1      24.969  29.012  20.872  1.00  0.00     0.200 C 
HETATM    2  C12 UNL     1      24.969  27.807  21.644  1.00  0.00     0.085 C 
HETATM    3  N2  UNL     1      24.933  26.859  22.287  1.00  0.00    -0.195 NA
ENDROOT
BRANCH   1   4
HETATM    4  C10 UNL     1      26.089  29.273  19.943  1.00  0.00     0.122 C 
BRANCH   4   5
HETATM    5  S1  UNL     1      27.112  30.641  20.375  1.00  0.00    -0.091 SA
BRANCH   5   6
HETATM    6  C9  UNL     1      28.464  31.026  19.315  1.00  0.00     0.144 A 
HETATM    7  N1  UNL     1      28.359  31.687  18.172  1.00  0.00    -0.347 N 
HETATM    8  C8  UNL     1      29.366  31.998  17.344  1.00  0.00     0.092 A 
ATOM      9  H1  UNL     1      27.424  31.987  17.895  1.00  0.00     0.167 HD
HETATM   10  C7  UNL     1      30.633  31.588  17.725  1.00  0.00     0.042 A 
HETATM   11  C6  UNL     1      30.787  30.894  18.916  1.00  0.00     0.016 A 
HETATM   12  N9  UNL     1      29.731  30.628  19.677  1.00  0.00    -0.340 N 
ATOM     13  H9  UNL     1      29.862  30.116  20.549  1.00  0.00     0.167 HD
BRANCH  11  14
HETATM   14  C3  UNL     1      32.170  30.466  19.297  1.00  0.00     0.035 C 
BRANCH  14  15
HETATM   15  C2  UNL     1      32.320  30.282  20.772  1.00  0.00     0.006 C 
HETATM   16  C1  UNL     1      33.291  29.208  21.153  1.00  0.00     0.006 C 
ENDBRANCH  14  15
BRANCH  14  17
HETATM   17  C4  UNL     1      33.074  31.636  18.889  1.00  0.00     0.006 C 
HETATM   18  C5  UNL     1      34.292  31.084  18.178  1.00  0.00     0.006 C 
ENDBRANCH  14  17
ENDBRANCH  11  14
ENDBRANCH   5   6
ENDBRANCH   4   5
ENDBRANCH   1   4
BRANCH   1  19
HETATM   19  N3  UNL     1      24.786  30.155  21.797  1.00  0.00    -0.351 N 
ATOM     20  H3  UNL     1      25.536  30.504  22.393  1.00  0.00     0.163 HD
BRANCH  19  21
HETATM   21  C13 UNL     1      23.586  30.683  21.790  1.00  0.00     0.163 A 
HETATM   22  N4  UNL     1      22.478  30.123  22.252  1.00  0.00    -0.320 N 
HETATM   23  C14 UNL     1      21.357  30.771  22.174  1.00  0.00     0.142 A 
ATOM     24  H4  UNL     1      22.505  29.190  22.665  1.00  0.00     0.169 HD
HETATM   25  N8  UNL     1      21.376  31.990  21.626  1.00  0.00    -0.308 N 
HETATM   26  S2  UNL     1      23.002  32.185  21.228  1.00  0.00     0.024 SA
ATOM     27  H8  UNL     1      20.602  32.638  21.483  1.00  0.00     0.176 HD
BRANCH  23  28
HETATM   28  C15 UNL     1      20.084  30.192  22.675  1.00  0.00     0.092 A 
HETATM   29  C16 UNL     1      19.731  30.247  24.004  1.00  0.00     0.123 A 
HETATM   30  N5  UNL     1      18.567  29.710  24.441  1.00  0.00    -0.349 N 
HETATM   31  C17 UNL     1      17.718  29.106  23.599  1.00  0.00     0.114 A 
ATOM     32  H5  UNL     1      18.332  29.767  25.433  1.00  0.00     0.167 HD
HETATM   33  C18 UNL     1      18.063  29.045  22.269  1.00  0.00     0.136 A 
HETATM   34  N7  UNL     1      19.220  29.583  21.850  1.00  0.00    -0.358 N 
ATOM     35  H7  UNL     1      19.453  29.524  20.859  1.00  0.00     0.165 HD
BRANCH  31  36
HETATM   36  N6  UNL     1      16.605  28.595  24.039  1.00  0.00    -0.384 N 
ATOM     37  H62 UNL     1      15.740  29.137  24.063  1.00  0.00     0.157 HD
ATOM     38  H61 UNL     1      16.574  27.631  24.371  1.00  0.00     0.157 HD
ENDBRANCH  31  36
ENDBRANCH  23  28
ENDBRANCH  19  21
ENDBRANCH   1  19
TORSDOF 10
ENDMDL
MODEL 3
REMARK VINA RESULT: -7.367075120      3.210      4.703
REMARK  10 active torsions:
REMARK  status: ('A' for Active; 'I' for Inactive)
REMARK    1  A    between atoms: C2_2  and  C3_3 
REMARK    2  A    between atoms: C3_3  and  C4_4 
REMARK    3  A    between atoms: C3_3  and  C6_6 
REMARK    4  A    between atoms: C9_11  and  S1_12 
REMARK    5  A    between atoms: S1_12  and  C10_13 
REMARK    6  A    between atoms: C10_13  and  C11_14 
REMARK    7  A    between atoms: C11_14  and  N3_17 
REMARK    8  A    between atoms: N3_17  and  C13_19 
REMARK    9  A    between atoms: C14_22  and  C15_23 
REMARK   10  A    between atoms: C17_27  and  N6_28 
ROOT
HETATM    1  C11 UNL     1      24.780  29.466  20.836  1.00  0.00     0.200 C 
HETATM    2  C12 UNL     1      24.481  28.256  21.540  1.00  0.00     0.085 C 
HETATM    3  N2  UNL     1      24.209  27.310  22.126  1.00  0.00    -0.195 NA
ENDROOT
BRANCH   1   4
HETATM    4  C10 UNL     1      25.989  29.527  19.989  1.00  0.00     0.122 C 
BRANCH   4   5
HETATM    5  S1  UNL     1      27.219  30.670  20.528  1.00  0.00    -0.091 SA
BRANCH   5   6
HETATM    6  C9  UNL     1      28.545  31.034  19.428  1.00  0.00     0.144 A 
HETATM    7  N1  UNL     1      28.414  31.680  18.280  1.00  0.00    -0.347 N 
HETATM    8  C8  UNL     1      29.400  31.975  17.423  1.00  0.00     0.092 A 
ATOM      9  H1  UNL     1      27.474  31.982  18.024  1.00  0.00     0.167 HD
HETATM   10  C7  UNL     1      30.675  31.562  17.776  1.00  0.00     0.042 A 
HETATM   11  C6  UNL     1      30.856  30.883  18.971  1.00  0.00     0.016 A 
HETATM   12  N9  UNL     1      29.818  30.633  19.763  1.00  0.00    -0.340 N 
ATOM     13  H9  UNL     1      29.969  30.132  20.638  1.00  0.00     0.167 HD
BRANCH  11  14
HETATM   14  C3  UNL     1      32.246  30.452  19.322  1.00  0.00     0.035 C 
BRANCH  14  15
HETATM   15  C2  UNL     1      32.413  30.216  20.788  1.00  0.00     0.006 C 
HETATM   16  C1  UNL     1      33.370  29.114  21.120  1.00  0.00     0.006 C 
ENDBRANCH  14  15
BRANCH  14  17
HETATM   17  C4  UNL     1      33.137  31.643  18.947  1.00  0.00     0.006 C 
HETATM   18  C5  UNL     1      34.304  31.136  18.125  1.00  0.00     0.006 C 
ENDBRANCH  14  17
ENDBRANCH  11  14
ENDBRANCH   5   6
ENDBRANCH   4   5
ENDBRANCH   1   4
BRANCH   1  19
HETATM   19  N3  UNL     1      24.771  30.582  21.810  1.00  0.00    -0.351 N 
ATOM     20  H3  UNL     1      25.394  30.611  22.617  1.00  0.00     0.163 HD
BRANCH  19  21
HETATM   21  C13 UNL     1      23.901  31.530  21.555  1.00  0.00     0.163 A 
HETATM   22  N4  UNL     1      24.099  32.594  20.791  1.00  0.00    -0.320 N 
HETATM   23  C14 UNL     1      23.138  33.451  20.634  1.00  0.00     0.142 A 
ATOM     24  H4  UNL     1      24.997  32.738  20.331  1.00  0.00     0.169 HD
HETATM   25  N8  UNL     1      21.980  33.215  21.257  1.00  0.00    -0.308 N 
HETATM   26  S2  UNL     1      22.289  31.766  22.062  1.00  0.00     0.024 SA
ATOM     27  H8  UNL     1      21.125  33.770  21.249  1.00  0.00     0.176 HD
BRANCH  23  28
HETATM   28  C15 UNL     1      23.304  34.662  19.789  1.00  0.00     0.092 A 
HETATM   29  C16 UNL     1      23.192  34.615  18.419  1.00  0.00     0.123 A 
HETATM   30  N5  UNL     1      23.350  35.731  17.666  1.00  0.00    -0.349 N 
HETATM   31  C17 UNL     1      23.620  36.918  18.226  1.00  0.00     0.114 A 
ATOM     32  H5  UNL     1      23.261  35.665  16.651  1.00  0.00     0.167 HD
HETATM   33  C18 UNL     1      23.735  36.973  19.596  1.00  0.00     0.136 A 
HETATM   34  N7  UNL     1      23.575  35.859  20.329  1.00  0.00    -0.358 N 
ATOM     35  H7  UNL     1      23.665  35.927  21.342  1.00  0.00     0.165 HD
BRANCH  31  36
HETATM   36  N6  UNL     1      23.770  37.977  17.486  1.00  0.00    -0.384 N 
ATOM     37  H62 UNL     1      23.574  37.962  16.485  1.00  0.00     0.157 HD
ATOM     38  H61 UNL     1      24.088  38.855  17.897  1.00  0.00     0.157 HD
ENDBRANCH  31  36
ENDBRANCH  23  28
ENDBRANCH  19  21
ENDBRANCH   1  19
TORSDOF 10
ENDMDL
MODEL 4
REMARK VINA RESULT: -7.312668661      2.513      3.220
REMARK  10 active torsions:
REMARK  status: ('A' for Active; 'I' for Inactive)
REMARK    1  A    between atoms: C2_2  and  C3_3 
REMARK    2  A    between atoms: C3_3  and  C4_4 
REMARK    3  A    between atoms: C3_3  and  C6_6 
REMARK    4  A    between atoms: C9_11  and  S1_12 
REMARK    5  A    between atoms: S1_12  and  C10_13 
REMARK    6  A    between atoms: C10_13  and  C11_14 
REMARK    7  A    between atoms: C11_14  and  N3_17 
REMARK    8  A    between atoms: N3_17  and  C13_19 
REMARK    9  A    between atoms: C14_22  and  C15_23 
REMARK   10  A    between atoms: C17_27  and  N6_28 
ROOT
HETATM    1  C11 UNL     1      24.914  28.825  20.959  1.00  0.00     0.200 C 
HETATM    2  C12 UNL     1      24.983  27.613  21.716  1.00  0.00     0.085 C 
HETATM    3  N2  UNL     1      25.005  26.657  22.348  1.00  0.00    -0.195 NA
ENDROOT
BRANCH   1   4
HETATM    4  C10 UNL     1      25.981  29.128  19.983  1.00  0.00     0.122 C 
BRANCH   4   5
HETATM    5  S1  UNL     1      26.933  30.567  20.344  1.00  0.00    -0.091 SA
BRANCH   5   6
HETATM    6  C9  UNL     1      28.274  30.959  19.273  1.00  0.00     0.144 A 
HETATM    7  N1  UNL     1      28.153  31.592  18.116  1.00  0.00    -0.347 N 
HETATM    8  C8  UNL     1      29.151  31.907  17.280  1.00  0.00     0.092 A 
ATOM      9  H1  UNL     1      27.211  31.866  17.836  1.00  0.00     0.167 HD
HETATM   10  C7  UNL     1      30.428  31.532  17.666  1.00  0.00     0.042 A 
HETATM   11  C6  UNL     1      30.599  30.868  18.872  1.00  0.00     0.016 A 
HETATM   12  N9  UNL     1      29.550  30.596  19.640  1.00  0.00    -0.340 N 
ATOM     13  H9  UNL     1      29.694  30.106  20.524  1.00  0.00     0.167 HD
BRANCH  11  14
HETATM   14  C3  UNL     1      31.991  30.478  19.258  1.00  0.00     0.035 C 
BRANCH  14  15
HETATM   15  C2  UNL     1      32.128  30.249  20.728  1.00  0.00     0.006 C 
HETATM   16  C1  UNL     1      33.249  29.327  21.097  1.00  0.00     0.006 C 
ENDBRANCH  14  15
BRANCH  14  17
HETATM   17  C4  UNL     1      32.857  31.694  18.904  1.00  0.00     0.006 C 
HETATM   18  C5  UNL     1      34.020  31.231  18.052  1.00  0.00     0.006 C 
ENDBRANCH  14  17
ENDBRANCH  11  14
ENDBRANCH   5   6
ENDBRANCH   4   5
ENDBRANCH   1   4
BRANCH   1  19
HETATM   19  N3  UNL     1      24.739  29.952  21.904  1.00  0.00    -0.351 N 
ATOM     20  H3  UNL     1      25.519  30.364  22.417  1.00  0.00     0.163 HD
BRANCH  19  21
HETATM   21  C13 UNL     1      23.506  30.379  22.031  1.00  0.00     0.163 A 
HETATM   22  N4  UNL     1      23.128  31.611  22.337  1.00  0.00    -0.320 N 
HETATM   23  C14 UNL     1      21.863  31.884  22.429  1.00  0.00     0.142 A 
ATOM     24  H4  UNL     1      23.824  32.339  22.497  1.00  0.00     0.169 HD
HETATM   25  N8  UNL     1      20.991  30.896  22.208  1.00  0.00    -0.308 N 
HETATM   26  S2  UNL     1      22.001  29.588  21.872  1.00  0.00     0.024 SA
ATOM     27  H8  UNL     1      19.972  30.925  22.235  1.00  0.00     0.176 HD
BRANCH  23  28
HETATM   28  C15 UNL     1      21.382  33.248  22.769  1.00  0.00     0.092 A 
HETATM   29  C16 UNL     1      21.019  33.594  24.050  1.00  0.00     0.123 A 
HETATM   30  N5  UNL     1      20.580  34.843  24.339  1.00  0.00    -0.349 N 
HETATM   31  C17 UNL     1      20.484  35.786  23.391  1.00  0.00     0.114 A 
ATOM     32  H5  UNL     1      20.318  35.071  25.299  1.00  0.00     0.167 HD
HETATM   33  C18 UNL     1      20.844  35.447  22.107  1.00  0.00     0.136 A 
HETATM   34  N7  UNL     1      21.278  34.206  21.836  1.00  0.00    -0.358 N 
ATOM     35  H7  UNL     1      21.539  33.981  20.876  1.00  0.00     0.165 HD
BRANCH  31  36
HETATM   36  N6  UNL     1      20.059  36.979  23.689  1.00  0.00    -0.384 N 
ATOM     37  H62 UNL     1      20.671  37.673  24.118  1.00  0.00     0.157 HD
ATOM     38  H61 UNL     1      19.094  37.247  23.495  1.00  0.00     0.157 HD
ENDBRANCH  31  36
ENDBRANCH  23  28
ENDBRANCH  19  21
ENDBRANCH   1  19
TORSDOF 10
ENDMDL
MODEL 5
REMARK VINA RESULT: -7.224048923      1.049      1.095
REMARK  10 active torsions:
REMARK  status: ('A' for Active; 'I' for Inactive)
REMARK    1  A    between atoms: C2_2  and  C3_3 
REMARK    2  A    between atoms: C3_3  and  C4_4 
REMARK    3  A    between atoms: C3_3  and  C6_6 
REMARK    4  A    between atoms: C9_11  and  S1_12 
REMARK    5  A    between atoms: S1_12  and  C10_13 
REMARK    6  A    between atoms: C10_13  and  C11_14 
REMARK    7  A    between atoms: C11_14  and  N3_17 
REMARK    8  A    between atoms: N3_17  and  C13_19 
REMARK    9  A    between atoms: C14_22  and  C15_23 
REMARK   10  A    between atoms: C17_27  and  N6_28 
ROOT
HETATM    1  C11 UNL     1      25.855  29.741  18.793  1.00  0.00     0.200 C 
HETATM    2  C12 UNL     1      24.955  29.068  17.907  1.00  0.00     0.085 C 
HETATM    3  N2  UNL     1      24.203  28.528  17.232  1.00  0.00    -0.195 NA
ENDROOT
BRANCH   1   4
HETATM    4  C10 UNL     1      27.267  29.913  18.392  1.00  0.00     0.122 C 
BRANCH   4   5
HETATM    5  S1  UNL     1      28.272  30.774  19.557  1.00  0.00    -0.091 SA
BRANCH   5   6
HETATM    6  C9  UNL     1      29.904  31.218  19.068  1.00  0.00     0.144 A 
HETATM    7  N1  UNL     1      30.196  32.194  18.221  1.00  0.00    -0.347 N 
HETATM    8  C8  UNL     1      31.424  32.559  17.831  1.00  0.00     0.092 A 
ATOM      9  H1  UNL     1      29.413  32.716  17.829  1.00  0.00     0.167 HD
HETATM   10  C7  UNL     1      32.485  31.845  18.365  1.00  0.00     0.042 A 
HETATM   11  C6  UNL     1      32.222  30.816  19.257  1.00  0.00     0.016 A 
HETATM   12  N9  UNL     1      30.970  30.522  19.589  1.00  0.00    -0.340 N 
ATOM     13  H9  UNL     1      30.795  29.761  20.247  1.00  0.00     0.167 HD
BRANCH  11  14
HETATM   14  C3  UNL     1      33.391  30.066  19.816  1.00  0.00     0.035 C 
BRANCH  14  15
HETATM   15  C2  UNL     1      33.137  29.572  21.203  1.00  0.00     0.006 C 
HETATM   16  C1  UNL     1      33.942  28.365  21.574  1.00  0.00     0.006 C 
ENDBRANCH  14  15
BRANCH  14  17
HETATM   17  C4  UNL     1      34.522  31.099  19.901  1.00  0.00     0.006 C 
HETATM   18  C5  UNL     1      35.739  30.547  19.189  1.00  0.00     0.006 C 
ENDBRANCH  14  17
ENDBRANCH  11  14
ENDBRANCH   5   6
ENDBRANCH   4   5
ENDBRANCH   1   4
BRANCH   1  19
HETATM   19  N3  UNL     1      25.768  29.094  20.122  1.00  0.00    -0.351 N 
ATOM     20  H3  UNL     1      26.246  28.219  20.339  1.00  0.00     0.163 HD
BRANCH  19  21
HETATM   21  C13 UNL     1      25.029  29.731  20.999  1.00  0.00     0.163 A 
HETATM   22  N4  UNL     1      23.808  29.399  21.387  1.00  0.00    -0.320 N 
HETATM   23  C14 UNL     1      23.199  30.132  22.267  1.00  0.00     0.142 A 
ATOM     24  H4  UNL     1      23.350  28.575  20.999  1.00  0.00     0.169 HD
HETATM   25  N8  UNL     1      23.843  31.200  22.746  1.00  0.00    -0.308 N 
HETATM   26  S2  UNL     1      25.313  31.137  21.924  1.00  0.00     0.024 SA
ATOM     27  H8  UNL     1      23.526  31.882  23.435  1.00  0.00     0.176 HD
BRANCH  23  28
HETATM   28  C15 UNL     1      21.828  29.807  22.739  1.00  0.00     0.092 A 
HETATM   29  C16 UNL     1      21.364  28.513  22.794  1.00  0.00     0.123 A 
HETATM   30  N5  UNL     1      20.109  28.238  23.225  1.00  0.00    -0.349 N 
HETATM   31  C17 UNL     1      19.274  29.213  23.611  1.00  0.00     0.114 A 
ATOM     32  H5  UNL     1      19.793  27.268  23.256  1.00  0.00     0.167 HD
HETATM   33  C18 UNL     1      19.730  30.510  23.557  1.00  0.00     0.136 A 
HETATM   34  N7  UNL     1      20.976  30.767  23.129  1.00  0.00    -0.358 N 
ATOM     35  H7  UNL     1      21.290  31.737  23.099  1.00  0.00     0.165 HD
BRANCH  31  36
HETATM   36  N6  UNL     1      18.072  28.928  24.020  1.00  0.00    -0.384 N 
ATOM     37  H62 UNL     1      17.763  29.151  24.966  1.00  0.00     0.157 HD
ATOM     38  H61 UNL     1      17.407  28.473  23.394  1.00  0.00     0.157 HD
ENDBRANCH  31  36
ENDBRANCH  23  28
ENDBRANCH  19  21
ENDBRANCH   1  19
TORSDOF 10
ENDMDL
