MODEL 1
REMARK VINA RESULT: -7.023603973      0.000      0.000
REMARK  9 active torsions:
REMARK  status: ('A' for Active; 'I' for Inactive)
REMARK    1  A    between atoms: O1_2  and  C2_3 
REMARK    2  A    between atoms: C2_3  and  C3_4 
REMARK    3  A    between atoms: C8_9  and  C9_10 
REMARK    4  A    between atoms: C9_10  and  S1_11 
REMARK    5  A    between atoms: S1_11  and  C10_12 
REMARK    6  A    between atoms: C10_12  and  C11_13 
REMARK    7  A    between atoms: N3_18  and  C12_19 
REMARK    8  A    between atoms: C13_25  and  N6_26 
REMARK    9  A    between atoms: C14_29  and  C15_30 
ROOT
HETATM    1  C11 UNL     1      35.076  31.114  17.052  1.00  0.00     0.065 A 
HETATM    2  N1  UNL     1      36.221  30.598  17.450  1.00  0.00    -0.287 N 
ATOM      3  H1  UNL     1      37.075  30.565  16.893  1.00  0.00     0.188 HD
HETATM    4  N2  UNL     1      36.098  30.140  18.657  1.00  0.00    -0.234 N 
ATOM      5  H2  UNL     1      36.840  29.693  19.196  1.00  0.00     0.209 HD
HETATM    6  N3  UNL     1      34.849  30.344  19.085  1.00  0.00    -0.218 N 
HETATM    7  C14 UNL     1      34.176  30.954  18.106  1.00  0.00     0.087 A 
ENDROOT
BRANCH   1   8
HETATM    8  C10 UNL     1      34.794  31.731  15.759  1.00  0.00     0.135 C 
BRANCH   8   9
HETATM    9  S1  UNL     1      33.937  30.880  14.514  1.00  0.00    -0.163 SA
BRANCH   9  10
HETATM   10  C9  UNL     1      34.764  29.899  13.281  1.00  0.00     0.079 C 
BRANCH  10  11
HETATM   11  C8  UNL     1      34.501  28.416  13.533  1.00  0.00     0.001 C 
HETATM   12  C3  UNL     1      35.652  27.604  13.933  1.00  0.00     0.014 C 
HETATM   13  C4  UNL     1      35.162  26.273  14.506  1.00  0.00     0.007 C 
HETATM   14  C5  UNL     1      33.804  25.876  13.978  1.00  0.00     0.000 C 
HETATM   15  C6  UNL     1      32.738  26.899  14.274  1.00  0.00     0.000 C 
HETATM   16  C7  UNL     1      33.332  28.274  14.499  1.00  0.00     0.006 C 
BRANCH  12  17
HETATM   17  C2  UNL     1      36.574  28.201  14.927  1.00  0.00     0.172 C 
BRANCH  17  18
HETATM   18  O1  UNL     1      37.890  28.034  14.579  1.00  0.00    -0.396 OA
HETATM   19  C1  UNL     1      38.259  28.782  13.496  1.00  0.00     0.201 C 
ENDBRANCH  17  18
ENDBRANCH  12  17
ENDBRANCH  10  11
ENDBRANCH   9  10
ENDBRANCH   8   9
ENDBRANCH   1   8
BRANCH   7  20
HETATM   20  C15 UNL     1      32.773  31.367  18.011  1.00  0.00    -0.049 C 
HETATM   21  C16 UNL     1      31.890  30.226  17.569  1.00  0.00     0.036 C 
HETATM   22  C17 UNL     1      30.598  30.728  17.028  1.00  0.00     0.004 C 
HETATM   23  C18 UNL     1      30.007  31.629  18.129  1.00  0.00     0.001 C 
HETATM   24  C19 UNL     1      30.879  32.866  18.195  1.00  0.00     0.004 C 
HETATM   25  C20 UNL     1      32.194  32.379  18.886  1.00  0.00     0.036 C 
ENDBRANCH   7  20
BRANCH   6  26
HETATM   26  C12 UNL     1      34.388  29.923  20.393  1.00  0.00     0.196 A 
HETATM   27  N4  UNL     1      33.139  29.690  20.841  1.00  0.00    -0.220 N 
HETATM   28  O2  UNL     1      33.180  29.331  22.106  1.00  0.00    -0.153 OA
ATOM     29  H4  UNL     1      32.289  29.778  20.283  1.00  0.00     0.198 HD
HETATM   30  N5  UNL     1      34.393  29.319  22.521  1.00  0.00    -0.222 N 
HETATM   31  C13 UNL     1      35.196  29.680  21.480  1.00  0.00     0.169 A 
ATOM     32  H5  UNL     1      34.702  29.082  23.463  1.00  0.00     0.198 HD
BRANCH  31  33
HETATM   33  N6  UNL     1      36.466  29.742  21.609  1.00  0.00    -0.381 N 
ATOM     34  H62 UNL     1      37.070  29.981  20.822  1.00  0.00     0.157 HD
ATOM     35  H61 UNL     1      37.063  29.590  22.422  1.00  0.00     0.157 HD
ENDBRANCH  31  33
ENDBRANCH   6  26
TORSDOF 9
ENDMDL
MODEL 2
REMARK VINA RESULT: -7.021825083      4.184      6.799
REMARK  9 active torsions:
REMARK  status: ('A' for Active; 'I' for Inactive)
REMARK    1  A    between atoms: O1_2  and  C2_3 
REMARK    2  A    between atoms: C2_3  and  C3_4 
REMARK    3  A    between atoms: C8_9  and  C9_10 
REMARK    4  A    between atoms: C9_10  and  S1_11 
REMARK    5  A    between atoms: S1_11  and  C10_12 
REMARK    6  A    between atoms: C10_12  and  C11_13 
REMARK    7  A    between atoms: N3_18  and  C12_19 
REMARK    8  A    between atoms: C13_25  and  N6_26 
REMARK    9  A    between atoms: C14_29  and  C15_30 
ROOT
HETATM    1  C11 UNL     1      33.724  31.892  15.469  1.00  0.00     0.065 A 
HETATM    2  N1  UNL     1      34.506  32.610  14.689  1.00  0.00    -0.287 N 
ATOM      3  H1  UNL     1      35.496  32.428  14.523  1.00  0.00     0.188 HD
HETATM    4  N2  UNL     1      33.826  33.583  14.165  1.00  0.00    -0.234 N 
ATOM      5  H2  UNL     1      34.198  34.282  13.522  1.00  0.00     0.209 HD
HETATM    6  N3  UNL     1      32.563  33.527  14.598  1.00  0.00    -0.218 N 
HETATM    7  C14 UNL     1      32.459  32.478  15.419  1.00  0.00     0.087 A 
ENDROOT
BRANCH   1   8
HETATM    8  C10 UNL     1      34.101  30.713  16.243  1.00  0.00     0.135 C 
BRANCH   8   9
HETATM    9  S1  UNL     1      35.662  30.576  16.988  1.00  0.00    -0.163 SA
BRANCH   9  10
HETATM   10  C9  UNL     1      35.884  30.574  18.753  1.00  0.00     0.079 C 
BRANCH  10  11
HETATM   11  C8  UNL     1      34.565  30.229  19.443  1.00  0.00     0.001 C 
HETATM   12  C3  UNL     1      34.659  29.515  20.718  1.00  0.00     0.014 C 
HETATM   13  C4  UNL     1      33.315  29.589  21.444  1.00  0.00     0.007 C 
HETATM   14  C5  UNL     1      32.153  29.783  20.499  1.00  0.00     0.000 C 
HETATM   15  C6  UNL     1      32.273  31.036  19.671  1.00  0.00     0.000 C 
HETATM   16  C7  UNL     1      33.714  31.487  19.549  1.00  0.00     0.006 C 
BRANCH  12  17
HETATM   17  C2  UNL     1      35.700  29.979  21.665  1.00  0.00     0.172 C 
BRANCH  17  18
HETATM   18  O1  UNL     1      36.547  28.967  22.041  1.00  0.00    -0.396 OA
HETATM   19  C1  UNL     1      35.939  28.018  22.816  1.00  0.00     0.201 C 
ENDBRANCH  17  18
ENDBRANCH  12  17
ENDBRANCH  10  11
ENDBRANCH   9  10
ENDBRANCH   8   9
ENDBRANCH   1   8
BRANCH   7  20
HETATM   20  C15 UNL     1      31.329  31.978  16.207  1.00  0.00    -0.049 C 
HETATM   21  C16 UNL     1      30.650  33.091  16.968  1.00  0.00     0.036 C 
HETATM   22  C17 UNL     1      29.841  32.554  18.095  1.00  0.00     0.004 C 
HETATM   23  C18 UNL     1      28.895  31.512  17.468  1.00  0.00     0.001 C 
HETATM   24  C19 UNL     1      29.755  30.339  17.046  1.00  0.00     0.004 C 
HETATM   25  C20 UNL     1      30.513  30.849  15.778  1.00  0.00     0.036 C 
ENDBRANCH   7  20
BRANCH   6  26
HETATM   26  C12 UNL     1      31.556  34.493  14.209  1.00  0.00     0.196 A 
HETATM   27  N4  UNL     1      31.412  35.787  14.555  1.00  0.00    -0.220 N 
HETATM   28  O2  UNL     1      30.344  36.287  13.973  1.00  0.00    -0.153 OA
ATOM     29  H4  UNL     1      32.038  36.301  15.176  1.00  0.00     0.198 HD
HETATM   30  N5  UNL     1      29.770  35.389  13.262  1.00  0.00    -0.222 N 
HETATM   31  C13 UNL     1      30.494  34.240  13.371  1.00  0.00     0.169 A 
ATOM     32  H5  UNL     1      28.920  35.513  12.711  1.00  0.00     0.198 HD
BRANCH  31  33
HETATM   33  N6  UNL     1      30.152  33.175  12.752  1.00  0.00    -0.381 N 
ATOM     34  H62 UNL     1      29.949  32.310  13.253  1.00  0.00     0.157 HD
ATOM     35  H61 UNL     1      30.024  32.994  11.756  1.00  0.00     0.157 HD
ENDBRANCH  31  33
ENDBRANCH   6  26
TORSDOF 9
ENDMDL
MODEL 3
REMARK VINA RESULT: -6.980968056      2.174      3.006
REMARK  9 active torsions:
REMARK  status: ('A' for Active; 'I' for Inactive)
REMARK    1  A    between atoms: O1_2  and  C2_3 
REMARK    2  A    between atoms: C2_3  and  C3_4 
REMARK    3  A    between atoms: C8_9  and  C9_10 
REMARK    4  A    between atoms: C9_10  and  S1_11 
REMARK    5  A    between atoms: S1_11  and  C10_12 
REMARK    6  A    between atoms: C10_12  and  C11_13 
REMARK    7  A    between atoms: N3_18  and  C12_19 
REMARK    8  A    between atoms: C13_25  and  N6_26 
REMARK    9  A    between atoms: C14_29  and  C15_30 
ROOT
HETATM    1  C11 UNL     1      35.090  31.088  17.023  1.00  0.00     0.065 A 
HETATM    2  N1  UNL     1      36.231  30.564  17.424  1.00  0.00    -0.287 N 
ATOM      3  H1  UNL     1      37.085  30.519  16.867  1.00  0.00     0.188 HD
HETATM    4  N2  UNL     1      36.103  30.112  18.633  1.00  0.00    -0.234 N 
ATOM      5  H2  UNL     1      36.840  29.660  19.174  1.00  0.00     0.209 HD
HETATM    6  N3  UNL     1      34.856  30.331  19.060  1.00  0.00    -0.218 N 
HETATM    7  C14 UNL     1      34.189  30.943  18.077  1.00  0.00     0.087 A 
ENDROOT
BRANCH   1   8
HETATM    8  C10 UNL     1      34.815  31.702  15.727  1.00  0.00     0.135 C 
BRANCH   8   9
HETATM    9  S1  UNL     1      34.950  30.804  14.250  1.00  0.00    -0.163 SA
BRANCH   9  10
HETATM   10  C9  UNL     1      35.841  31.413  12.836  1.00  0.00     0.079 C 
BRANCH  10  11
HETATM   11  C8  UNL     1      37.155  30.649  12.679  1.00  0.00     0.001 C 
HETATM   12  C3  UNL     1      38.303  31.412  12.185  1.00  0.00     0.014 C 
HETATM   13  C4  UNL     1      39.588  30.625  12.449  1.00  0.00     0.007 C 
HETATM   14  C5  UNL     1      39.351  29.137  12.540  1.00  0.00     0.000 C 
HETATM   15  C6  UNL     1      38.379  28.763  13.629  1.00  0.00     0.000 C 
HETATM   16  C7  UNL     1      37.464  29.918  13.979  1.00  0.00     0.006 C 
BRANCH  12  17
HETATM   17  C2  UNL     1      38.490  32.769  12.748  1.00  0.00     0.172 C 
BRANCH  17  18
HETATM   18  O1  UNL     1      39.100  32.742  13.976  1.00  0.00    -0.396 OA
HETATM   19  C1  UNL     1      38.484  33.541  14.899  1.00  0.00     0.201 C 
ENDBRANCH  17  18
ENDBRANCH  12  17
ENDBRANCH  10  11
ENDBRANCH   9  10
ENDBRANCH   8   9
ENDBRANCH   1   8
BRANCH   7  20
HETATM   20  C15 UNL     1      32.791  31.369  17.980  1.00  0.00    -0.049 C 
HETATM   21  C16 UNL     1      31.906  30.254  17.476  1.00  0.00     0.036 C 
HETATM   22  C17 UNL     1      30.626  30.788  16.939  1.00  0.00     0.004 C 
HETATM   23  C18 UNL     1      30.025  31.645  18.070  1.00  0.00     0.001 C 
HETATM   24  C19 UNL     1      30.903  32.871  18.201  1.00  0.00     0.004 C 
HETATM   25  C20 UNL     1      32.204  32.346  18.890  1.00  0.00     0.036 C 
ENDBRANCH   7  20
BRANCH   6  26
HETATM   26  C12 UNL     1      34.390  29.920  20.369  1.00  0.00     0.196 A 
HETATM   27  N4  UNL     1      33.141  29.678  20.812  1.00  0.00    -0.220 N 
HETATM   28  O2  UNL     1      33.177  29.336  22.081  1.00  0.00    -0.153 OA
ATOM     29  H4  UNL     1      32.294  29.749  20.247  1.00  0.00     0.198 HD
HETATM   30  N5  UNL     1      34.387  29.343  22.504  1.00  0.00    -0.222 N 
HETATM   31  C13 UNL     1      35.194  29.700  21.465  1.00  0.00     0.169 A 
ATOM     32  H5  UNL     1      34.692  29.121  23.452  1.00  0.00     0.198 HD
BRANCH  31  33
HETATM   33  N6  UNL     1      36.462  29.779  21.602  1.00  0.00    -0.381 N 
ATOM     34  H62 UNL     1      37.010  28.993  21.954  1.00  0.00     0.157 HD
ATOM     35  H61 UNL     1      37.108  30.545  21.409  1.00  0.00     0.157 HD
ENDBRANCH  31  33
ENDBRANCH   6  26
TORSDOF 9
ENDMDL
MODEL 4
REMARK VINA RESULT: -6.869485988      4.005      6.358
REMARK  9 active torsions:
REMARK  status: ('A' for Active; 'I' for Inactive)
REMARK    1  A    between atoms: O1_2  and  C2_3 
REMARK    2  A    between atoms: C2_3  and  C3_4 
REMARK    3  A    between atoms: C8_9  and  C9_10 
REMARK    4  A    between atoms: C9_10  and  S1_11 
REMARK    5  A    between atoms: S1_11  and  C10_12 
REMARK    6  A    between atoms: C10_12  and  C11_13 
REMARK    7  A    between atoms: N3_18  and  C12_19 
REMARK    8  A    between atoms: C13_25  and  N6_26 
REMARK    9  A    between atoms: C14_29  and  C15_30 
ROOT
HETATM    1  C11 UNL     1      31.827  30.492  15.564  1.00  0.00     0.065 A 
HETATM    2  N1  UNL     1      31.479  29.302  16.008  1.00  0.00    -0.287 N 
ATOM      3  H1  UNL     1      32.094  28.489  16.055  1.00  0.00     0.188 HD
HETATM    4  N2  UNL     1      30.235  29.320  16.376  1.00  0.00    -0.234 N 
ATOM      5  H2  UNL     1      29.723  28.525  16.758  1.00  0.00     0.209 HD
HETATM    6  N3  UNL     1      29.730  30.540  16.176  1.00  0.00    -0.218 N 
HETATM    7  C14 UNL     1      30.699  31.306  15.667  1.00  0.00     0.087 A 
ENDROOT
BRANCH   1   8
HETATM    8  C10 UNL     1      33.138  30.890  15.056  1.00  0.00     0.135 C 
BRANCH   8   9
HETATM    9  S1  UNL     1      34.296  31.697  16.064  1.00  0.00    -0.163 SA
BRANCH   9  10
HETATM   10  C9  UNL     1      34.987  30.944  17.520  1.00  0.00     0.079 C 
BRANCH  10  11
HETATM   11  C8  UNL     1      33.876  30.623  18.518  1.00  0.00     0.001 C 
HETATM   12  C3  UNL     1      34.281  29.969  19.764  1.00  0.00     0.014 C 
HETATM   13  C4  UNL     1      33.146  30.068  20.784  1.00  0.00     0.007 C 
HETATM   14  C5  UNL     1      31.791  30.210  20.134  1.00  0.00     0.000 C 
HETATM   15  C6  UNL     1      31.690  31.425  19.248  1.00  0.00     0.000 C 
HETATM   16  C7  UNL     1      33.053  31.879  18.768  1.00  0.00     0.006 C 
BRANCH  12  17
HETATM   17  C2  UNL     1      35.509  30.482  20.415  1.00  0.00     0.172 C 
BRANCH  17  18
HETATM   18  O1  UNL     1      35.462  30.358  21.780  1.00  0.00    -0.396 OA
HETATM   19  C1  UNL     1      36.364  29.454  22.269  1.00  0.00     0.201 C 
ENDBRANCH  17  18
ENDBRANCH  12  17
ENDBRANCH  10  11
ENDBRANCH   9  10
ENDBRANCH   8   9
ENDBRANCH   1   8
BRANCH   7  20
HETATM   20  C15 UNL     1      30.692  32.700  15.217  1.00  0.00    -0.049 C 
HETATM   21  C16 UNL     1      30.962  33.651  16.358  1.00  0.00     0.036 C 
HETATM   22  C17 UNL     1      30.503  35.027  16.028  1.00  0.00     0.004 C 
HETATM   23  C18 UNL     1      31.187  35.386  14.695  1.00  0.00     0.001 C 
HETATM   24  C19 UNL     1      30.545  34.523  13.629  1.00  0.00     0.004 C 
HETATM   25  C20 UNL     1      31.127  33.095  13.883  1.00  0.00     0.036 C 
ENDBRANCH   7  20
BRANCH   6  26
HETATM   26  C12 UNL     1      28.351  30.877  16.469  1.00  0.00     0.196 A 
HETATM   27  N4  UNL     1      27.400  31.413  15.679  1.00  0.00    -0.220 N 
HETATM   28  O2  UNL     1      26.285  31.559  16.362  1.00  0.00    -0.153 OA
ATOM     29  H4  UNL     1      27.526  31.668  14.699  1.00  0.00     0.198 HD
HETATM   30  N5  UNL     1      26.450  31.151  17.565  1.00  0.00    -0.222 N 
HETATM   31  C13 UNL     1      27.733  30.707  17.687  1.00  0.00     0.169 A 
ATOM     32  H5  UNL     1      25.745  31.158  18.302  1.00  0.00     0.198 HD
BRANCH  31  33
HETATM   33  N6  UNL     1      28.172  30.230  18.788  1.00  0.00    -0.381 N 
ATOM     34  H62 UNL     1      27.616  29.582  19.348  1.00  0.00     0.157 HD
ATOM     35  H61 UNL     1      29.058  30.376  19.273  1.00  0.00     0.157 HD
ENDBRANCH  31  33
ENDBRANCH   6  26
TORSDOF 9
ENDMDL
MODEL 5
REMARK VINA RESULT: -6.848413777      2.730      4.524
REMARK  9 active torsions:
REMARK  status: ('A' for Active; 'I' for Inactive)
REMARK    1  A    between atoms: O1_2  and  C2_3 
REMARK    2  A    between atoms: C2_3  and  C3_4 
REMARK    3  A    between atoms: C8_9  and  C9_10 
REMARK    4  A    between atoms: C9_10  and  S1_11 
REMARK    5  A    between atoms: S1_11  and  C10_12 
REMARK    6  A    between atoms: C10_12  and  C11_13 
REMARK    7  A    between atoms: N3_18  and  C12_19 
REMARK    8  A    between atoms: C13_25  and  N6_26 
REMARK    9  A    between atoms: C14_29  and  C15_30 
ROOT
HETATM    1  C11 UNL     1      34.866  31.157  16.929  1.00  0.00     0.065 A 
HETATM    2  N1  UNL     1      36.037  30.662  17.273  1.00  0.00    -0.287 N 
ATOM      3  H1  UNL     1      36.864  30.640  16.675  1.00  0.00     0.188 HD
HETATM    4  N2  UNL     1      35.981  30.209  18.487  1.00  0.00    -0.234 N 
ATOM      5  H2  UNL     1      36.755  29.777  18.991  1.00  0.00     0.209 HD
HETATM    6  N3  UNL     1      34.751  30.395  18.974  1.00  0.00    -0.218 N 
HETATM    7  C14 UNL     1      34.021  30.988  18.026  1.00  0.00     0.087 A 
ENDROOT
BRANCH   1   8
HETATM    8  C10 UNL     1      34.511  31.762  15.648  1.00  0.00     0.135 C 
BRANCH   8   9
HETATM    9  S1  UNL     1      35.710  32.108  14.444  1.00  0.00    -0.163 SA
BRANCH   9  10
HETATM   10  C9  UNL     1      35.947  33.736  13.768  1.00  0.00     0.079 C 
BRANCH  10  11
HETATM   11  C8  UNL     1      36.923  34.525  14.640  1.00  0.00     0.001 C 
HETATM   12  C3  UNL     1      38.262  33.956  14.806  1.00  0.00     0.014 C 
HETATM   13  C4  UNL     1      39.204  35.024  15.364  1.00  0.00     0.007 C 
HETATM   14  C5  UNL     1      38.476  36.091  16.145  1.00  0.00     0.000 C 
HETATM   15  C6  UNL     1      37.434  36.810  15.327  1.00  0.00     0.000 C 
HETATM   16  C7  UNL     1      36.967  35.968  14.158  1.00  0.00     0.006 C 
BRANCH  12  17
HETATM   17  C2  UNL     1      38.900  33.391  13.594  1.00  0.00     0.172 C 
BRANCH  17  18
HETATM   18  O1  UNL     1      39.299  32.092  13.776  1.00  0.00    -0.396 OA
HETATM   19  C1  UNL     1      39.121  31.315  12.665  1.00  0.00     0.201 C 
ENDBRANCH  17  18
ENDBRANCH  12  17
ENDBRANCH  10  11
ENDBRANCH   9  10
ENDBRANCH   8   9
ENDBRANCH   1   8
BRANCH   7  20
HETATM   20  C15 UNL     1      32.609  31.378  17.997  1.00  0.00    -0.049 C 
HETATM   21  C16 UNL     1      31.720  30.211  17.640  1.00  0.00     0.036 C 
HETATM   22  C17 UNL     1      30.393  30.677  17.158  1.00  0.00     0.004 C 
HETATM   23  C18 UNL     1      29.850  31.603  18.263  1.00  0.00     0.001 C 
HETATM   24  C19 UNL     1      30.703  32.854  18.242  1.00  0.00     0.004 C 
HETATM   25  C20 UNL     1      32.062  32.407  18.873  1.00  0.00     0.036 C 
ENDBRANCH   7  20
BRANCH   6  26
HETATM   26  C12 UNL     1      34.361  29.973  20.305  1.00  0.00     0.196 A 
HETATM   27  N4  UNL     1      33.138  29.740  20.820  1.00  0.00    -0.220 N 
HETATM   28  O2  UNL     1      33.248  29.382  22.081  1.00  0.00    -0.153 OA
ATOM     29  H4  UNL     1      32.259  29.829  20.309  1.00  0.00     0.198 HD
HETATM   30  N5  UNL     1      34.481  29.369  22.429  1.00  0.00    -0.222 N 
HETATM   31  C13 UNL     1      35.227  29.730  21.347  1.00  0.00     0.169 A 
ATOM     32  H5  UNL     1      34.840  29.131  23.353  1.00  0.00     0.198 HD
BRANCH  31  33
HETATM   33  N6  UNL     1      36.502  29.792  21.407  1.00  0.00    -0.381 N 
ATOM     34  H62 UNL     1      37.021  30.541  20.947  1.00  0.00     0.157 HD
ATOM     35  H61 UNL     1      37.179  29.186  21.871  1.00  0.00     0.157 HD
ENDBRANCH  31  33
ENDBRANCH   6  26
TORSDOF 9
ENDMDL
