MODEL 1
REMARK VINA RESULT: -7.241954143      0.000      0.000
REMARK  11 active torsions:
REMARK  status: ('A' for Active; 'I' for Inactive)
REMARK    1  A    between atoms: C2_2  and  C3_3 
REMARK    2  A    between atoms: C3_3  and  C4_4 
REMARK    3  A    between atoms: C4_4  and  C5_5 
REMARK    4  A    between atoms: C5_5  and  S1_6 
REMARK    5  A    between atoms: C7_9  and  C12_15 
REMARK    6  A    between atoms: C8_11  and  C9_12 
REMARK    7  A    between atoms: C15_18  and  O3_19 
REMARK       I    between atoms: N1_21  and  C16_22 
REMARK    8  A    between atoms: C16_22  and  C17_24 
REMARK    9  A    between atoms: C17_24  and  N2_25 
REMARK   10  A    between atoms: N2_25  and  C18_28 
REMARK   11  A    between atoms: C20_30  and  O5_31 
ROOT
HETATM    1  C9  UNL     1      32.404  31.744  16.770  1.00  0.00     0.076 C 
HETATM    2  C10 UNL     1      31.305  32.628  17.238  1.00  0.00    -0.018 C 
HETATM    3  C11 UNL     1      30.509  32.173  18.186  1.00  0.00    -0.018 C 
HETATM    4  C12 UNL     1      30.728  30.809  18.753  1.00  0.00     0.077 C 
HETATM    5  C13 UNL     1      32.205  30.745  19.038  1.00  0.00     0.015 A 
HETATM    6  C14 UNL     1      33.035  31.217  18.037  1.00  0.00     0.015 A 
HETATM    7  C15 UNL     1      34.306  31.069  18.500  1.00  0.00     0.159 A 
HETATM    8  N1  UNL     1      34.317  30.532  19.731  1.00  0.00    -0.239 N 
HETATM    9  C16 UNL     1      35.456  30.225  20.544  1.00  0.00     0.257 C 
HETATM   10  O4  UNL     1      36.590  30.479  20.071  1.00  0.00    -0.271 OA
HETATM   11  C20 UNL     1      33.009  30.335  20.056  1.00  0.00     0.159 A 
ENDROOT
BRANCH   7  12
HETATM   12  O3  UNL     1      35.433  31.444  17.748  1.00  0.00    -0.345 OA
ATOM     13  H3  UNL     1      35.365  31.853  16.893  1.00  0.00     0.219 HD
ENDBRANCH   7  12
BRANCH   9  14
HETATM   14  C17 UNL     1      35.360  29.639  21.878  1.00  0.00     0.335 C 
BRANCH  14  15
HETATM   15  N2  UNL     1      36.270  28.517  21.981  1.00  0.00    -0.067 N 
ATOM     16  H22 UNL     1      36.696  28.279  21.086  1.00  0.00     0.277 HD
ATOM     17  H21 UNL     1      37.123  28.755  22.488  1.00  0.00     0.277 HD
BRANCH  15  18
HETATM   18  C18 UNL     1      35.563  27.384  22.582  1.00  0.00     0.228 C 
HETATM   19  C19 UNL     1      34.569  26.842  21.590  1.00  0.00     0.034 C 
ENDBRANCH  15  18
ENDBRANCH  14  15
ENDBRANCH   9  14
BRANCH  11  20
HETATM   20  O5  UNL     1      32.531  29.794  21.252  1.00  0.00    -0.345 OA
ATOM     21  H5  UNL     1      32.866  28.994  21.640  1.00  0.00     0.219 HD
ENDBRANCH  11  20
BRANCH   1  22
HETATM   22  C8  UNL     1      31.859  30.509  16.074  1.00  0.00     0.152 C 
HETATM   23  O2  UNL     1      30.735  30.822  15.288  1.00  0.00    -0.375 OA
HETATM   24  C7  UNL     1      31.198  31.444  14.142  1.00  0.00     0.165 C 
HETATM   25  C6  UNL     1      32.425  30.611  13.795  1.00  0.00     0.184 C 
HETATM   26  O1  UNL     1      32.051  29.368  13.303  1.00  0.00    -0.322 OA
HETATM   27  C21 UNL     1      32.845  29.942  15.084  1.00  0.00     0.126 C 
HETATM   28  S1  UNL     1      32.601  28.175  14.447  1.00  0.00    -0.079 SA
BRANCH  28  29
HETATM   29  C5  UNL     1      33.982  26.813  14.305  1.00  0.00     0.092 C 
BRANCH  29  30
HETATM   30  C4  UNL     1      33.359  25.470  14.497  1.00  0.00     0.012 C 
BRANCH  30  31
HETATM   31  C3  UNL     1      31.922  25.565  14.972  1.00  0.00     0.000 C 
BRANCH  31  32
HETATM   32  C2  UNL     1      31.402  24.270  15.504  1.00  0.00    -0.005 C 
HETATM   33  C1  UNL     1      32.543  23.264  15.480  1.00  0.00     0.005 C 
ENDBRANCH  31  32
ENDBRANCH  30  31
ENDBRANCH  29  30
ENDBRANCH  28  29
ENDBRANCH   1  22
TORSDOF 11
ENDMDL
MODEL 2
REMARK VINA RESULT: -7.169066104      0.793      1.011
REMARK  11 active torsions:
REMARK  status: ('A' for Active; 'I' for Inactive)
REMARK    1  A    between atoms: C2_2  and  C3_3 
REMARK    2  A    between atoms: C3_3  and  C4_4 
REMARK    3  A    between atoms: C4_4  and  C5_5 
REMARK    4  A    between atoms: C5_5  and  S1_6 
REMARK    5  A    between atoms: C7_9  and  C12_15 
REMARK    6  A    between atoms: C8_11  and  C9_12 
REMARK    7  A    between atoms: C15_18  and  O3_19 
REMARK       I    between atoms: N1_21  and  C16_22 
REMARK    8  A    between atoms: C16_22  and  C17_24 
REMARK    9  A    between atoms: C17_24  and  N2_25 
REMARK   10  A    between atoms: N2_25  and  C18_28 
REMARK   11  A    between atoms: C20_30  and  O5_31 
ROOT
HETATM    1  C9  UNL     1      32.308  32.047  16.485  1.00  0.00     0.076 C 
HETATM    2  C10 UNL     1      31.297  33.031  16.952  1.00  0.00    -0.018 C 
HETATM    3  C11 UNL     1      30.443  32.644  17.880  1.00  0.00    -0.018 C 
HETATM    4  C12 UNL     1      30.512  31.256  18.426  1.00  0.00     0.077 C 
HETATM    5  C13 UNL     1      31.970  31.037  18.733  1.00  0.00     0.015 A 
HETATM    6  C14 UNL     1      32.861  31.438  17.752  1.00  0.00     0.015 A 
HETATM    7  C15 UNL     1      34.102  31.154  18.232  1.00  0.00     0.159 A 
HETATM    8  N1  UNL     1      34.037  30.599  19.453  1.00  0.00    -0.239 N 
HETATM    9  C16 UNL     1      35.125  30.164  20.279  1.00  0.00     0.257 C 
HETATM   10  O4  UNL     1      36.287  30.309  19.827  1.00  0.00    -0.271 OA
HETATM   11  C20 UNL     1      32.711  30.531  19.755  1.00  0.00     0.159 A 
ENDROOT
BRANCH   7  12
HETATM   12  O3  UNL     1      35.274  31.424  17.504  1.00  0.00    -0.345 OA
ATOM     13  H3  UNL     1      35.870  32.127  17.736  1.00  0.00     0.219 HD
ENDBRANCH   7  12
BRANCH   9  14
HETATM   14  C17 UNL     1      34.947  29.570  21.600  1.00  0.00     0.335 C 
BRANCH  14  15
HETATM   15  N2  UNL     1      36.110  28.777  21.936  1.00  0.00    -0.067 N 
ATOM     16  H22 UNL     1      36.732  28.642  21.138  1.00  0.00     0.277 HD
ATOM     17  H21 UNL     1      36.761  29.278  22.541  1.00  0.00     0.277 HD
BRANCH  15  18
HETATM   18  C18 UNL     1      35.671  27.508  22.520  1.00  0.00     0.228 C 
HETATM   19  C19 UNL     1      34.548  26.947  21.689  1.00  0.00     0.034 C 
ENDBRANCH  15  18
ENDBRANCH  14  15
ENDBRANCH   9  14
BRANCH  11  20
HETATM   20  O5  UNL     1      32.160  30.023  20.934  1.00  0.00    -0.345 OA
ATOM     21  H5  UNL     1      31.905  30.562  21.672  1.00  0.00     0.219 HD
ENDBRANCH  11  20
BRANCH   1  22
HETATM   22  C8  UNL     1      31.652  30.885  15.760  1.00  0.00     0.152 C 
HETATM   23  O2  UNL     1      30.726  31.339  14.802  1.00  0.00    -0.375 OA
HETATM   24  C7  UNL     1      31.452  31.799  13.719  1.00  0.00     0.165 C 
HETATM   25  C6  UNL     1      32.544  30.745  13.589  1.00  0.00     0.184 C 
HETATM   26  O1  UNL     1      32.024  29.559  13.092  1.00  0.00    -0.322 OA
HETATM   27  C21 UNL     1      32.649  30.095  14.950  1.00  0.00     0.126 C 
HETATM   28  S1  UNL     1      32.181  28.361  14.347  1.00  0.00    -0.079 SA
BRANCH  28  29
HETATM   29  C5  UNL     1      33.298  26.773  14.463  1.00  0.00     0.092 C 
BRANCH  29  30
HETATM   30  C4  UNL     1      32.451  25.615  14.874  1.00  0.00     0.012 C 
BRANCH  30  31
HETATM   31  C3  UNL     1      33.229  24.314  14.902  1.00  0.00     0.000 C 
BRANCH  31  32
HETATM   32  C2  UNL     1      34.665  24.491  14.534  1.00  0.00    -0.005 C 
HETATM   33  C1  UNL     1      35.401  23.209  14.898  1.00  0.00     0.005 C 
ENDBRANCH  31  32
ENDBRANCH  30  31
ENDBRANCH  29  30
ENDBRANCH  28  29
ENDBRANCH   1  22
TORSDOF 11
ENDMDL
MODEL 3
REMARK VINA RESULT: -7.059859899      1.111      1.946
REMARK  11 active torsions:
REMARK  status: ('A' for Active; 'I' for Inactive)
REMARK    1  A    between atoms: C2_2  and  C3_3 
REMARK    2  A    between atoms: C3_3  and  C4_4 
REMARK    3  A    between atoms: C4_4  and  C5_5 
REMARK    4  A    between atoms: C5_5  and  S1_6 
REMARK    5  A    between atoms: C7_9  and  C12_15 
REMARK    6  A    between atoms: C8_11  and  C9_12 
REMARK    7  A    between atoms: C15_18  and  O3_19 
REMARK       I    between atoms: N1_21  and  C16_22 
REMARK    8  A    between atoms: C16_22  and  C17_24 
REMARK    9  A    between atoms: C17_24  and  N2_25 
REMARK   10  A    between atoms: N2_25  and  C18_28 
REMARK   11  A    between atoms: C20_30  and  O5_31 
ROOT
HETATM    1  C9  UNL     1      32.182  32.115  16.404  1.00  0.00     0.076 C 
HETATM    2  C10 UNL     1      31.225  33.149  16.878  1.00  0.00    -0.018 C 
HETATM    3  C11 UNL     1      30.391  32.819  17.846  1.00  0.00    -0.018 C 
HETATM    4  C12 UNL     1      30.430  31.444  18.428  1.00  0.00     0.077 C 
HETATM    5  C13 UNL     1      31.889  31.179  18.689  1.00  0.00     0.015 A 
HETATM    6  C14 UNL     1      32.758  31.520  17.667  1.00  0.00     0.015 A 
HETATM    7  C15 UNL     1      34.004  31.202  18.110  1.00  0.00     0.159 A 
HETATM    8  N1  UNL     1      33.963  30.682  19.348  1.00  0.00    -0.239 N 
HETATM    9  C16 UNL     1      35.064  30.228  20.146  1.00  0.00     0.257 C 
HETATM   10  O4  UNL     1      36.213  30.317  19.650  1.00  0.00    -0.271 OA
HETATM   11  C20 UNL     1      32.647  30.672  19.698  1.00  0.00     0.159 A 
ENDROOT
BRANCH   7  12
HETATM   12  O3  UNL     1      35.158  31.408  17.334  1.00  0.00    -0.345 OA
ATOM     13  H3  UNL     1      35.639  32.227  17.341  1.00  0.00     0.219 HD
ENDBRANCH   7  12
BRANCH   9  14
HETATM   14  C17 UNL     1      34.912  29.677  21.489  1.00  0.00     0.335 C 
BRANCH  14  15
HETATM   15  N2  UNL     1      36.076  28.881  21.821  1.00  0.00    -0.067 N 
ATOM     16  H22 UNL     1      36.649  28.672  21.004  1.00  0.00     0.277 HD
ATOM     17  H21 UNL     1      36.769  29.410  22.350  1.00  0.00     0.277 HD
BRANCH  15  18
HETATM   18  C18 UNL     1      35.643  27.671  22.522  1.00  0.00     0.228 C 
HETATM   19  C19 UNL     1      34.671  26.919  21.653  1.00  0.00     0.034 C 
ENDBRANCH  15  18
ENDBRANCH  14  15
ENDBRANCH   9  14
BRANCH  11  20
HETATM   20  O5  UNL     1      32.121  30.216  20.909  1.00  0.00    -0.345 OA
ATOM     21  H5  UNL     1      32.613  29.701  21.538  1.00  0.00     0.219 HD
ENDBRANCH  11  20
BRANCH   1  22
HETATM   22  C8  UNL     1      31.458  30.960  15.734  1.00  0.00     0.152 C 
HETATM   23  O2  UNL     1      30.519  31.424  14.795  1.00  0.00    -0.375 OA
HETATM   24  C7  UNL     1      31.225  31.824  13.675  1.00  0.00     0.165 C 
HETATM   25  C6  UNL     1      32.270  30.725  13.541  1.00  0.00     0.184 C 
HETATM   26  O1  UNL     1      31.689  29.547  13.096  1.00  0.00    -0.322 OA
HETATM   27  C21 UNL     1      32.396  30.109  14.917  1.00  0.00     0.126 C 
HETATM   28  S1  UNL     1      31.842  28.379  14.380  1.00  0.00    -0.079 SA
BRANCH  28  29
HETATM   29  C5  UNL     1      32.900  26.752  14.506  1.00  0.00     0.092 C 
BRANCH  29  30
HETATM   30  C4  UNL     1      34.090  26.879  13.612  1.00  0.00     0.012 C 
BRANCH  30  31
HETATM   31  C3  UNL     1      35.384  27.001  14.391  1.00  0.00     0.000 C 
BRANCH  31  32
HETATM   32  C2  UNL     1      35.743  28.417  14.700  1.00  0.00    -0.005 C 
HETATM   33  C1  UNL     1      36.968  28.402  15.603  1.00  0.00     0.005 C 
ENDBRANCH  31  32
ENDBRANCH  30  31
ENDBRANCH  29  30
ENDBRANCH  28  29
ENDBRANCH   1  22
TORSDOF 11
ENDMDL
MODEL 4
REMARK VINA RESULT: -7.050676781      1.261      1.538
REMARK  11 active torsions:
REMARK  status: ('A' for Active; 'I' for Inactive)
REMARK    1  A    between atoms: C2_2  and  C3_3 
REMARK    2  A    between atoms: C3_3  and  C4_4 
REMARK    3  A    between atoms: C4_4  and  C5_5 
REMARK    4  A    between atoms: C5_5  and  S1_6 
REMARK    5  A    between atoms: C7_9  and  C12_15 
REMARK    6  A    between atoms: C8_11  and  C9_12 
REMARK    7  A    between atoms: C15_18  and  O3_19 
REMARK       I    between atoms: N1_21  and  C16_22 
REMARK    8  A    between atoms: C16_22  and  C17_24 
REMARK    9  A    between atoms: C17_24  and  N2_25 
REMARK   10  A    between atoms: N2_25  and  C18_28 
REMARK   11  A    between atoms: C20_30  and  O5_31 
ROOT
HETATM    1  C9  UNL     1      31.747  32.530  15.745  1.00  0.00     0.076 C 
HETATM    2  C10 UNL     1      31.015  33.732  16.224  1.00  0.00    -0.018 C 
HETATM    3  C11 UNL     1      30.293  33.617  17.322  1.00  0.00    -0.018 C 
HETATM    4  C12 UNL     1      30.232  32.308  18.040  1.00  0.00     0.077 C 
HETATM    5  C13 UNL     1      31.665  31.856  18.137  1.00  0.00     0.015 A 
HETATM    6  C14 UNL     1      32.414  31.972  16.980  1.00  0.00     0.015 A 
HETATM    7  C15 UNL     1      33.658  31.516  17.289  1.00  0.00     0.159 A 
HETATM    8  N1  UNL     1      33.728  31.122  18.571  1.00  0.00    -0.239 N 
HETATM    9  C16 UNL     1      34.862  30.584  19.264  1.00  0.00     0.257 C 
HETATM   10  O4  UNL     1      35.929  30.458  18.616  1.00  0.00    -0.271 OA
HETATM   11  C20 UNL     1      32.486  31.337  19.088  1.00  0.00     0.159 A 
ENDROOT
BRANCH   7  12
HETATM   12  O3  UNL     1      34.705  31.480  16.351  1.00  0.00    -0.345 OA
ATOM     13  H3  UNL     1      34.648  31.906  15.504  1.00  0.00     0.219 HD
ENDBRANCH   7  12
BRANCH   9  14
HETATM   14  C17 UNL     1      34.833  30.184  20.667  1.00  0.00     0.335 C 
BRANCH  14  15
HETATM   15  N2  UNL     1      35.159  28.777  20.777  1.00  0.00    -0.067 N 
ATOM     16  H22 UNL     1      35.324  28.345  19.868  1.00  0.00     0.277 HD
ATOM     17  H21 UNL     1      36.084  28.624  21.178  1.00  0.00     0.277 HD
BRANCH  15  18
HETATM   18  C18 UNL     1      34.104  28.100  21.533  1.00  0.00     0.228 C 
HETATM   19  C19 UNL     1      34.478  26.653  21.711  1.00  0.00     0.034 C 
ENDBRANCH  15  18
ENDBRANCH  14  15
ENDBRANCH   9  14
BRANCH  11  20
HETATM   20  O5  UNL     1      32.085  31.073  20.400  1.00  0.00    -0.345 OA
ATOM     21  H5  UNL     1      32.624  31.247  21.162  1.00  0.00     0.219 HD
ENDBRANCH  11  20
BRANCH   1  22
HETATM   22  C8  UNL     1      30.786  31.439  15.305  1.00  0.00     0.152 C 
HETATM   23  O2  UNL     1      29.940  31.889  14.276  1.00  0.00    -0.375 OA
HETATM   24  C7  UNL     1      30.686  31.907  13.112  1.00  0.00     0.165 C 
HETATM   25  C6  UNL     1      31.482  30.613  13.217  1.00  0.00     0.184 C 
HETATM   26  O1  UNL     1      30.661  29.514  13.005  1.00  0.00    -0.322 OA
HETATM   27  C21 UNL     1      31.512  30.269  14.690  1.00  0.00     0.126 C 
HETATM   28  S1  UNL     1      30.603  28.618  14.498  1.00  0.00    -0.079 SA
BRANCH  28  29
HETATM   29  C5  UNL     1      31.310  26.867  14.963  1.00  0.00     0.092 C 
BRANCH  29  30
HETATM   30  C4  UNL     1      32.681  26.730  14.387  1.00  0.00     0.012 C 
BRANCH  30  31
HETATM   31  C3  UNL     1      33.272  25.355  14.630  1.00  0.00     0.000 C 
BRANCH  31  32
HETATM   32  C2  UNL     1      32.275  24.382  15.166  1.00  0.00    -0.005 C 
HETATM   33  C1  UNL     1      33.012  23.092  15.495  1.00  0.00     0.005 C 
ENDBRANCH  31  32
ENDBRANCH  30  31
ENDBRANCH  29  30
ENDBRANCH  28  29
ENDBRANCH   1  22
TORSDOF 11
ENDMDL
MODEL 5
REMARK VINA RESULT: -6.949801823      0.882      1.091
REMARK  11 active torsions:
REMARK  status: ('A' for Active; 'I' for Inactive)
REMARK    1  A    between atoms: C2_2  and  C3_3 
REMARK    2  A    between atoms: C3_3  and  C4_4 
REMARK    3  A    between atoms: C4_4  and  C5_5 
REMARK    4  A    between atoms: C5_5  and  S1_6 
REMARK    5  A    between atoms: C7_9  and  C12_15 
REMARK    6  A    between atoms: C8_11  and  C9_12 
REMARK    7  A    between atoms: C15_18  and  O3_19 
REMARK       I    between atoms: N1_21  and  C16_22 
REMARK    8  A    between atoms: C16_22  and  C17_24 
REMARK    9  A    between atoms: C17_24  and  N2_25 
REMARK   10  A    between atoms: N2_25  and  C18_28 
REMARK   11  A    between atoms: C20_30  and  O5_31 
ROOT
HETATM    1  C9  UNL     1      32.424  32.056  15.818  1.00  0.00     0.076 C 
HETATM    2  C10 UNL     1      31.446  33.110  16.193  1.00  0.00    -0.018 C 
HETATM    3  C11 UNL     1      30.622  32.859  17.193  1.00  0.00    -0.018 C 
HETATM    4  C12 UNL     1      30.693  31.548  17.906  1.00  0.00     0.077 C 
HETATM    5  C13 UNL     1      32.158  31.342  18.185  1.00  0.00     0.015 A 
HETATM    6  C14 UNL     1      33.016  31.600  17.131  1.00  0.00     0.015 A 
HETATM    7  C15 UNL     1      34.270  31.355  17.597  1.00  0.00     0.159 A 
HETATM    8  N1  UNL     1      34.245  30.958  18.880  1.00  0.00    -0.239 N 
HETATM    9  C16 UNL     1      35.357  30.609  19.713  1.00  0.00     0.257 C 
HETATM   10  O4  UNL     1      36.503  30.674  19.205  1.00  0.00    -0.271 OA
HETATM   11  C20 UNL     1      32.930  30.954  19.236  1.00  0.00     0.159 A 
ENDROOT
BRANCH   7  12
HETATM   12  O3  UNL     1      35.417  31.509  16.799  1.00  0.00    -0.345 OA
ATOM     13  H3  UNL     1      35.743  32.361  16.531  1.00  0.00     0.219 HD
ENDBRANCH   7  12
BRANCH   9  14
HETATM   14  C17 UNL     1      35.221  30.188  21.104  1.00  0.00     0.335 C 
BRANCH  14  15
HETATM   15  N2  UNL     1      35.511  28.774  21.213  1.00  0.00    -0.067 N 
ATOM     16  H22 UNL     1      35.980  28.408  20.385  1.00  0.00     0.277 HD
ATOM     17  H21 UNL     1      36.247  28.580  21.892  1.00  0.00     0.277 HD
BRANCH  15  18
HETATM   18  C18 UNL     1      34.271  28.054  21.515  1.00  0.00     0.228 C 
HETATM   19  C19 UNL     1      34.586  26.596  21.716  1.00  0.00     0.034 C 
ENDBRANCH  15  18
ENDBRANCH  14  15
ENDBRANCH   9  14
BRANCH  11  20
HETATM   20  O5  UNL     1      32.417  30.607  20.488  1.00  0.00    -0.345 OA
ATOM     21  H5  UNL     1      32.288  31.227  21.195  1.00  0.00     0.219 HD
ENDBRANCH  11  20
BRANCH   1  22
HETATM   22  C8  UNL     1      31.724  30.826  15.268  1.00  0.00     0.152 C 
HETATM   23  O2  UNL     1      30.784  31.173  14.280  1.00  0.00    -0.375 OA
HETATM   24  C7  UNL     1      31.491  31.468  13.129  1.00  0.00     0.165 C 
HETATM   25  C6  UNL     1      32.556  30.379  13.115  1.00  0.00     0.184 C 
HETATM   26  O1  UNL     1      31.997  29.151  12.791  1.00  0.00    -0.322 OA
HETATM   27  C21 UNL     1      32.682  29.911  14.548  1.00  0.00     0.126 C 
HETATM   28  S1  UNL     1      32.161  28.125  14.191  1.00  0.00    -0.079 SA
BRANCH  28  29
HETATM   29  C5  UNL     1      33.246  26.539  14.490  1.00  0.00     0.092 C 
BRANCH  29  30
HETATM   30  C4  UNL     1      32.358  25.420  14.924  1.00  0.00     0.012 C 
BRANCH  30  31
HETATM   31  C3  UNL     1      33.091  24.096  14.991  1.00  0.00     0.000 C 
BRANCH  31  32
HETATM   32  C2  UNL     1      32.335  23.052  15.745  1.00  0.00    -0.005 C 
HETATM   33  C1  UNL     1      30.938  23.593  16.016  1.00  0.00     0.005 C 
ENDBRANCH  31  32
ENDBRANCH  30  31
ENDBRANCH  29  30
ENDBRANCH  28  29
ENDBRANCH   1  22
TORSDOF 11
ENDMDL
