MODEL 1
REMARK VINA RESULT: -6.184289643      0.000      0.000
REMARK  10 active torsions:
REMARK  status: ('A' for Active; 'I' for Inactive)
REMARK    1  A    between atoms: C2_2  and  C3_3 
REMARK    2  A    between atoms: C3_3  and  N1_4 
REMARK    3  A    between atoms: C8_13  and  N4_14 
REMARK    4  A    between atoms: N4_14  and  C9_16 
REMARK    5  A    between atoms: C11_21  and  N7_22 
REMARK    6  A    between atoms: N7_22  and  C12_24 
REMARK    7  A    between atoms: C12_24  and  C13_25 
REMARK    8  A    between atoms: N8_31  and  C18_32 
REMARK    9  A    between atoms: C18_32  and  C19_33 
REMARK   10  A    between atoms: C19_33  and  C20_34 
ROOT
HETATM    1  C9  UNL     1      26.583  25.714  19.042  1.00  0.00     0.690 A 
HETATM    2  N5  UNL     1      26.255  25.482  20.320  1.00  0.00    -0.176 N 
ATOM      3  H5  UNL     1      26.477  24.569  20.718  1.00  0.00     0.185 HD
HETATM    4  C10 UNL     1      25.647  26.392  21.109  1.00  0.00     0.163 A 
HETATM    5  N6  UNL     1      25.323  26.091  22.458  1.00  0.00    -0.080 NA
HETATM    6  C11 UNL     1      25.365  27.613  20.534  1.00  0.00     0.139 A 
HETATM    7  C17 UNL     1      25.712  27.845  19.198  1.00  0.00     0.291 A 
HETATM    8  O1  UNL     1      25.408  29.002  18.783  1.00  0.00    -0.265 OA
HETATM    9  N8  UNL     1      26.316  26.914  18.440  1.00  0.00    -0.145 N 
ENDROOT
BRANCH   1  10
HETATM   10  N4  UNL     1      27.146  24.762  18.382  1.00  0.00    -0.174 N 
ATOM     11  H4  UNL     1      28.115  24.912  18.101  1.00  0.00     0.186 HD
BRANCH  10  12
HETATM   12  C8  UNL     1      26.567  23.544  18.012  1.00  0.00     0.150 A 
HETATM   13  N3  UNL     1      25.233  23.307  18.228  1.00  0.00    -0.350 N 
HETATM   14  C7  UNL     1      24.660  22.148  17.871  1.00  0.00     0.092 A 
ATOM     15  H3  UNL     1      24.664  24.029  18.671  1.00  0.00     0.166 HD
HETATM   16  C6  UNL     1      25.383  21.142  17.272  1.00  0.00     0.049 A 
HETATM   17  C5  UNL     1      26.700  21.356  17.050  1.00  0.00     0.065 A 
HETATM   18  N2  UNL     1      27.658  20.599  16.491  1.00  0.00    -0.350 N 
HETATM   19  C22 UNL     1      27.323  22.560  17.414  1.00  0.00     0.111 A 
HETATM   20  C4  UNL     1      28.800  21.261  16.496  1.00  0.00     0.188 A 
ATOM     21  H2  UNL     1      27.524  19.658  16.120  1.00  0.00     0.166 HD
HETATM   22  N1  UNL     1      28.619  22.483  17.065  1.00  0.00    -0.313 N 
BRANCH  22  23
HETATM   23  C3  UNL     1      29.645  23.432  17.234  1.00  0.00     0.097 C 
BRANCH  23  24
HETATM   24  C2  UNL     1      30.839  23.210  16.340  1.00  0.00     0.007 C 
HETATM   25  C1  UNL     1      31.335  24.170  15.585  1.00  0.00     0.013 C 
ENDBRANCH  23  24
ENDBRANCH  22  23
ENDBRANCH  10  12
ENDBRANCH   1  10
BRANCH   9  26
HETATM   26  C18 UNL     1      26.690  27.212  17.108  1.00  0.00     0.151 C 
BRANCH  26  27
HETATM   27  C19 UNL     1      27.962  27.867  16.800  1.00  0.00     0.020 C 
BRANCH  27  28
HETATM   28  C20 UNL     1      29.191  27.111  16.528  1.00  0.00    -0.003 C 
HETATM   29  C21 UNL     1      30.145  27.800  15.622  1.00  0.00     0.005 C 
ENDBRANCH  27  28
ENDBRANCH  26  27
ENDBRANCH   9  26
BRANCH   6  30
HETATM   30  N7  UNL     1      24.720  28.619  21.323  1.00  0.00    -0.382 N 
ATOM     31  H7  UNL     1      25.296  29.300  21.819  1.00  0.00     0.160 HD
BRANCH  30  32
HETATM   32  C12 UNL     1      23.287  28.707  21.443  1.00  0.00     0.128 C 
BRANCH  32  33
HETATM   33  C13 UNL     1      22.947  29.985  22.167  1.00  0.00    -0.035 C 
HETATM   34  C14 UNL     1      24.166  30.860  22.361  1.00  0.00     0.016 C 
HETATM   35  C15 UNL     1      22.356  29.639  23.517  1.00  0.00     0.016 C 
HETATM   36  C16 UNL     1      21.921  30.804  21.416  1.00  0.00     0.016 C 
ENDBRANCH  32  33
ENDBRANCH  30  32
ENDBRANCH   6  30
TORSDOF 10
ENDMDL
MODEL 2
REMARK VINA RESULT: -6.150265517      3.487      6.288
REMARK  10 active torsions:
REMARK  status: ('A' for Active; 'I' for Inactive)
REMARK    1  A    between atoms: C2_2  and  C3_3 
REMARK    2  A    between atoms: C3_3  and  N1_4 
REMARK    3  A    between atoms: C8_13  and  N4_14 
REMARK    4  A    between atoms: N4_14  and  C9_16 
REMARK    5  A    between atoms: C11_21  and  N7_22 
REMARK    6  A    between atoms: N7_22  and  C12_24 
REMARK    7  A    between atoms: C12_24  and  C13_25 
REMARK    8  A    between atoms: N8_31  and  C18_32 
REMARK    9  A    between atoms: C18_32  and  C19_33 
REMARK   10  A    between atoms: C19_33  and  C20_34 
ROOT
HETATM    1  C9  UNL     1      26.498  29.381  19.667  1.00  0.00     0.690 A 
HETATM    2  N5  UNL     1      26.448  30.465  20.454  1.00  0.00    -0.176 N 
ATOM      3  H5  UNL     1      27.136  31.203  20.305  1.00  0.00     0.185 HD
HETATM    4  C10 UNL     1      25.534  30.630  21.433  1.00  0.00     0.163 A 
HETATM    5  N6  UNL     1      25.528  31.800  22.236  1.00  0.00    -0.080 NA
HETATM    6  C11 UNL     1      24.622  29.610  21.601  1.00  0.00     0.139 A 
HETATM    7  C17 UNL     1      24.684  28.483  20.774  1.00  0.00     0.291 A 
HETATM    8  O1  UNL     1      23.794  27.617  21.019  1.00  0.00    -0.265 OA
HETATM    9  N8  UNL     1      25.610  28.350  19.809  1.00  0.00    -0.145 N 
ENDROOT
BRANCH   1  10
HETATM   10  N4  UNL     1      27.427  29.327  18.776  1.00  0.00    -0.174 N 
ATOM     11  H4  UNL     1      28.245  28.761  19.001  1.00  0.00     0.186 HD
BRANCH  10  12
HETATM   12  C8  UNL     1      27.429  29.964  17.530  1.00  0.00     0.150 A 
HETATM   13  N3  UNL     1      26.448  29.703  16.607  1.00  0.00    -0.350 N 
HETATM   14  C7  UNL     1      26.430  30.311  15.411  1.00  0.00     0.092 A 
ATOM     15  H3  UNL     1      25.716  29.029  16.834  1.00  0.00     0.166 HD
HETATM   16  C6  UNL     1      27.394  31.226  15.055  1.00  0.00     0.049 A 
HETATM   17  C5  UNL     1      28.370  31.499  15.953  1.00  0.00     0.065 A 
HETATM   18  N2  UNL     1      29.426  32.328  15.917  1.00  0.00    -0.350 N 
HETATM   19  C22 UNL     1      28.410  30.875  17.209  1.00  0.00     0.111 A 
HETATM   20  C4  UNL     1      30.088  32.244  17.055  1.00  0.00     0.188 A 
ATOM     21  H2  UNL     1      29.677  32.929  15.132  1.00  0.00     0.166 HD
HETATM   22  N1  UNL     1      29.479  31.347  17.876  1.00  0.00    -0.313 N 
BRANCH  22  23
HETATM   23  C3  UNL     1      29.942  31.016  19.163  1.00  0.00     0.097 C 
BRANCH  23  24
HETATM   24  C2  UNL     1      31.390  30.595  19.204  1.00  0.00     0.007 C 
HETATM   25  C1  UNL     1      31.975  30.212  20.321  1.00  0.00     0.013 C 
ENDBRANCH  23  24
ENDBRANCH  22  23
ENDBRANCH  10  12
ENDBRANCH   1  10
BRANCH   9  26
HETATM   26  C18 UNL     1      25.602  27.213  18.966  1.00  0.00     0.151 C 
BRANCH  26  27
HETATM   27  C19 UNL     1      26.292  25.979  19.343  1.00  0.00     0.020 C 
BRANCH  27  28
HETATM   28  C20 UNL     1      26.554  24.898  18.383  1.00  0.00    -0.003 C 
HETATM   29  C21 UNL     1      25.749  23.672  18.609  1.00  0.00     0.005 C 
ENDBRANCH  27  28
ENDBRANCH  26  27
ENDBRANCH   9  26
BRANCH   6  30
HETATM   30  N7  UNL     1      23.628  29.730  22.626  1.00  0.00    -0.382 N 
ATOM     31  H7  UNL     1      23.837  29.372  23.558  1.00  0.00     0.160 HD
BRANCH  30  32
HETATM   32  C12 UNL     1      22.343  30.337  22.388  1.00  0.00     0.128 C 
BRANCH  32  33
HETATM   33  C13 UNL     1      21.369  29.803  23.407  1.00  0.00    -0.035 C 
HETATM   34  C14 UNL     1      21.907  29.926  24.816  1.00  0.00     0.016 C 
HETATM   35  C15 UNL     1      21.093  28.346  23.100  1.00  0.00     0.016 C 
HETATM   36  C16 UNL     1      20.047  30.536  23.365  1.00  0.00     0.016 C 
ENDBRANCH  32  33
ENDBRANCH  30  32
ENDBRANCH   6  30
TORSDOF 10
ENDMDL
MODEL 3
REMARK VINA RESULT: -6.092702217      3.064      4.676
REMARK  10 active torsions:
REMARK  status: ('A' for Active; 'I' for Inactive)
REMARK    1  A    between atoms: C2_2  and  C3_3 
REMARK    2  A    between atoms: C3_3  and  N1_4 
REMARK    3  A    between atoms: C8_13  and  N4_14 
REMARK    4  A    between atoms: N4_14  and  C9_16 
REMARK    5  A    between atoms: C11_21  and  N7_22 
REMARK    6  A    between atoms: N7_22  and  C12_24 
REMARK    7  A    between atoms: C12_24  and  C13_25 
REMARK    8  A    between atoms: N8_31  and  C18_32 
REMARK    9  A    between atoms: C18_32  and  C19_33 
REMARK   10  A    between atoms: C19_33  and  C20_34 
ROOT
HETATM    1  C9  UNL     1      25.627  28.511  20.350  1.00  0.00     0.690 A 
HETATM    2  N5  UNL     1      24.561  27.868  20.844  1.00  0.00    -0.176 N 
ATOM      3  H5  UNL     1      24.373  26.920  20.517  1.00  0.00     0.185 HD
HETATM    4  C10 UNL     1      23.722  28.408  21.753  1.00  0.00     0.163 A 
HETATM    5  N6  UNL     1      22.608  27.680  22.243  1.00  0.00    -0.080 NA
HETATM    6  C11 UNL     1      24.012  29.689  22.170  1.00  0.00     0.139 A 
HETATM    7  C17 UNL     1      25.129  30.352  21.648  1.00  0.00     0.291 A 
HETATM    8  O1  UNL     1      25.296  31.519  22.109  1.00  0.00    -0.265 OA
HETATM    9  N8  UNL     1      25.942  29.783  20.741  1.00  0.00    -0.145 N 
ENDROOT
BRANCH   1  10
HETATM   10  N4  UNL     1      26.346  27.899  19.473  1.00  0.00    -0.174 N 
ATOM     11  H4  UNL     1      27.196  28.373  19.167  1.00  0.00     0.186 HD
BRANCH  10  12
HETATM   12  C8  UNL     1      26.082  26.651  18.898  1.00  0.00     0.150 A 
HETATM   13  N3  UNL     1      26.382  25.491  19.569  1.00  0.00    -0.350 N 
HETATM   14  C7  UNL     1      26.127  24.287  19.036  1.00  0.00     0.092 A 
ATOM     15  H3  UNL     1      26.808  25.547  20.494  1.00  0.00     0.166 HD
HETATM   16  C6  UNL     1      25.554  24.157  17.792  1.00  0.00     0.049 A 
HETATM   17  C5  UNL     1      25.250  25.289  17.114  1.00  0.00     0.065 A 
HETATM   18  N2  UNL     1      24.690  25.501  15.912  1.00  0.00    -0.350 N 
HETATM   19  C22 UNL     1      25.507  26.560  17.650  1.00  0.00     0.111 A 
HETATM   20  C4  UNL     1      24.595  26.799  15.695  1.00  0.00     0.188 A 
ATOM     21  H2  UNL     1      24.386  24.772  15.267  1.00  0.00     0.166 HD
HETATM   22  N1  UNL     1      25.096  27.481  16.760  1.00  0.00    -0.313 N 
BRANCH  22  23
HETATM   23  C3  UNL     1      25.153  28.885  16.840  1.00  0.00     0.097 C 
BRANCH  23  24
HETATM   24  C2  UNL     1      23.806  29.545  16.996  1.00  0.00     0.007 C 
HETATM   25  C1  UNL     1      23.491  30.245  18.068  1.00  0.00     0.013 C 
ENDBRANCH  23  24
ENDBRANCH  22  23
ENDBRANCH  10  12
ENDBRANCH   1  10
BRANCH   9  26
HETATM   26  C18 UNL     1      27.087  30.476  20.277  1.00  0.00     0.151 C 
BRANCH  26  27
HETATM   27  C19 UNL     1      27.048  31.284  19.058  1.00  0.00     0.020 C 
BRANCH  27  28
HETATM   28  C20 UNL     1      28.198  31.400  18.153  1.00  0.00    -0.003 C 
HETATM   29  C21 UNL     1      29.498  31.026  18.765  1.00  0.00     0.005 C 
ENDBRANCH  27  28
ENDBRANCH  26  27
ENDBRANCH   9  26
BRANCH   6  30
HETATM   30  N7  UNL     1      23.158  30.315  23.135  1.00  0.00    -0.382 N 
ATOM     31  H7  UNL     1      23.383  30.221  24.126  1.00  0.00     0.160 HD
BRANCH  30  32
HETATM   32  C12 UNL     1      21.991  31.073  22.758  1.00  0.00     0.128 C 
BRANCH  32  33
HETATM   33  C13 UNL     1      20.994  31.002  23.887  1.00  0.00    -0.035 C 
HETATM   34  C14 UNL     1      20.509  32.376  24.294  1.00  0.00     0.016 C 
HETATM   35  C15 UNL     1      21.647  30.327  25.073  1.00  0.00     0.016 C 
HETATM   36  C16 UNL     1      19.775  30.188  23.513  1.00  0.00     0.016 C 
ENDBRANCH  32  33
ENDBRANCH  30  32
ENDBRANCH   6  30
TORSDOF 10
ENDMDL
MODEL 4
REMARK VINA RESULT: -6.070333867      3.948      6.796
REMARK  10 active torsions:
REMARK  status: ('A' for Active; 'I' for Inactive)
REMARK    1  A    between atoms: C2_2  and  C3_3 
REMARK    2  A    between atoms: C3_3  and  N1_4 
REMARK    3  A    between atoms: C8_13  and  N4_14 
REMARK    4  A    between atoms: N4_14  and  C9_16 
REMARK    5  A    between atoms: C11_21  and  N7_22 
REMARK    6  A    between atoms: N7_22  and  C12_24 
REMARK    7  A    between atoms: C12_24  and  C13_25 
REMARK    8  A    between atoms: N8_31  and  C18_32 
REMARK    9  A    between atoms: C18_32  and  C19_33 
REMARK   10  A    between atoms: C19_33  and  C20_34 
ROOT
HETATM    1  C9  UNL     1      27.581  29.957  19.234  1.00  0.00     0.690 A 
HETATM    2  N5  UNL     1      27.534  30.741  20.320  1.00  0.00    -0.176 N 
ATOM      3  H5  UNL     1      28.380  31.243  20.591  1.00  0.00     0.185 HD
HETATM    4  C10 UNL     1      26.427  30.900  21.075  1.00  0.00     0.163 A 
HETATM    5  N6  UNL     1      26.435  31.744  22.215  1.00  0.00    -0.080 NA
HETATM    6  C11 UNL     1      25.306  30.204  20.675  1.00  0.00     0.139 A 
HETATM    7  C17 UNL     1      25.366  29.389  19.538  1.00  0.00     0.291 A 
HETATM    8  O1  UNL     1      24.276  28.805  19.268  1.00  0.00    -0.265 OA
HETATM    9  N8  UNL     1      26.488  29.252  18.811  1.00  0.00    -0.145 N 
ENDROOT
BRANCH   1  10
HETATM   10  N4  UNL     1      28.701  29.871  18.602  1.00  0.00    -0.174 N 
ATOM     11  H4  UNL     1      29.274  29.050  18.797  1.00  0.00     0.186 HD
BRANCH  10  12
HETATM   12  C8  UNL     1      29.211  30.786  17.675  1.00  0.00     0.150 A 
HETATM   13  N3  UNL     1      28.459  31.187  16.598  1.00  0.00    -0.350 N 
HETATM   14  C7  UNL     1      28.929  32.070  15.705  1.00  0.00     0.092 A 
ATOM     15  H3  UNL     1      27.522  30.804  16.475  1.00  0.00     0.166 HD
HETATM   16  C6  UNL     1      30.186  32.616  15.825  1.00  0.00     0.049 A 
HETATM   17  C5  UNL     1      30.943  32.234  16.881  1.00  0.00     0.065 A 
HETATM   18  N2  UNL     1      32.179  32.578  17.279  1.00  0.00    -0.350 N 
HETATM   19  C22 UNL     1      30.474  31.312  17.829  1.00  0.00     0.111 A 
HETATM   20  C4  UNL     1      32.477  31.931  18.390  1.00  0.00     0.188 A 
ATOM     21  H2  UNL     1      32.791  33.237  16.798  1.00  0.00     0.166 HD
HETATM   22  N1  UNL     1      31.435  31.137  18.753  1.00  0.00    -0.313 N 
BRANCH  22  23
HETATM   23  C3  UNL     1      31.437  30.305  19.889  1.00  0.00     0.097 C 
BRANCH  23  24
HETATM   24  C2  UNL     1      32.760  30.257  20.611  1.00  0.00     0.007 C 
HETATM   25  C1  UNL     1      33.168  29.180  21.252  1.00  0.00     0.013 C 
ENDBRANCH  23  24
ENDBRANCH  22  23
ENDBRANCH  10  12
ENDBRANCH   1  10
BRANCH   9  26
HETATM   26  C18 UNL     1      26.486  28.453  17.642  1.00  0.00     0.151 C 
BRANCH  26  27
HETATM   27  C19 UNL     1      26.908  27.052  17.675  1.00  0.00     0.020 C 
BRANCH  27  28
HETATM   28  C20 UNL     1      26.067  25.989  18.240  1.00  0.00    -0.003 C 
HETATM   29  C21 UNL     1      26.304  25.722  19.681  1.00  0.00     0.005 C 
ENDBRANCH  27  28
ENDBRANCH  26  27
ENDBRANCH   9  26
BRANCH   6  30
HETATM   30  N7  UNL     1      24.100  30.334  21.437  1.00  0.00    -0.382 N 
ATOM     31  H7  UNL     1      23.497  31.140  21.269  1.00  0.00     0.160 HD
BRANCH  30  32
HETATM   32  C12 UNL     1      23.707  29.369  22.432  1.00  0.00     0.128 C 
BRANCH  32  33
HETATM   33  C13 UNL     1      22.201  29.348  22.506  1.00  0.00    -0.035 C 
HETATM   34  C14 UNL     1      21.576  30.234  21.450  1.00  0.00     0.016 C 
HETATM   35  C15 UNL     1      21.774  29.823  23.878  1.00  0.00     0.016 C 
HETATM   36  C16 UNL     1      21.645  27.955  22.311  1.00  0.00     0.016 C 
ENDBRANCH  32  33
ENDBRANCH  30  32
ENDBRANCH   6  30
TORSDOF 10
ENDMDL
MODEL 5
REMARK VINA RESULT: -5.979986426      0.853      1.295
REMARK  10 active torsions:
REMARK  status: ('A' for Active; 'I' for Inactive)
REMARK    1  A    between atoms: C2_2  and  C3_3 
REMARK    2  A    between atoms: C3_3  and  N1_4 
REMARK    3  A    between atoms: C8_13  and  N4_14 
REMARK    4  A    between atoms: N4_14  and  C9_16 
REMARK    5  A    between atoms: C11_21  and  N7_22 
REMARK    6  A    between atoms: N7_22  and  C12_24 
REMARK    7  A    between atoms: C12_24  and  C13_25 
REMARK    8  A    between atoms: N8_31  and  C18_32 
REMARK    9  A    between atoms: C18_32  and  C19_33 
REMARK   10  A    between atoms: C19_33  and  C20_34 
ROOT
HETATM    1  C9  UNL     1      26.567  25.681  19.048  1.00  0.00     0.690 A 
HETATM    2  N5  UNL     1      26.255  25.474  20.335  1.00  0.00    -0.176 N 
ATOM      3  H5  UNL     1      26.495  24.576  20.753  1.00  0.00     0.185 HD
HETATM    4  C10 UNL     1      25.638  26.394  21.107  1.00  0.00     0.163 A 
HETATM    5  N6  UNL     1      25.332  26.121  22.465  1.00  0.00    -0.080 NA
HETATM    6  C11 UNL     1      25.331  27.595  20.504  1.00  0.00     0.139 A 
HETATM    7  C17 UNL     1      25.663  27.800  19.160  1.00  0.00     0.291 A 
HETATM    8  O1  UNL     1      25.336  28.941  18.719  1.00  0.00    -0.265 OA
HETATM    9  N8  UNL     1      26.276  26.860  18.420  1.00  0.00    -0.145 N 
ENDROOT
BRANCH   1  10
HETATM   10  N4  UNL     1      27.141  24.722  18.407  1.00  0.00    -0.174 N 
ATOM     11  H4  UNL     1      28.119  24.863  18.152  1.00  0.00     0.186 HD
BRANCH  10  12
HETATM   12  C8  UNL     1      26.562  23.507  18.025  1.00  0.00     0.150 A 
HETATM   13  N3  UNL     1      25.229  23.265  18.245  1.00  0.00    -0.350 N 
HETATM   14  C7  UNL     1      24.656  22.109  17.876  1.00  0.00     0.092 A 
ATOM     15  H3  UNL     1      24.661  23.980  18.699  1.00  0.00     0.166 HD
HETATM   16  C6  UNL     1      25.378  21.112  17.261  1.00  0.00     0.049 A 
HETATM   17  C5  UNL     1      26.694  21.332  17.034  1.00  0.00     0.065 A 
HETATM   18  N2  UNL     1      27.650  20.583  16.461  1.00  0.00    -0.350 N 
HETATM   19  C22 UNL     1      27.316  22.532  17.410  1.00  0.00     0.111 A 
HETATM   20  C4  UNL     1      28.790  21.247  16.468  1.00  0.00     0.188 A 
ATOM     21  H2  UNL     1      27.516  19.647  16.079  1.00  0.00     0.166 HD
HETATM   22  N1  UNL     1      28.611  22.462  17.053  1.00  0.00    -0.313 N 
BRANCH  22  23
HETATM   23  C3  UNL     1      29.636  23.411  17.229  1.00  0.00     0.097 C 
BRANCH  23  24
HETATM   24  C2  UNL     1      30.804  23.233  16.291  1.00  0.00     0.007 C 
HETATM   25  C1  UNL     1      31.275  24.227  15.565  1.00  0.00     0.013 C 
ENDBRANCH  23  24
ENDBRANCH  22  23
ENDBRANCH  10  12
ENDBRANCH   1  10
BRANCH   9  26
HETATM   26  C18 UNL     1      26.633  27.132  17.077  1.00  0.00     0.151 C 
BRANCH  26  27
HETATM   27  C19 UNL     1      25.750  26.778  15.965  1.00  0.00     0.020 C 
BRANCH  27  28
HETATM   28  C20 UNL     1      26.061  25.691  15.028  1.00  0.00    -0.003 C 
HETATM   29  C21 UNL     1      27.510  25.412  14.874  1.00  0.00     0.005 C 
ENDBRANCH  27  28
ENDBRANCH  26  27
ENDBRANCH   9  26
BRANCH   6  30
HETATM   30  N7  UNL     1      24.676  28.610  21.274  1.00  0.00    -0.382 N 
ATOM     31  H7  UNL     1      25.239  29.357  21.682  1.00  0.00     0.160 HD
BRANCH  30  32
HETATM   32  C12 UNL     1      23.252  28.616  21.494  1.00  0.00     0.128 C 
BRANCH  32  33
HETATM   33  C13 UNL     1      22.884  29.901  22.191  1.00  0.00    -0.035 C 
HETATM   34  C14 UNL     1      22.307  29.648  23.566  1.00  0.00     0.016 C 
HETATM   35  C15 UNL     1      21.867  30.638  21.346  1.00  0.00     0.016 C 
HETATM   36  C16 UNL     1      24.079  30.812  22.365  1.00  0.00     0.016 C 
ENDBRANCH  32  33
ENDBRANCH  30  32
ENDBRANCH   6  30
TORSDOF 10
ENDMDL
