MODEL 1
REMARK VINA RESULT: -7.187182152      0.000      0.000
REMARK  6 active torsions:
REMARK  status: ('A' for Active; 'I' for Inactive)
REMARK    1  A    between atoms: C3_5  and  N2_6 
REMARK    2  A    between atoms: C10_15  and  N4_16 
REMARK    3  A    between atoms: C11_19  and  S1_20 
REMARK    4  A    between atoms: S1_20  and  C12_21 
REMARK    5  A    between atoms: C12_21  and  C13_22 
REMARK    6  A    between atoms: C13_22  and  O1_24 
ROOT
HETATM    1  O1  UNL     1      78.217   5.495  23.194  1.00  0.00    -0.278 OA
HETATM    2  C15 UNL     1      77.108   6.289  23.201  1.00  0.00     0.228 C 
HETATM    3  N5  UNL     1      76.173   6.979  23.218  1.00  0.00    -0.164 NA
ENDROOT
BRANCH   1   4
HETATM    4  C13 UNL     1      78.818   5.000  24.357  1.00  0.00     0.147 C 
HETATM    5  C14 UNL     1      77.730   4.361  25.209  1.00  0.00     0.042 C 
BRANCH   4   6
HETATM    6  C12 UNL     1      79.475   6.107  25.172  1.00  0.00     0.112 C 
BRANCH   6   7
HETATM    7  S1  UNL     1      78.490   6.347  26.667  1.00  0.00    -0.122 SA
BRANCH   7   8
HETATM    8  C11 UNL     1      79.471   6.357  28.133  1.00  0.00     0.067 A 
HETATM    9  C2  UNL     1      80.206   7.468  28.470  1.00  0.00     0.043 A 
HETATM   10  C1  UNL     1      80.170   8.668  27.593  1.00  0.00     0.070 C 
HETATM   11  N1  UNL     1      80.967   7.495  29.591  1.00  0.00    -0.194 N 
HETATM   12  C3  UNL     1      81.019   6.427  30.403  1.00  0.00     0.682 A 
ATOM     13  H1  UNL     1      81.503   8.332  29.819  1.00  0.00     0.184 HD
HETATM   14  N3  UNL     1      80.310   5.314  30.105  1.00  0.00    -0.176 N 
HETATM   15  C10 UNL     1      79.539   5.271  28.977  1.00  0.00     0.133 A 
ATOM     16  H3  UNL     1      80.351   4.504  30.723  1.00  0.00     0.186 HD
BRANCH  12  17
HETATM   17  N2  UNL     1      81.809   6.439  31.570  1.00  0.00    -0.218 N 
HETATM   18  C4  UNL     1      81.465   7.282  32.666  1.00  0.00     0.141 C 
HETATM   19  C5  UNL     1      80.499   6.636  33.636  1.00  0.00     0.020 C 
HETATM   20  C6  UNL     1      81.100   5.416  34.294  1.00  0.00     0.002 C 
HETATM   21  C7  UNL     1      81.696   4.448  33.326  1.00  0.00     0.002 C 
HETATM   22  C8  UNL     1      83.090   4.935  32.956  1.00  0.00     0.020 C 
HETATM   23  C9  UNL     1      82.969   5.534  31.550  1.00  0.00     0.141 C 
ENDBRANCH  12  17
BRANCH  15  24
HETATM   24  N4  UNL     1      78.849   4.232  28.659  1.00  0.00    -0.384 N 
ATOM     25  H42 UNL     1      77.893   4.182  29.008  1.00  0.00     0.157 HD
ATOM     26  H41 UNL     1      79.232   3.483  28.083  1.00  0.00     0.157 HD
ENDBRANCH  15  24
ENDBRANCH   7   8
ENDBRANCH   6   7
ENDBRANCH   4   6
ENDBRANCH   1   4
TORSDOF 6
ENDMDL
MODEL 2
REMARK VINA RESULT: -7.081868591      1.762      2.321
REMARK  6 active torsions:
REMARK  status: ('A' for Active; 'I' for Inactive)
REMARK    1  A    between atoms: C3_5  and  N2_6 
REMARK    2  A    between atoms: C10_15  and  N4_16 
REMARK    3  A    between atoms: C11_19  and  S1_20 
REMARK    4  A    between atoms: S1_20  and  C12_21 
REMARK    5  A    between atoms: C12_21  and  C13_22 
REMARK    6  A    between atoms: C13_22  and  O1_24 
ROOT
HETATM    1  O1  UNL     1      81.372   5.129  24.250  1.00  0.00    -0.278 OA
HETATM    2  C15 UNL     1      82.652   5.098  24.721  1.00  0.00     0.228 C 
HETATM    3  N5  UNL     1      83.739   5.054  25.131  1.00  0.00    -0.164 NA
ENDROOT
BRANCH   1   4
HETATM    4  C13 UNL     1      80.245   4.985  25.067  1.00  0.00     0.147 C 
HETATM    5  C14 UNL     1      79.512   3.723  24.633  1.00  0.00     0.042 C 
BRANCH   4   6
HETATM    6  C12 UNL     1      79.290   6.164  24.929  1.00  0.00     0.112 C 
BRANCH   6   7
HETATM    7  S1  UNL     1      78.296   6.245  26.435  1.00  0.00    -0.122 SA
BRANCH   7   8
HETATM    8  C11 UNL     1      79.281   6.278  27.899  1.00  0.00     0.067 A 
HETATM    9  C2  UNL     1      79.897   7.440  28.295  1.00  0.00     0.043 A 
HETATM   10  C1  UNL     1      79.730   8.676  27.485  1.00  0.00     0.070 C 
HETATM   11  N1  UNL     1      80.659   7.486  29.415  1.00  0.00    -0.194 N 
HETATM   12  C3  UNL     1      80.829   6.387  30.167  1.00  0.00     0.682 A 
ATOM     13  H1  UNL     1      81.106   8.362  29.688  1.00  0.00     0.184 HD
HETATM   14  N3  UNL     1      80.239   5.223  29.809  1.00  0.00    -0.176 N 
HETATM   15  C10 UNL     1      79.468   5.161  28.682  1.00  0.00     0.133 A 
ATOM     16  H3  UNL     1      80.369   4.390  30.381  1.00  0.00     0.186 HD
BRANCH  12  17
HETATM   17  N2  UNL     1      81.622   6.419  31.332  1.00  0.00    -0.218 N 
HETATM   18  C4  UNL     1      81.272   7.269  32.420  1.00  0.00     0.141 C 
HETATM   19  C5  UNL     1      80.314   6.625  33.398  1.00  0.00     0.020 C 
HETATM   20  C6  UNL     1      80.929   5.417  34.068  1.00  0.00     0.002 C 
HETATM   21  C7  UNL     1      81.531   4.445  33.108  1.00  0.00     0.002 C 
HETATM   22  C8  UNL     1      82.920   4.941  32.730  1.00  0.00     0.020 C 
HETATM   23  C9  UNL     1      82.790   5.524  31.319  1.00  0.00     0.141 C 
ENDBRANCH  12  17
BRANCH  15  24
HETATM   24  N4  UNL     1      78.889   4.075  28.308  1.00  0.00    -0.384 N 
ATOM     25  H42 UNL     1      78.921   3.283  28.949  1.00  0.00     0.157 HD
ATOM     26  H41 UNL     1      78.416   3.995  27.408  1.00  0.00     0.157 HD
ENDBRANCH  15  24
ENDBRANCH   7   8
ENDBRANCH   6   7
ENDBRANCH   4   6
ENDBRANCH   1   4
TORSDOF 6
ENDMDL
MODEL 3
REMARK VINA RESULT: -6.957082144      1.289      1.837
REMARK  6 active torsions:
REMARK  status: ('A' for Active; 'I' for Inactive)
REMARK    1  A    between atoms: C3_5  and  N2_6 
REMARK    2  A    between atoms: C10_15  and  N4_16 
REMARK    3  A    between atoms: C11_19  and  S1_20 
REMARK    4  A    between atoms: S1_20  and  C12_21 
REMARK    5  A    between atoms: C12_21  and  C13_22 
REMARK    6  A    between atoms: C13_22  and  O1_24 
ROOT
HETATM    1  O1  UNL     1      78.085   5.218  23.409  1.00  0.00    -0.278 OA
HETATM    2  C15 UNL     1      77.103   6.158  23.303  1.00  0.00     0.228 C 
HETATM    3  N5  UNL     1      76.279   6.973  23.217  1.00  0.00    -0.164 NA
ENDROOT
BRANCH   1   4
HETATM    4  C13 UNL     1      78.849   5.027  24.567  1.00  0.00     0.147 C 
HETATM    5  C14 UNL     1      79.508   3.658  24.471  1.00  0.00     0.042 C 
BRANCH   4   6
HETATM    6  C12 UNL     1      77.989   5.056  25.825  1.00  0.00     0.112 C 
BRANCH   6   7
HETATM    7  S1  UNL     1      78.483   6.498  26.794  1.00  0.00    -0.122 SA
BRANCH   7   8
HETATM    8  C11 UNL     1      79.358   6.063  28.263  1.00  0.00     0.067 A 
HETATM    9  C2  UNL     1      80.694   5.748  28.208  1.00  0.00     0.043 A 
HETATM   10  C1  UNL     1      81.404   5.776  26.901  1.00  0.00     0.070 C 
HETATM   11  N1  UNL     1      81.384   5.410  29.323  1.00  0.00    -0.194 N 
HETATM   12  C3  UNL     1      80.771   5.376  30.517  1.00  0.00     0.682 A 
ATOM     13  H1  UNL     1      82.376   5.180  29.256  1.00  0.00     0.184 HD
HETATM   14  N3  UNL     1      79.455   5.680  30.612  1.00  0.00    -0.176 N 
HETATM   15  C10 UNL     1      78.747   6.022  29.496  1.00  0.00     0.133 A 
ATOM     16  H3  UNL     1      78.992   5.653  31.520  1.00  0.00     0.186 HD
BRANCH  12  17
HETATM   17  N2  UNL     1      81.475   5.022  31.686  1.00  0.00    -0.218 N 
HETATM   18  C4  UNL     1      82.833   5.415  31.857  1.00  0.00     0.141 C 
HETATM   19  C5  UNL     1      82.986   6.783  32.487  1.00  0.00     0.020 C 
HETATM   20  C6  UNL     1      82.422   6.817  33.889  1.00  0.00     0.002 C 
HETATM   21  C7  UNL     1      81.033   6.277  33.987  1.00  0.00     0.002 C 
HETATM   22  C8  UNL     1      81.113   4.758  34.058  1.00  0.00     0.020 C 
HETATM   23  C9  UNL     1      80.703   4.249  32.672  1.00  0.00     0.141 C 
ENDBRANCH  12  17
BRANCH  15  24
HETATM   24  N4  UNL     1      77.495   6.318  29.544  1.00  0.00    -0.384 N 
ATOM     25  H42 UNL     1      76.978   6.031  30.374  1.00  0.00     0.157 HD
ATOM     26  H41 UNL     1      77.027   6.817  28.788  1.00  0.00     0.157 HD
ENDBRANCH  15  24
ENDBRANCH   7   8
ENDBRANCH   6   7
ENDBRANCH   4   6
ENDBRANCH   1   4
TORSDOF 6
ENDMDL
MODEL 4
REMARK VINA RESULT: -6.875764683      0.646      1.115
REMARK  6 active torsions:
REMARK  status: ('A' for Active; 'I' for Inactive)
REMARK    1  A    between atoms: C3_5  and  N2_6 
REMARK    2  A    between atoms: C10_15  and  N4_16 
REMARK    3  A    between atoms: C11_19  and  S1_20 
REMARK    4  A    between atoms: S1_20  and  C12_21 
REMARK    5  A    between atoms: C12_21  and  C13_22 
REMARK    6  A    between atoms: C13_22  and  O1_24 
ROOT
HETATM    1  O1  UNL     1      78.275   5.649  23.133  1.00  0.00    -0.278 OA
HETATM    2  C15 UNL     1      77.114   6.366  23.087  1.00  0.00     0.228 C 
HETATM    3  N5  UNL     1      76.133   6.989  23.062  1.00  0.00    -0.164 NA
ENDROOT
BRANCH   1   4
HETATM    4  C13 UNL     1      78.778   5.070  24.304  1.00  0.00     0.147 C 
HETATM    5  C14 UNL     1      77.595   4.587  25.131  1.00  0.00     0.042 C 
BRANCH   4   6
HETATM    6  C12 UNL     1      79.567   6.072  25.138  1.00  0.00     0.112 C 
BRANCH   6   7
HETATM    7  S1  UNL     1      78.579   6.471  26.596  1.00  0.00    -0.122 SA
BRANCH   7   8
HETATM    8  C11 UNL     1      79.484   6.294  28.100  1.00  0.00     0.067 A 
HETATM    9  C2  UNL     1      80.228   7.340  28.590  1.00  0.00     0.043 A 
HETATM   10  C1  UNL     1      80.268   8.627  27.846  1.00  0.00     0.070 C 
HETATM   11  N1  UNL     1      80.931   7.224  29.742  1.00  0.00    -0.194 N 
HETATM   12  C3  UNL     1      80.915   6.075  30.436  1.00  0.00     0.682 A 
ATOM     13  H1  UNL     1      81.476   8.016  30.084  1.00  0.00     0.184 HD
HETATM   14  N3  UNL     1      80.194   5.022  29.986  1.00  0.00    -0.176 N 
HETATM   15  C10 UNL     1      79.480   5.124  28.825  1.00  0.00     0.133 A 
ATOM     16  H3  UNL     1      80.183   4.150  30.514  1.00  0.00     0.186 HD
BRANCH  12  17
HETATM   17  N2  UNL     1      81.645   5.938  31.634  1.00  0.00    -0.218 N 
HETATM   18  C4  UNL     1      82.624   6.907  31.997  1.00  0.00     0.141 C 
HETATM   19  C5  UNL     1      82.053   8.071  32.778  1.00  0.00     0.020 C 
HETATM   20  C6  UNL     1      81.478   7.625  34.103  1.00  0.00     0.002 C 
HETATM   21  C7  UNL     1      80.533   6.475  33.987  1.00  0.00     0.002 C 
HETATM   22  C8  UNL     1      81.347   5.191  33.909  1.00  0.00     0.020 C 
HETATM   23  C9  UNL     1      81.308   4.754  32.441  1.00  0.00     0.141 C 
ENDBRANCH  12  17
BRANCH  15  24
HETATM   24  N4  UNL     1      78.781   4.146  28.363  1.00  0.00    -0.384 N 
ATOM     25  H42 UNL     1      79.287   3.371  27.935  1.00  0.00     0.157 HD
ATOM     26  H41 UNL     1      77.763   4.137  28.416  1.00  0.00     0.157 HD
ENDBRANCH  15  24
ENDBRANCH   7   8
ENDBRANCH   6   7
ENDBRANCH   4   6
ENDBRANCH   1   4
TORSDOF 6
ENDMDL
MODEL 5
REMARK VINA RESULT: -6.826769666      1.249      1.647
REMARK  6 active torsions:
REMARK  status: ('A' for Active; 'I' for Inactive)
REMARK    1  A    between atoms: C3_5  and  N2_6 
REMARK    2  A    between atoms: C10_15  and  N4_16 
REMARK    3  A    between atoms: C11_19  and  S1_20 
REMARK    4  A    between atoms: S1_20  and  C12_21 
REMARK    5  A    between atoms: C12_21  and  C13_22 
REMARK    6  A    between atoms: C13_22  and  O1_24 
ROOT
HETATM    1  O1  UNL     1      78.413   5.100  23.504  1.00  0.00    -0.278 OA
HETATM    2  C15 UNL     1      77.323   5.908  23.361  1.00  0.00     0.228 C 
HETATM    3  N5  UNL     1      76.405   6.611  23.246  1.00  0.00    -0.164 NA
ENDROOT
BRANCH   1   4
HETATM    4  C13 UNL     1      79.143   4.992  24.693  1.00  0.00     0.147 C 
HETATM    5  C14 UNL     1      79.874   3.656  24.672  1.00  0.00     0.042 C 
BRANCH   4   6
HETATM    6  C12 UNL     1      78.239   5.022  25.919  1.00  0.00     0.112 C 
BRANCH   6   7
HETATM    7  S1  UNL     1      78.387   6.658  26.670  1.00  0.00    -0.122 SA
BRANCH   7   8
HETATM    8  C11 UNL     1      79.069   6.600  28.296  1.00  0.00     0.067 A 
HETATM    9  C2  UNL     1      80.429   6.635  28.481  1.00  0.00     0.043 A 
HETATM   10  C1  UNL     1      81.330   6.724  27.301  1.00  0.00     0.070 C 
HETATM   11  N1  UNL     1      80.973   6.590  29.721  1.00  0.00    -0.194 N 
HETATM   12  C3  UNL     1      80.185   6.509  30.806  1.00  0.00     0.682 A 
ATOM     13  H1  UNL     1      81.987   6.617  29.831  1.00  0.00     0.184 HD
HETATM   14  N3  UNL     1      78.840   6.473  30.665  1.00  0.00    -0.176 N 
HETATM   15  C10 UNL     1      78.278   6.516  29.420  1.00  0.00     0.133 A 
ATOM     16  H3  UNL     1      78.244   6.412  31.490  1.00  0.00     0.186 HD
BRANCH  12  17
HETATM   17  N2  UNL     1      80.736   6.458  32.102  1.00  0.00    -0.218 N 
HETATM   18  C4  UNL     1      80.163   5.616  33.097  1.00  0.00     0.141 C 
HETATM   19  C5  UNL     1      80.720   4.208  33.083  1.00  0.00     0.020 C 
HETATM   20  C6  UNL     1      82.197   4.190  33.402  1.00  0.00     0.002 C 
HETATM   21  C7  UNL     1      82.997   5.147  32.582  1.00  0.00     0.002 C 
HETATM   22  C8  UNL     1      82.880   6.530  33.208  1.00  0.00     0.020 C 
HETATM   23  C9  UNL     1      81.912   7.316  32.317  1.00  0.00     0.141 C 
ENDBRANCH  12  17
BRANCH  15  24
HETATM   24  N4  UNL     1      77.003   6.484  29.244  1.00  0.00    -0.384 N 
ATOM     25  H42 UNL     1      76.469   5.827  29.811  1.00  0.00     0.157 HD
ATOM     26  H41 UNL     1      76.535   7.085  28.566  1.00  0.00     0.157 HD
ENDBRANCH  15  24
ENDBRANCH   7   8
ENDBRANCH   6   7
ENDBRANCH   4   6
ENDBRANCH   1   4
TORSDOF 6
ENDMDL
