MODEL 1
REMARK VINA RESULT: -7.533472138      0.000      0.000
REMARK  7 active torsions:
REMARK  status: ('A' for Active; 'I' for Inactive)
REMARK    1  A    between atoms: C2_2  and  C3_3 
REMARK    2  A    between atoms: C3_3  and  C4_4 
REMARK    3  A    between atoms: C4_4  and  C5_5 
REMARK    4  A    between atoms: C5_5  and  C6_6 
REMARK    5  A    between atoms: C6_6  and  N1_7 
REMARK       I    between atoms: N1_7  and  C7_9 
REMARK    6  A    between atoms: C7_9  and  O2_11 
REMARK    7  A    between atoms: C13_17  and  O3_18 
ROOT
HETATM    1  C5  UNL     1      79.921   5.442  27.790  1.00  0.00     0.044 C 
HETATM    2  C9  UNL     1      79.655   4.659  26.590  1.00  0.00     0.073 C 
HETATM    3  C10 UNL     1      80.478   4.458  25.441  1.00  0.00    -0.006 C 
HETATM    4  C11 UNL     1      80.892   5.462  24.466  1.00  0.00     0.010 C 
HETATM    5  C12 UNL     1      79.375   3.712  24.589  1.00  0.00     0.042 C 
HETATM    6  C13 UNL     1      78.340   4.856  24.647  1.00  0.00     0.184 C 
HETATM    7  C14 UNL     1      78.475   5.449  25.963  1.00  0.00     0.231 C 
HETATM    8  O4  UNL     1      77.398   5.469  26.778  1.00  0.00    -0.194 OA
HETATM    9  O5  UNL     1      77.732   6.256  27.772  1.00  0.00    -0.197 OA
HETATM   10  C15 UNL     1      79.062   6.636  27.555  1.00  0.00     0.206 C 
HETATM   11  C16 UNL     1      79.331   7.873  28.246  1.00  0.00     0.083 C 
HETATM   12  O6  UNL     1      78.993   6.714  26.139  1.00  0.00    -0.310 OA
ENDROOT
BRANCH   1  13
HETATM   13  C4  UNL     1      81.261   5.606  28.302  1.00  0.00     0.017 C 
BRANCH  13  14
HETATM   14  C3  UNL     1      82.358   6.323  27.656  1.00  0.00     0.001 C 
BRANCH  14  15
HETATM   15  C2  UNL     1      83.643   5.874  28.407  1.00  0.00    -0.005 C 
HETATM   16  C1  UNL     1      83.294   5.141  29.682  1.00  0.00     0.005 C 
ENDBRANCH  14  15
ENDBRANCH  13  14
ENDBRANCH   1  13
BRANCH   1  17
HETATM   17  C6  UNL     1      79.188   4.680  28.937  1.00  0.00     0.140 C 
BRANCH  17  18
HETATM   18  N1  UNL     1      79.638   5.208  30.215  1.00  0.00    -0.336 N 
HETATM   19  C7  UNL     1      78.632   5.528  31.195  1.00  0.00     0.360 C 
HETATM   20  O1  UNL     1      77.417   5.356  30.949  1.00  0.00    -0.239 OA
ATOM     21  H1  UNL     1      80.629   5.347  30.411  1.00  0.00     0.164 HD
BRANCH  19  22
HETATM   22  O2  UNL     1      79.046   6.030  32.411  1.00  0.00    -0.309 OA
HETATM   23  C8  UNL     1      80.185   5.488  33.090  1.00  0.00     0.215 C 
ENDBRANCH  19  22
ENDBRANCH  17  18
ENDBRANCH   1  17
BRANCH   6  24
HETATM   24  O3  UNL     1      77.101   4.159  24.619  1.00  0.00    -0.390 OA
ATOM     25  H3  UNL     1      76.947   3.971  25.537  1.00  0.00     0.210 HD
ENDBRANCH   6  24
TORSDOF 7
ENDMDL
MODEL 2
REMARK VINA RESULT: -7.488543399      2.518      5.526
REMARK  7 active torsions:
REMARK  status: ('A' for Active; 'I' for Inactive)
REMARK    1  A    between atoms: C2_2  and  C3_3 
REMARK    2  A    between atoms: C3_3  and  C4_4 
REMARK    3  A    between atoms: C4_4  and  C5_5 
REMARK    4  A    between atoms: C5_5  and  C6_6 
REMARK    5  A    between atoms: C6_6  and  N1_7 
REMARK       I    between atoms: N1_7  and  C7_9 
REMARK    6  A    between atoms: C7_9  and  O2_11 
REMARK    7  A    between atoms: C13_17  and  O3_18 
ROOT
HETATM    1  C5  UNL     1      78.920   6.074  26.615  1.00  0.00     0.044 C 
HETATM    2  C9  UNL     1      78.509   6.026  28.012  1.00  0.00     0.073 C 
HETATM    3  C10 UNL     1      78.817   6.926  29.076  1.00  0.00    -0.006 C 
HETATM    4  C11 UNL     1      80.129   7.178  29.666  1.00  0.00     0.010 C 
HETATM    5  C12 UNL     1      78.187   6.036  30.220  1.00  0.00     0.042 C 
HETATM    6  C13 UNL     1      79.058   4.792  29.941  1.00  0.00     0.184 C 
HETATM    7  C14 UNL     1      79.233   4.743  28.502  1.00  0.00     0.231 C 
HETATM    8  O4  UNL     1      78.813   3.647  27.836  1.00  0.00    -0.194 OA
HETATM    9  O5  UNL     1      79.303   3.770  26.625  1.00  0.00    -0.197 OA
HETATM   10  C15 UNL     1      79.958   5.006  26.580  1.00  0.00     0.206 C 
HETATM   11  C16 UNL     1      80.951   4.991  25.533  1.00  0.00     0.083 C 
HETATM   12  O6  UNL     1      80.454   4.991  27.911  1.00  0.00    -0.310 OA
ENDROOT
BRANCH   1  13
HETATM   13  C4  UNL     1      79.152   7.329  25.938  1.00  0.00     0.017 C 
BRANCH  13  14
HETATM   14  C3  UNL     1      79.629   8.568  26.545  1.00  0.00     0.001 C 
BRANCH  14  15
HETATM   15  C2  UNL     1      81.179   8.517  26.422  1.00  0.00    -0.005 C 
HETATM   16  C1  UNL     1      81.822   9.581  27.282  1.00  0.00     0.005 C 
ENDBRANCH  14  15
ENDBRANCH  13  14
ENDBRANCH   1  13
BRANCH   1  17
HETATM   17  C6  UNL     1      77.727   5.453  25.824  1.00  0.00     0.140 C 
BRANCH  17  18
HETATM   18  N1  UNL     1      77.426   6.303  24.683  1.00  0.00    -0.336 N 
HETATM   19  C7  UNL     1      76.398   5.861  23.776  1.00  0.00     0.360 C 
HETATM   20  O1  UNL     1      75.790   4.784  23.969  1.00  0.00    -0.239 OA
ATOM     21  H1  UNL     1      77.925   7.179  24.530  1.00  0.00     0.164 HD
BRANCH  19  22
HETATM   22  O2  UNL     1      76.104   6.658  22.689  1.00  0.00    -0.309 OA
HETATM   23  C8  UNL     1      74.773   6.741  22.167  1.00  0.00     0.215 C 
ENDBRANCH  19  22
ENDBRANCH  17  18
ENDBRANCH   1  17
BRANCH   6  24
HETATM   24  O3  UNL     1      78.198   3.720  30.301  1.00  0.00    -0.390 OA
ATOM     25  H3  UNL     1      78.809   3.040  30.562  1.00  0.00     0.210 HD
ENDBRANCH   6  24
TORSDOF 7
ENDMDL
MODEL 3
REMARK VINA RESULT: -7.268401217      2.341      5.468
REMARK  7 active torsions:
REMARK  status: ('A' for Active; 'I' for Inactive)
REMARK    1  A    between atoms: C2_2  and  C3_3 
REMARK    2  A    between atoms: C3_3  and  C4_4 
REMARK    3  A    between atoms: C4_4  and  C5_5 
REMARK    4  A    between atoms: C5_5  and  C6_6 
REMARK    5  A    between atoms: C6_6  and  N1_7 
REMARK       I    between atoms: N1_7  and  C7_9 
REMARK    6  A    between atoms: C7_9  and  O2_11 
REMARK    7  A    between atoms: C13_17  and  O3_18 
ROOT
HETATM    1  C5  UNL     1      79.377   6.477  27.002  1.00  0.00     0.044 C 
HETATM    2  C9  UNL     1      78.935   6.272  28.375  1.00  0.00     0.073 C 
HETATM    3  C10 UNL     1      79.388   6.901  29.574  1.00  0.00    -0.006 C 
HETATM    4  C11 UNL     1      80.711   6.789  30.182  1.00  0.00     0.010 C 
HETATM    5  C12 UNL     1      78.575   5.967  30.557  1.00  0.00     0.042 C 
HETATM    6  C13 UNL     1      79.195   4.645  30.057  1.00  0.00     0.184 C 
HETATM    7  C14 UNL     1      79.387   4.809  28.629  1.00  0.00     0.231 C 
HETATM    8  O4  UNL     1      78.778   3.945  27.790  1.00  0.00    -0.194 OA
HETATM    9  O5  UNL     1      79.308   4.175  26.612  1.00  0.00    -0.197 OA
HETATM   10  C15 UNL     1      80.190   5.251  26.772  1.00  0.00     0.206 C 
HETATM   11  C16 UNL     1      81.183   5.222  25.726  1.00  0.00     0.083 C 
HETATM   12  O6  UNL     1      80.645   4.912  28.074  1.00  0.00    -0.310 OA
ENDROOT
BRANCH   1  13
HETATM   13  C4  UNL     1      79.860   7.760  26.548  1.00  0.00     0.017 C 
BRANCH  13  14
HETATM   14  C3  UNL     1      79.642   9.050  27.196  1.00  0.00     0.001 C 
BRANCH  14  15
HETATM   15  C2  UNL     1      81.060   9.571  27.565  1.00  0.00    -0.005 C 
HETATM   16  C1  UNL     1      82.122   8.860  26.759  1.00  0.00     0.005 C 
ENDBRANCH  14  15
ENDBRANCH  13  14
ENDBRANCH   1  13
BRANCH   1  17
HETATM   17  C6  UNL     1      78.103   6.243  26.132  1.00  0.00     0.140 C 
BRANCH  17  18
HETATM   18  N1  UNL     1      78.445   6.450  24.733  1.00  0.00    -0.336 N 
HETATM   19  C7  UNL     1      77.776   5.629  23.757  1.00  0.00     0.360 C 
HETATM   20  O1  UNL     1      76.934   4.772  24.105  1.00  0.00    -0.239 OA
ATOM     21  H1  UNL     1      79.132   7.150  24.454  1.00  0.00     0.164 HD
BRANCH  19  22
HETATM   22  O2  UNL     1      78.092   5.816  22.427  1.00  0.00    -0.309 OA
HETATM   23  C8  UNL     1      77.084   5.771  21.410  1.00  0.00     0.215 C 
ENDBRANCH  19  22
ENDBRANCH  17  18
ENDBRANCH   1  17
BRANCH   6  24
HETATM   24  O3  UNL     1      78.137   3.714  30.239  1.00  0.00    -0.390 OA
ATOM     25  H3  UNL     1      78.086   3.286  29.392  1.00  0.00     0.210 HD
ENDBRANCH   6  24
TORSDOF 7
ENDMDL
MODEL 4
REMARK VINA RESULT: -7.109557202      2.303      5.155
REMARK  7 active torsions:
REMARK  status: ('A' for Active; 'I' for Inactive)
REMARK    1  A    between atoms: C2_2  and  C3_3 
REMARK    2  A    between atoms: C3_3  and  C4_4 
REMARK    3  A    between atoms: C4_4  and  C5_5 
REMARK    4  A    between atoms: C5_5  and  C6_6 
REMARK    5  A    between atoms: C6_6  and  N1_7 
REMARK       I    between atoms: N1_7  and  C7_9 
REMARK    6  A    between atoms: C7_9  and  O2_11 
REMARK    7  A    between atoms: C13_17  and  O3_18 
ROOT
HETATM    1  C5  UNL     1      79.836   5.610  27.931  1.00  0.00     0.044 C 
HETATM    2  C9  UNL     1      81.219   5.293  28.264  1.00  0.00     0.073 C 
HETATM    3  C10 UNL     1      81.913   5.463  29.500  1.00  0.00    -0.006 C 
HETATM    4  C11 UNL     1      82.239   6.722  30.163  1.00  0.00     0.010 C 
HETATM    5  C12 UNL     1      83.341   5.096  28.929  1.00  0.00     0.042 C 
HETATM    6  C13 UNL     1      83.354   6.193  27.841  1.00  0.00     0.184 C 
HETATM    7  C14 UNL     1      81.989   6.296  27.363  1.00  0.00     0.231 C 
HETATM    8  O4  UNL     1      81.745   6.080  26.053  1.00  0.00    -0.194 OA
HETATM    9  O5  UNL     1      80.505   6.468  25.864  1.00  0.00    -0.197 OA
HETATM   10  C15 UNL     1      80.008   6.845  27.117  1.00  0.00     0.206 C 
HETATM   11  C16 UNL     1      78.907   7.761  26.945  1.00  0.00     0.083 C 
HETATM   12  O6  UNL     1      81.211   7.404  27.623  1.00  0.00    -0.310 OA
ENDROOT
BRANCH   1  13
HETATM   13  C4  UNL     1      78.786   5.536  28.920  1.00  0.00     0.017 C 
BRANCH  13  14
HETATM   14  C3  UNL     1      78.670   6.349  30.127  1.00  0.00     0.001 C 
BRANCH  14  15
HETATM   15  C2  UNL     1      78.739   5.343  31.311  1.00  0.00    -0.005 C 
HETATM   16  C1  UNL     1      79.496   5.935  32.478  1.00  0.00     0.005 C 
ENDBRANCH  14  15
ENDBRANCH  13  14
ENDBRANCH   1  13
BRANCH   1  17
HETATM   17  C6  UNL     1      79.420   4.532  26.882  1.00  0.00     0.140 C 
BRANCH  17  18
HETATM   18  N1  UNL     1      78.060   4.803  26.444  1.00  0.00    -0.336 N 
HETATM   19  C7  UNL     1      77.709   4.438  25.096  1.00  0.00     0.360 C 
HETATM   20  O1  UNL     1      78.549   3.907  24.335  1.00  0.00    -0.239 OA
ATOM     21  H1  UNL     1      77.379   5.237  27.068  1.00  0.00     0.164 HD
BRANCH  19  22
HETATM   22  O2  UNL     1      76.422   4.690  24.668  1.00  0.00    -0.309 OA
HETATM   23  C8  UNL     1      76.154   5.660  23.649  1.00  0.00     0.215 C 
ENDBRANCH  19  22
ENDBRANCH  17  18
ENDBRANCH   1  17
BRANCH   6  24
HETATM   24  O3  UNL     1      84.124   5.597  26.805  1.00  0.00    -0.390 OA
ATOM     25  H3  UNL     1      84.966   6.029  26.896  1.00  0.00     0.210 HD
ENDBRANCH   6  24
TORSDOF 7
ENDMDL
MODEL 5
REMARK VINA RESULT: -6.980770986      2.158      4.958
REMARK  7 active torsions:
REMARK  status: ('A' for Active; 'I' for Inactive)
REMARK    1  A    between atoms: C2_2  and  C3_3 
REMARK    2  A    between atoms: C3_3  and  C4_4 
REMARK    3  A    between atoms: C4_4  and  C5_5 
REMARK    4  A    between atoms: C5_5  and  C6_6 
REMARK    5  A    between atoms: C6_6  and  N1_7 
REMARK       I    between atoms: N1_7  and  C7_9 
REMARK    6  A    between atoms: C7_9  and  O2_11 
REMARK    7  A    between atoms: C13_17  and  O3_18 
ROOT
HETATM    1  C5  UNL     1      80.595   5.877  26.915  1.00  0.00     0.044 C 
HETATM    2  C9  UNL     1      79.524   6.835  27.155  1.00  0.00     0.073 C 
HETATM    3  C10 UNL     1      79.498   8.241  26.911  1.00  0.00    -0.006 C 
HETATM    4  C11 UNL     1      80.307   9.265  27.566  1.00  0.00     0.010 C 
HETATM    5  C12 UNL     1      78.118   8.499  27.637  1.00  0.00     0.042 C 
HETATM    6  C13 UNL     1      78.557   7.928  29.003  1.00  0.00     0.184 C 
HETATM    7  C14 UNL     1      79.432   6.811  28.705  1.00  0.00     0.231 C 
HETATM    8  O4  UNL     1      79.099   5.587  29.166  1.00  0.00    -0.194 OA
HETATM    9  O5  UNL     1      80.159   4.841  28.963  1.00  0.00    -0.197 OA
HETATM   10  C15 UNL     1      81.094   5.644  28.299  1.00  0.00     0.206 C 
HETATM   11  C16 UNL     1      82.422   5.122  28.516  1.00  0.00     0.083 C 
HETATM   12  O6  UNL     1      80.785   6.860  28.965  1.00  0.00    -0.310 OA
ENDROOT
BRANCH   1  13
HETATM   13  C4  UNL     1      81.532   6.048  25.829  1.00  0.00     0.017 C 
BRANCH  13  14
HETATM   14  C3  UNL     1      81.815   5.088  24.765  1.00  0.00     0.001 C 
BRANCH  14  15
HETATM   15  C2  UNL     1      83.366   5.024  24.669  1.00  0.00    -0.005 C 
HETATM   16  C1  UNL     1      83.803   4.620  23.279  1.00  0.00     0.005 C 
ENDBRANCH  14  15
ENDBRANCH  13  14
ENDBRANCH   1  13
BRANCH   1  17
HETATM   17  C6  UNL     1      79.868   4.544  26.557  1.00  0.00     0.140 C 
BRANCH  17  18
HETATM   18  N1  UNL     1      78.478   4.836  26.242  1.00  0.00    -0.336 N 
HETATM   19  C7  UNL     1      77.978   4.395  24.966  1.00  0.00     0.360 C 
HETATM   20  O1  UNL     1      78.716   3.784  24.162  1.00  0.00    -0.239 OA
ATOM     21  H1  UNL     1      77.881   5.334  26.901  1.00  0.00     0.164 HD
BRANCH  19  22
HETATM   22  O2  UNL     1      76.661   4.666  24.656  1.00  0.00    -0.309 OA
HETATM   23  C8  UNL     1      76.315   5.676  23.701  1.00  0.00     0.215 C 
ENDBRANCH  19  22
ENDBRANCH  17  18
ENDBRANCH   1  17
BRANCH   6  24
HETATM   24  O3  UNL     1      77.346   7.393  29.522  1.00  0.00    -0.390 OA
ATOM     25  H3  UNL     1      76.683   7.904  29.073  1.00  0.00     0.210 HD
ENDBRANCH   6  24
TORSDOF 7
ENDMDL
