MODEL 1
REMARK VINA RESULT: -6.902687214      0.000      0.000
REMARK  7 active torsions:
REMARK  status: ('A' for Active; 'I' for Inactive)
REMARK    1  A    between atoms: N1_7  and  C7_8 
REMARK    2  A    between atoms: C9_10  and  O1_11 
REMARK    3  A    between atoms: N2_13  and  C10_14 
REMARK    4  A    between atoms: C10_14  and  C11_15 
REMARK    5  A    between atoms: C11_15  and  C12_16 
REMARK    6  A    between atoms: C12_16  and  N3_17 
REMARK    7  A    between atoms: C17_23  and  O3_24 
ROOT
HETATM    1  C7  UNL     1      80.085   6.131  31.054  1.00  0.00     0.086 A 
HETATM    2  C8  UNL     1      78.721   5.832  30.942  1.00  0.00     0.089 A 
HETATM    3  C9  UNL     1      78.216   6.448  29.841  1.00  0.00     0.146 A 
HETATM    4  N2  UNL     1      79.222   7.127  29.257  1.00  0.00    -0.307 N 
HETATM    5  C17 UNL     1      80.348   6.946  29.974  1.00  0.00     0.171 A 
ENDROOT
BRANCH   4   6
HETATM    6  C10 UNL     1      79.115   7.922  28.052  1.00  0.00     0.135 C 
BRANCH   6   7
HETATM    7  C11 UNL     1      79.584   7.158  26.829  1.00  0.00     0.050 C 
BRANCH   7   8
HETATM    8  C12 UNL     1      78.373   6.811  26.025  1.00  0.00     0.274 C 
BRANCH   8   9
HETATM    9  N3  UNL     1      78.001   5.418  26.051  1.00  0.00     0.092 N 
HETATM   10  C13 UNL     1      77.209   5.183  24.842  1.00  0.00     0.298 C 
HETATM   11  C14 UNL     1      77.998   5.382  23.589  1.00  0.00     0.198 C 
HETATM   12  O2  UNL     1      79.213   4.691  23.628  1.00  0.00    -0.388 OA
HETATM   13  C15 UNL     1      79.243   3.825  24.693  1.00  0.00     0.198 C 
HETATM   14  C16 UNL     1      79.178   4.586  26.022  1.00  0.00     0.298 C 
ENDBRANCH   8   9
ENDBRANCH   7   8
ENDBRANCH   6   7
ENDBRANCH   4   6
BRANCH   3  15
HETATM   15  O1  UNL     1      76.878   6.358  29.434  1.00  0.00    -0.346 OA
ATOM     16  H1  UNL     1      76.468   6.950  28.815  1.00  0.00     0.219 HD
ENDBRANCH   3  15
BRANCH   5  17
HETATM   17  O3  UNL     1      81.553   7.501  29.650  1.00  0.00    -0.344 OA
ATOM     18  H3  UNL     1      82.012   7.412  28.822  1.00  0.00     0.219 HD
ENDBRANCH   5  17
BRANCH   1  19
HETATM   19  N1  UNL     1      80.938   5.667  32.071  1.00  0.00    -0.373 N 
HETATM   20  C2  UNL     1      81.432   6.613  33.069  1.00  0.00     0.080 C 
HETATM   21  C1  UNL     1      80.387   6.995  34.065  1.00  0.00     0.032 C 
HETATM   22  C3  UNL     1      82.672   6.078  33.767  1.00  0.00     0.025 C 
HETATM   23  C4  UNL     1      82.378   4.791  34.492  1.00  0.00     0.004 C 
HETATM   24  C5  UNL     1      81.416   3.933  33.737  1.00  0.00     0.020 C 
HETATM   25  C6  UNL     1      81.399   4.315  32.249  1.00  0.00     0.123 C 
ENDBRANCH   1  19
TORSDOF 7
ENDMDL
MODEL 2
REMARK VINA RESULT: -6.863289460      1.428      2.149
REMARK  7 active torsions:
REMARK  status: ('A' for Active; 'I' for Inactive)
REMARK    1  A    between atoms: N1_7  and  C7_8 
REMARK    2  A    between atoms: C9_10  and  O1_11 
REMARK    3  A    between atoms: N2_13  and  C10_14 
REMARK    4  A    between atoms: C10_14  and  C11_15 
REMARK    5  A    between atoms: C11_15  and  C12_16 
REMARK    6  A    between atoms: C12_16  and  N3_17 
REMARK    7  A    between atoms: C17_23  and  O3_24 
ROOT
HETATM    1  C7  UNL     1      80.365   5.744  31.813  1.00  0.00     0.086 A 
HETATM    2  C8  UNL     1      78.977   5.806  31.994  1.00  0.00     0.089 A 
HETATM    3  C9  UNL     1      78.357   5.486  30.828  1.00  0.00     0.146 A 
HETATM    4  N2  UNL     1      79.314   5.224  29.917  1.00  0.00    -0.307 N 
HETATM    5  C17 UNL     1      80.522   5.375  30.494  1.00  0.00     0.171 A 
ENDROOT
BRANCH   4   6
HETATM    6  C10 UNL     1      79.085   4.840  28.540  1.00  0.00     0.135 C 
BRANCH   6   7
HETATM    7  C11 UNL     1      78.993   6.046  27.627  1.00  0.00     0.050 C 
BRANCH   7   8
HETATM    8  C12 UNL     1      80.044   5.895  26.576  1.00  0.00     0.274 C 
BRANCH   8   9
HETATM    9  N3  UNL     1      79.640   6.282  25.247  1.00  0.00     0.092 N 
HETATM   10  C13 UNL     1      79.989   5.162  24.370  1.00  0.00     0.298 C 
HETATM   11  C14 UNL     1      79.226   3.918  24.694  1.00  0.00     0.198 C 
HETATM   12  O2  UNL     1      77.854   4.166  24.798  1.00  0.00    -0.388 OA
HETATM   13  C15 UNL     1      77.553   5.423  24.336  1.00  0.00     0.198 C 
HETATM   14  C16 UNL     1      78.215   6.500  25.201  1.00  0.00     0.298 C 
ENDBRANCH   8   9
ENDBRANCH   7   8
ENDBRANCH   6   7
ENDBRANCH   4   6
BRANCH   3  15
HETATM   15  O1  UNL     1      76.966   5.451  30.661  1.00  0.00    -0.346 OA
ATOM     16  H1  UNL     1      76.473   4.663  30.465  1.00  0.00     0.219 HD
ENDBRANCH   3  15
BRANCH   5  17
HETATM   17  O3  UNL     1      81.705   5.183  29.840  1.00  0.00    -0.344 OA
ATOM     18  H3  UNL     1      81.815   4.871  28.949  1.00  0.00     0.219 HD
ENDBRANCH   5  17
BRANCH   1  19
HETATM   19  N1  UNL     1      81.327   6.011  32.802  1.00  0.00    -0.373 N 
HETATM   20  C2  UNL     1      81.280   5.264  34.057  1.00  0.00     0.080 C 
HETATM   21  C1  UNL     1      81.763   3.859  33.909  1.00  0.00     0.032 C 
HETATM   22  C3  UNL     1      82.046   5.985  35.155  1.00  0.00     0.025 C 
HETATM   23  C4  UNL     1      83.500   6.141  34.793  1.00  0.00     0.004 C 
HETATM   24  C5  UNL     1      83.686   6.412  33.336  1.00  0.00     0.020 C 
HETATM   25  C6  UNL     1      82.396   6.972  32.718  1.00  0.00     0.123 C 
ENDBRANCH   1  19
TORSDOF 7
ENDMDL
MODEL 3
REMARK VINA RESULT: -6.817355273      1.015      1.072
REMARK  7 active torsions:
REMARK  status: ('A' for Active; 'I' for Inactive)
REMARK    1  A    between atoms: N1_7  and  C7_8 
REMARK    2  A    between atoms: C9_10  and  O1_11 
REMARK    3  A    between atoms: N2_13  and  C10_14 
REMARK    4  A    between atoms: C10_14  and  C11_15 
REMARK    5  A    between atoms: C11_15  and  C12_16 
REMARK    6  A    between atoms: C12_16  and  N3_17 
REMARK    7  A    between atoms: C17_23  and  O3_24 
ROOT
HETATM    1  C7  UNL     1      80.283   5.989  31.663  1.00  0.00     0.086 A 
HETATM    2  C8  UNL     1      79.063   5.319  31.828  1.00  0.00     0.089 A 
HETATM    3  C9  UNL     1      78.208   5.695  30.841  1.00  0.00     0.146 A 
HETATM    4  N2  UNL     1      78.852   6.583  30.060  1.00  0.00    -0.307 N 
HETATM    5  C17 UNL     1      80.097   6.768  30.541  1.00  0.00     0.171 A 
ENDROOT
BRANCH   4   6
HETATM    6  C10 UNL     1      78.300   7.233  28.890  1.00  0.00     0.135 C 
BRANCH   6   7
HETATM    7  C11 UNL     1      79.009   6.804  27.620  1.00  0.00     0.050 C 
BRANCH   7   8
HETATM    8  C12 UNL     1      78.064   5.943  26.847  1.00  0.00     0.274 C 
BRANCH   8   9
HETATM    9  N3  UNL     1      78.599   4.671  26.428  1.00  0.00     0.092 N 
HETATM   10  C13 UNL     1      78.019   4.396  25.112  1.00  0.00     0.298 C 
HETATM   11  C14 UNL     1      78.442   5.388  24.078  1.00  0.00     0.198 C 
HETATM   12  O2  UNL     1      79.828   5.570  24.074  1.00  0.00    -0.388 OA
HETATM   13  C15 UNL     1      80.444   4.615  24.844  1.00  0.00     0.198 C 
HETATM   14  C16 UNL     1      80.034   4.745  26.314  1.00  0.00     0.298 C 
ENDBRANCH   8   9
ENDBRANCH   7   8
ENDBRANCH   6   7
ENDBRANCH   4   6
BRANCH   3  15
HETATM   15  O1  UNL     1      76.899   5.213  30.710  1.00  0.00    -0.346 OA
ATOM     16  H1  UNL     1      76.517   4.547  31.271  1.00  0.00     0.219 HD
ENDBRANCH   3  15
BRANCH   5  17
HETATM   17  O3  UNL     1      81.012   7.610  29.976  1.00  0.00    -0.344 OA
ATOM     18  H3  UNL     1      81.321   8.433  30.336  1.00  0.00     0.219 HD
ENDBRANCH   5  17
BRANCH   1  19
HETATM   19  N1  UNL     1      81.407   5.849  32.495  1.00  0.00    -0.373 N 
HETATM   20  C2  UNL     1      81.764   6.943  33.395  1.00  0.00     0.080 C 
HETATM   21  C1  UNL     1      80.853   7.038  34.575  1.00  0.00     0.032 C 
HETATM   22  C3  UNL     1      83.213   6.838  33.841  1.00  0.00     0.025 C 
HETATM   23  C4  UNL     1      83.461   5.556  34.591  1.00  0.00     0.004 C 
HETATM   24  C5  UNL     1      82.685   4.415  34.019  1.00  0.00     0.020 C 
HETATM   25  C6  UNL     1      82.281   4.707  32.565  1.00  0.00     0.123 C 
ENDBRANCH   1  19
TORSDOF 7
ENDMDL
MODEL 4
REMARK VINA RESULT: -6.708939910      1.094      1.527
REMARK  7 active torsions:
REMARK  status: ('A' for Active; 'I' for Inactive)
REMARK    1  A    between atoms: N1_7  and  C7_8 
REMARK    2  A    between atoms: C9_10  and  O1_11 
REMARK    3  A    between atoms: N2_13  and  C10_14 
REMARK    4  A    between atoms: C10_14  and  C11_15 
REMARK    5  A    between atoms: C11_15  and  C12_16 
REMARK    6  A    between atoms: C12_16  and  N3_17 
REMARK    7  A    between atoms: C17_23  and  O3_24 
ROOT
HETATM    1  C7  UNL     1      80.299   5.993  31.650  1.00  0.00     0.086 A 
HETATM    2  C8  UNL     1      79.035   5.413  31.816  1.00  0.00     0.089 A 
HETATM    3  C9  UNL     1      78.240   5.760  30.770  1.00  0.00     0.146 A 
HETATM    4  N2  UNL     1      78.967   6.543  29.950  1.00  0.00    -0.307 N 
HETATM    5  C17 UNL     1      80.203   6.691  30.466  1.00  0.00     0.171 A 
ENDROOT
BRANCH   4   6
HETATM    6  C10 UNL     1      78.500   7.131  28.712  1.00  0.00     0.135 C 
BRANCH   6   7
HETATM    7  C11 UNL     1      78.361   6.095  27.614  1.00  0.00     0.050 C 
BRANCH   7   8
HETATM    8  C12 UNL     1      79.694   5.961  26.952  1.00  0.00     0.274 C 
BRANCH   8   9
HETATM    9  N3  UNL     1      79.747   6.424  25.587  1.00  0.00     0.092 N 
HETATM   10  C13 UNL     1      80.506   5.418  24.843  1.00  0.00     0.298 C 
HETATM   11  C14 UNL     1      79.821   4.091  24.806  1.00  0.00     0.198 C 
HETATM   12  O2  UNL     1      78.483   4.210  24.419  1.00  0.00    -0.388 OA
HETATM   13  C15 UNL     1      78.228   5.472  23.942  1.00  0.00     0.198 C 
HETATM   14  C16 UNL     1      78.417   6.523  25.040  1.00  0.00     0.298 C 
ENDBRANCH   8   9
ENDBRANCH   7   8
ENDBRANCH   6   7
ENDBRANCH   4   6
BRANCH   3  15
HETATM   15  O1  UNL     1      76.909   5.348  30.623  1.00  0.00    -0.346 OA
ATOM     16  H1  UNL     1      76.648   4.494  30.299  1.00  0.00     0.219 HD
ENDBRANCH   3  15
BRANCH   5  17
HETATM   17  O3  UNL     1      81.189   7.429  29.876  1.00  0.00    -0.344 OA
ATOM     18  H3  UNL     1      81.117   8.325  29.567  1.00  0.00     0.219 HD
ENDBRANCH   5  17
BRANCH   1  19
HETATM   19  N1  UNL     1      81.381   5.852  32.536  1.00  0.00    -0.373 N 
HETATM   20  C2  UNL     1      81.734   6.969  33.409  1.00  0.00     0.080 C 
HETATM   21  C1  UNL     1      80.777   7.138  34.543  1.00  0.00     0.032 C 
HETATM   22  C3  UNL     1      83.159   6.838  33.922  1.00  0.00     0.025 C 
HETATM   23  C4  UNL     1      83.334   5.579  34.731  1.00  0.00     0.004 C 
HETATM   24  C5  UNL     1      82.546   4.441  34.169  1.00  0.00     0.020 C 
HETATM   25  C6  UNL     1      82.215   4.687  32.689  1.00  0.00     0.123 C 
ENDBRANCH   1  19
TORSDOF 7
ENDMDL
MODEL 5
REMARK VINA RESULT: -6.651120431      1.854      2.622
REMARK  7 active torsions:
REMARK  status: ('A' for Active; 'I' for Inactive)
REMARK    1  A    between atoms: N1_7  and  C7_8 
REMARK    2  A    between atoms: C9_10  and  O1_11 
REMARK    3  A    between atoms: N2_13  and  C10_14 
REMARK    4  A    between atoms: C10_14  and  C11_15 
REMARK    5  A    between atoms: C11_15  and  C12_16 
REMARK    6  A    between atoms: C12_16  and  N3_17 
REMARK    7  A    between atoms: C17_23  and  O3_24 
ROOT
HETATM    1  C7  UNL     1      82.034   5.672  30.050  1.00  0.00     0.086 A 
HETATM    2  C8  UNL     1      82.950   5.062  29.183  1.00  0.00     0.089 A 
HETATM    3  C9  UNL     1      82.898   5.674  27.971  1.00  0.00     0.146 A 
HETATM    4  N2  UNL     1      81.975   6.653  28.049  1.00  0.00    -0.307 N 
HETATM    5  C17 UNL     1      81.450   6.662  29.290  1.00  0.00     0.171 A 
ENDROOT
BRANCH   4   6
HETATM    6  C10 UNL     1      81.606   7.552  26.976  1.00  0.00     0.135 C 
BRANCH   6   7
HETATM    7  C11 UNL     1      80.894   6.825  25.852  1.00  0.00     0.050 C 
BRANCH   7   8
HETATM    8  C12 UNL     1      79.455   6.703  26.237  1.00  0.00     0.274 C 
BRANCH   8   9
HETATM    9  N3  UNL     1      78.975   5.351  26.384  1.00  0.00     0.092 N 
HETATM   10  C13 UNL     1      77.710   5.285  25.650  1.00  0.00     0.298 C 
HETATM   11  C14 UNL     1      77.882   5.510  24.183  1.00  0.00     0.198 C 
HETATM   12  O2  UNL     1      78.901   4.711  23.654  1.00  0.00    -0.388 OA
HETATM   13  C15 UNL     1      79.297   3.765  24.566  1.00  0.00     0.198 C 
HETATM   14  C16 UNL     1      79.913   4.421  25.806  1.00  0.00     0.298 C 
ENDBRANCH   8   9
ENDBRANCH   7   8
ENDBRANCH   6   7
ENDBRANCH   4   6
BRANCH   3  15
HETATM   15  O1  UNL     1      83.686   5.310  26.872  1.00  0.00    -0.346 OA
ATOM     16  H1  UNL     1      83.371   5.283  25.976  1.00  0.00     0.219 HD
ENDBRANCH   3  15
BRANCH   5  17
HETATM   17  O3  UNL     1      80.484   7.537  29.699  1.00  0.00    -0.344 OA
ATOM     18  H3  UNL     1      80.534   8.485  29.677  1.00  0.00     0.219 HD
ENDBRANCH   5  17
BRANCH   1  19
HETATM   19  N1  UNL     1      81.813   5.305  31.389  1.00  0.00    -0.373 N 
HETATM   20  C2  UNL     1      82.935   5.323  32.324  1.00  0.00     0.080 C 
HETATM   21  C1  UNL     1      83.327   6.707  32.727  1.00  0.00     0.032 C 
HETATM   22  C3  UNL     1      82.646   4.468  33.547  1.00  0.00     0.025 C 
HETATM   23  C4  UNL     1      81.443   4.978  34.297  1.00  0.00     0.004 C 
HETATM   24  C5  UNL     1      80.386   5.491  33.374  1.00  0.00     0.020 C 
HETATM   25  C6  UNL     1      80.559   4.898  31.967  1.00  0.00     0.123 C 
ENDBRANCH   1  19
TORSDOF 7
ENDMDL
