MODEL 1
REMARK VINA RESULT: -7.429858276      0.000      0.000
REMARK  6 active torsions:
REMARK  status: ('A' for Active; 'I' for Inactive)
REMARK    1  A    between atoms: C2_2  and  O1_4 
REMARK    2  A    between atoms: O1_4  and  C4_5 
REMARK    3  A    between atoms: C8_12  and  N3_13 
REMARK    4  A    between atoms: N3_13  and  C9_15 
REMARK    5  A    between atoms: C9_15  and  C10_16 
REMARK    6  A    between atoms: N6_24  and  C15_25 
ROOT
HETATM    1  C4  UNL     1      80.124   6.139  30.730  1.00  0.00     0.169 A 
HETATM    2  C5  UNL     1      79.060   5.568  30.094  1.00  0.00     0.125 A 
HETATM    3  C6  UNL     1      77.782   5.213  30.627  1.00  0.00     0.106 C 
HETATM    4  N1  UNL     1      76.734   4.914  31.037  1.00  0.00    -0.191 NA
HETATM    5  C7  UNL     1      79.373   5.347  28.756  1.00  0.00     0.104 A 
HETATM    6  N2  UNL     1      78.696   4.819  27.700  1.00  0.00    -0.188 N 
ATOM      7  H2  UNL     1      77.741   4.486  27.831  1.00  0.00     0.184 HD
HETATM    8  C8  UNL     1      79.266   4.731  26.490  1.00  0.00     0.680 A 
HETATM    9  N4  UNL     1      80.512   5.163  26.307  1.00  0.00    -0.177 N 
ATOM     10  H4  UNL     1      80.941   5.094  25.384  1.00  0.00     0.185 HD
HETATM   11  C13 UNL     1      81.220   5.699  27.345  1.00  0.00     0.161 A 
HETATM   12  N5  UNL     1      82.542   6.158  27.142  1.00  0.00    -0.080 NA
HETATM   13  C14 UNL     1      80.663   5.808  28.618  1.00  0.00     0.108 A 
HETATM   14  N6  UNL     1      81.105   6.277  29.789  1.00  0.00    -0.317 N 
ENDROOT
BRANCH   1  15
HETATM   15  O1  UNL     1      80.263   6.516  31.995  1.00  0.00    -0.330 OA
BRANCH  15  16
HETATM   16  C2  UNL     1      80.170   6.006  33.239  1.00  0.00     0.122 C 
HETATM   17  C1  UNL     1      80.624   7.107  34.225  1.00  0.00     0.040 C 
HETATM   18  C3  UNL     1      81.016   4.756  33.477  1.00  0.00     0.040 C 
ENDBRANCH  15  16
ENDBRANCH   1  15
BRANCH  14  19
HETATM   19  C15 UNL     1      82.392   6.833  30.040  1.00  0.00     0.092 A 
HETATM   20  C16 UNL     1      82.509   8.317  29.853  1.00  0.00     0.028 A 
HETATM   21  C17 UNL     1      82.729   7.681  31.197  1.00  0.00     0.028 A 
ENDBRANCH  14  19
BRANCH   8  22
HETATM   22  N3  UNL     1      78.599   4.229  25.528  1.00  0.00    -0.226 N 
ATOM     23  H3  UNL     1      78.979   3.380  25.109  1.00  0.00     0.177 HD
BRANCH  22  24
HETATM   24  C9  UNL     1      77.380   4.718  24.967  1.00  0.00     0.142 C 
BRANCH  24  25
HETATM   25  C10 UNL     1      77.548   6.063  24.289  1.00  0.00     0.004 A 
HETATM   26  C11 UNL     1      77.557   6.028  22.765  1.00  0.00     0.007 A 
HETATM   27  C12 UNL     1      76.382   6.617  23.490  1.00  0.00     0.007 A 
ENDBRANCH  24  25
ENDBRANCH  22  24
ENDBRANCH   8  22
TORSDOF 6
ENDMDL
MODEL 2
REMARK VINA RESULT: -7.375448048      1.133      1.314
REMARK  6 active torsions:
REMARK  status: ('A' for Active; 'I' for Inactive)
REMARK    1  A    between atoms: C2_2  and  O1_4 
REMARK    2  A    between atoms: O1_4  and  C4_5 
REMARK    3  A    between atoms: C8_12  and  N3_13 
REMARK    4  A    between atoms: N3_13  and  C9_15 
REMARK    5  A    between atoms: C9_15  and  C10_16 
REMARK    6  A    between atoms: N6_24  and  C15_25 
ROOT
HETATM    1  C4  UNL     1      80.503   5.271  30.270  1.00  0.00     0.169 A 
HETATM    2  C5  UNL     1      79.231   5.373  29.785  1.00  0.00     0.125 A 
HETATM    3  C6  UNL     1      77.993   5.212  30.480  1.00  0.00     0.106 C 
HETATM    4  N1  UNL     1      76.971   5.086  31.023  1.00  0.00    -0.191 NA
HETATM    5  C7  UNL     1      79.267   5.677  28.428  1.00  0.00     0.104 A 
HETATM    6  N2  UNL     1      78.313   5.886  27.480  1.00  0.00    -0.188 N 
ATOM      7  H2  UNL     1      77.328   5.825  27.736  1.00  0.00     0.184 HD
HETATM    8  C8  UNL     1      78.650   6.172  26.214  1.00  0.00     0.680 A 
HETATM    9  N4  UNL     1      79.933   6.255  25.869  1.00  0.00    -0.177 N 
ATOM     10  H4  UNL     1      80.184   6.474  24.904  1.00  0.00     0.185 HD
HETATM   11  C13 UNL     1      80.916   6.052  26.795  1.00  0.00     0.161 A 
HETATM   12  N5  UNL     1      82.276   6.144  26.421  1.00  0.00    -0.080 NA
HETATM   13  C14 UNL     1      80.607   5.752  28.121  1.00  0.00     0.108 A 
HETATM   14  N6  UNL     1      81.337   5.511  29.214  1.00  0.00    -0.317 N 
ENDROOT
BRANCH   1  15
HETATM   15  O1  UNL     1      80.934   4.999  31.496  1.00  0.00    -0.330 OA
BRANCH  15  16
HETATM   16  C2  UNL     1      80.449   4.806  32.739  1.00  0.00     0.122 C 
HETATM   17  C1  UNL     1      80.151   6.199  33.339  1.00  0.00     0.040 C 
HETATM   18  C3  UNL     1      81.394   4.061  33.679  1.00  0.00     0.040 C 
ENDBRANCH  15  16
ENDBRANCH   1  15
BRANCH  14  19
HETATM   19  C15 UNL     1      82.759   5.499  29.289  1.00  0.00     0.092 A 
HETATM   20  C16 UNL     1      83.403   6.792  29.695  1.00  0.00     0.028 A 
HETATM   21  C17 UNL     1      83.535   5.556  30.541  1.00  0.00     0.028 A 
ENDBRANCH  14  19
BRANCH   8  22
HETATM   22  N3  UNL     1      77.727   6.360  25.356  1.00  0.00    -0.226 N 
ATOM     23  H3  UNL     1      77.212   7.238  25.433  1.00  0.00     0.177 HD
BRANCH  22  24
HETATM   24  C9  UNL     1      77.329   5.485  24.301  1.00  0.00     0.142 C 
BRANCH  24  25
HETATM   25  C10 UNL     1      76.953   6.230  23.036  1.00  0.00     0.004 A 
HETATM   26  C11 UNL     1      75.516   6.034  22.566  1.00  0.00     0.007 A 
HETATM   27  C12 UNL     1      75.939   7.355  23.138  1.00  0.00     0.007 A 
ENDBRANCH  24  25
ENDBRANCH  22  24
ENDBRANCH   8  22
TORSDOF 6
ENDMDL
MODEL 3
REMARK VINA RESULT: -7.321455146      1.797      2.692
REMARK  6 active torsions:
REMARK  status: ('A' for Active; 'I' for Inactive)
REMARK    1  A    between atoms: C2_2  and  O1_4 
REMARK    2  A    between atoms: O1_4  and  C4_5 
REMARK    3  A    between atoms: C8_12  and  N3_13 
REMARK    4  A    between atoms: N3_13  and  C9_15 
REMARK    5  A    between atoms: C9_15  and  C10_16 
REMARK    6  A    between atoms: N6_24  and  C15_25 
ROOT
HETATM    1  C4  UNL     1      80.517   5.809  28.509  1.00  0.00     0.169 A 
HETATM    2  C5  UNL     1      79.166   5.782  28.316  1.00  0.00     0.125 A 
HETATM    3  C6  UNL     1      78.120   5.928  29.280  1.00  0.00     0.106 C 
HETATM    4  N1  UNL     1      77.251   6.044  30.045  1.00  0.00    -0.191 NA
HETATM    5  C7  UNL     1      78.885   5.581  26.968  1.00  0.00     0.104 A 
HETATM    6  N2  UNL     1      77.737   5.475  26.246  1.00  0.00    -0.188 N 
ATOM      7  H2  UNL     1      76.837   5.548  26.720  1.00  0.00     0.184 HD
HETATM    8  C8  UNL     1      77.772   5.277  24.921  1.00  0.00     0.680 A 
HETATM    9  N4  UNL     1      78.941   5.182  24.292  1.00  0.00    -0.177 N 
ATOM     10  H4  UNL     1      78.963   5.032  23.282  1.00  0.00     0.185 HD
HETATM   11  C13 UNL     1      80.113   5.284  24.986  1.00  0.00     0.161 A 
HETATM   12  N5  UNL     1      81.352   5.183  24.310  1.00  0.00    -0.080 NA
HETATM   13  C14 UNL     1      80.120   5.489  26.364  1.00  0.00     0.108 A 
HETATM   14  N6  UNL     1      81.084   5.624  27.280  1.00  0.00    -0.317 N 
ENDROOT
BRANCH   1  15
HETATM   15  O1  UNL     1      81.220   5.976  29.623  1.00  0.00    -0.330 OA
BRANCH  15  16
HETATM   16  C2  UNL     1      81.432   5.370  30.808  1.00  0.00     0.122 C 
HETATM   17  C1  UNL     1      80.573   6.105  31.863  1.00  0.00     0.040 C 
HETATM   18  C3  UNL     1      82.888   5.376  31.272  1.00  0.00     0.040 C 
ENDBRANCH  15  16
ENDBRANCH   1  15
BRANCH  14  19
HETATM   19  C15 UNL     1      82.487   5.584  27.035  1.00  0.00     0.092 A 
HETATM   20  C16 UNL     1      83.101   6.861  26.542  1.00  0.00     0.028 A 
HETATM   21  C17 UNL     1      83.503   6.262  27.861  1.00  0.00     0.028 A 
ENDBRANCH  14  19
BRANCH   8  22
HETATM   22  N3  UNL     1      76.674   5.184  24.281  1.00  0.00    -0.226 N 
ATOM     23  H3  UNL     1      76.092   4.375  24.499  1.00  0.00     0.177 HD
BRANCH  22  24
HETATM   24  C9  UNL     1      76.164   6.080  23.294  1.00  0.00     0.142 C 
BRANCH  24  25
HETATM   25  C10 UNL     1      74.835   5.626  22.725  1.00  0.00     0.004 A 
HETATM   26  C11 UNL     1      74.118   6.647  21.849  1.00  0.00     0.007 A 
HETATM   27  C12 UNL     1      74.726   5.426  21.224  1.00  0.00     0.007 A 
ENDBRANCH  24  25
ENDBRANCH  22  24
ENDBRANCH   8  22
TORSDOF 6
ENDMDL
MODEL 4
REMARK VINA RESULT: -7.231864638      1.651      3.729
REMARK  6 active torsions:
REMARK  status: ('A' for Active; 'I' for Inactive)
REMARK    1  A    between atoms: C2_2  and  O1_4 
REMARK    2  A    between atoms: O1_4  and  C4_5 
REMARK    3  A    between atoms: C8_12  and  N3_13 
REMARK    4  A    between atoms: N3_13  and  C9_15 
REMARK    5  A    between atoms: C9_15  and  C10_16 
REMARK    6  A    between atoms: N6_24  and  C15_25 
ROOT
HETATM    1  C4  UNL     1      81.898   5.496  29.558  1.00  0.00     0.169 A 
HETATM    2  C5  UNL     1      81.851   5.622  28.199  1.00  0.00     0.125 A 
HETATM    3  C6  UNL     1      82.915   5.509  27.252  1.00  0.00     0.106 C 
HETATM    4  N1  UNL     1      83.764   5.423  26.460  1.00  0.00    -0.191 NA
HETATM    5  C7  UNL     1      80.547   5.894  27.796  1.00  0.00     0.104 A 
HETATM    6  N2  UNL     1      79.955   6.105  26.589  1.00  0.00    -0.188 N 
ATOM      7  H2  UNL     1      80.519   6.074  25.740  1.00  0.00     0.184 HD
HETATM    8  C8  UNL     1      78.640   6.352  26.500  1.00  0.00     0.680 A 
HETATM    9  N4  UNL     1      77.894   6.393  27.602  1.00  0.00    -0.177 N 
ATOM     10  H4  UNL     1      76.893   6.580  27.529  1.00  0.00     0.185 HD
HETATM   11  C13 UNL     1      78.456   6.185  28.829  1.00  0.00     0.161 A 
HETATM   12  N5  UNL     1      77.656   6.228  29.995  1.00  0.00    -0.080 NA
HETATM   13  C14 UNL     1      79.819   5.927  28.964  1.00  0.00     0.108 A 
HETATM   14  N6  UNL     1      80.622   5.691  30.006  1.00  0.00    -0.317 N 
ENDROOT
BRANCH   1  15
HETATM   15  O1  UNL     1      82.925   5.239  30.359  1.00  0.00    -0.330 OA
BRANCH  15  16
HETATM   16  C2  UNL     1      84.031   5.840  30.842  1.00  0.00     0.122 C 
HETATM   17  C1  UNL     1      83.736   7.355  30.923  1.00  0.00     0.040 C 
HETATM   18  C3  UNL     1      85.287   5.630  29.998  1.00  0.00     0.040 C 
ENDBRANCH  15  16
ENDBRANCH   1  15
BRANCH  14  19
HETATM   19  C15 UNL     1      80.232   5.646  31.375  1.00  0.00     0.092 A 
HETATM   20  C16 UNL     1      79.631   4.353  31.841  1.00  0.00     0.028 A 
HETATM   21  C17 UNL     1      80.919   4.866  32.419  1.00  0.00     0.028 A 
ENDBRANCH  14  19
BRANCH   8  22
HETATM   22  N3  UNL     1      78.124   6.544  25.352  1.00  0.00    -0.226 N 
ATOM     23  H3  UNL     1      78.281   7.462  24.934  1.00  0.00     0.177 HD
BRANCH  22  24
HETATM   24  C9  UNL     1      77.351   5.624  24.581  1.00  0.00     0.142 C 
BRANCH  24  25
HETATM   25  C10 UNL     1      76.986   6.170  23.215  1.00  0.00     0.004 A 
HETATM   26  C11 UNL     1      75.534   5.966  22.798  1.00  0.00     0.007 A 
HETATM   27  C12 UNL     1      76.025   7.342  23.142  1.00  0.00     0.007 A 
ENDBRANCH  24  25
ENDBRANCH  22  24
ENDBRANCH   8  22
TORSDOF 6
ENDMDL
MODEL 5
REMARK VINA RESULT: -7.231712581      1.657      3.820
REMARK  6 active torsions:
REMARK  status: ('A' for Active; 'I' for Inactive)
REMARK    1  A    between atoms: C2_2  and  O1_4 
REMARK    2  A    between atoms: O1_4  and  C4_5 
REMARK    3  A    between atoms: C8_12  and  N3_13 
REMARK    4  A    between atoms: N3_13  and  C9_15 
REMARK    5  A    between atoms: C9_15  and  C10_16 
REMARK    6  A    between atoms: N6_24  and  C15_25 
ROOT
HETATM    1  C4  UNL     1      82.341   5.392  30.136  1.00  0.00     0.169 A 
HETATM    2  C5  UNL     1      82.014   5.490  28.814  1.00  0.00     0.125 A 
HETATM    3  C6  UNL     1      82.876   5.472  27.674  1.00  0.00     0.106 C 
HETATM    4  N1  UNL     1      83.557   5.462  26.730  1.00  0.00    -0.191 NA
HETATM    5  C7  UNL     1      80.635   5.620  28.678  1.00  0.00     0.104 A 
HETATM    6  N2  UNL     1      79.797   5.748  27.614  1.00  0.00    -0.188 N 
ATOM      7  H2  UNL     1      80.183   5.763  26.670  1.00  0.00     0.184 HD
HETATM    8  C8  UNL     1      78.473   5.856  27.788  1.00  0.00     0.680 A 
HETATM    9  N4  UNL     1      77.959   5.837  29.016  1.00  0.00    -0.177 N 
ATOM     10  H4  UNL     1      76.949   5.919  29.144  1.00  0.00     0.185 HD
HETATM   11  C13 UNL     1      78.770   5.709  30.107  1.00  0.00     0.161 A 
HETATM   12  N5  UNL     1      78.216   5.688  31.408  1.00  0.00    -0.080 NA
HETATM   13  C14 UNL     1      80.153   5.595  29.968  1.00  0.00     0.108 A 
HETATM   14  N6  UNL     1      81.166   5.460  30.829  1.00  0.00    -0.317 N 
ENDROOT
BRANCH   1  15
HETATM   15  O1  UNL     1      83.527   5.255  30.717  1.00  0.00    -0.330 OA
BRANCH  15  16
HETATM   16  C2  UNL     1      84.642   5.971  30.964  1.00  0.00     0.122 C 
HETATM   17  C1  UNL     1      84.241   7.464  30.969  1.00  0.00     0.040 C 
HETATM   18  C3  UNL     1      85.764   5.769  29.947  1.00  0.00     0.040 C 
ENDBRANCH  15  16
ENDBRANCH   1  15
BRANCH  14  19
HETATM   19  C15 UNL     1      81.060   5.397  32.248  1.00  0.00     0.092 A 
HETATM   20  C16 UNL     1      80.715   4.053  32.818  1.00  0.00     0.028 A 
HETATM   21  C17 UNL     1      82.025   4.720  33.133  1.00  0.00     0.028 A 
ENDBRANCH  14  19
BRANCH   8  22
HETATM   22  N3  UNL     1      77.723   5.976  26.765  1.00  0.00    -0.226 N 
ATOM     23  H3  UNL     1      76.866   6.514  26.894  1.00  0.00     0.177 HD
BRANCH  22  24
HETATM   24  C9  UNL     1      77.942   5.443  25.459  1.00  0.00     0.142 C 
BRANCH  24  25
HETATM   25  C10 UNL     1      77.846   6.498  24.375  1.00  0.00     0.004 A 
HETATM   26  C11 UNL     1      77.694   5.962  22.956  1.00  0.00     0.007 A 
HETATM   27  C12 UNL     1      76.534   6.640  23.625  1.00  0.00     0.007 A 
ENDBRANCH  24  25
ENDBRANCH  22  24
ENDBRANCH   8  22
TORSDOF 6
ENDMDL
