MODEL 1
REMARK VINA RESULT: -7.182282923      0.000      0.000
REMARK  8 active torsions:
REMARK  status: ('A' for Active; 'I' for Inactive)
REMARK    1  A    between atoms: C2_2  and  C4_4 
REMARK    2  A    between atoms: C4_4  and  C5_5 
REMARK    3  A    between atoms: C5_5  and  C7_7 
REMARK    4  A    between atoms: C7_7  and  C8_8 
REMARK    5  A    between atoms: C10_13  and  C11_14 
REMARK    6  A    between atoms: C11_14  and  C12_15 
REMARK    7  A    between atoms: C16_22  and  C17_23 
REMARK    8  A    between atoms: C23_33  and  O5_34 
ROOT
HETATM    1  C8  UNL     1       1.252  17.414  29.446  1.00  0.00     0.090 C 
HETATM    2  N1  UNL     1       0.696  17.159  28.160  1.00  0.00    -0.354 N 
ATOM      3  H1  UNL     1       1.207  16.483  27.591  1.00  0.00     0.162 HD
HETATM    4  C9  UNL     1      -0.448  17.698  27.562  1.00  0.00     0.240 C 
HETATM    5  O1  UNL     1      -0.305  17.976  26.311  1.00  0.00    -0.271 OA
HETATM    6  C10 UNL     1      -1.761  17.991  28.133  1.00  0.00     0.177 C 
HETATM    7  N2  UNL     1      -1.746  18.727  29.381  1.00  0.00    -0.346 N 
ATOM      8  H2  UNL     1      -1.877  18.181  30.233  1.00  0.00     0.163 HD
HETATM    9  C15 UNL     1      -1.570  20.106  29.540  1.00  0.00     0.241 C 
HETATM   10  O2  UNL     1      -1.428  20.532  30.746  1.00  0.00    -0.271 OA
HETATM   11  C16 UNL     1      -1.526  21.153  28.497  1.00  0.00     0.180 C 
HETATM   12  N3  UNL     1      -0.545  22.139  28.957  1.00  0.00    -0.345 N 
ATOM     13  H3  UNL     1      -0.595  22.384  29.946  1.00  0.00     0.163 HD
HETATM   14  C20 UNL     1       0.447  22.786  28.223  1.00  0.00     0.250 C 
HETATM   15  O3  UNL     1       0.344  24.062  28.072  1.00  0.00    -0.271 OA
HETATM   16  C21 UNL     1       1.643  22.212  27.572  1.00  0.00     0.247 A 
HETATM   17  O4  UNL     1       1.871  22.381  26.217  1.00  0.00    -0.360 OA
HETATM   18  C22 UNL     1       1.605  21.051  26.839  1.00  0.00     0.215 A 
HETATM   19  C23 UNL     1       2.932  20.297  26.864  1.00  0.00     0.288 C 
HETATM   20  O6  UNL     1       2.808  18.976  27.185  1.00  0.00    -0.358 OA
HETATM   21  C24 UNL     1       3.240  18.635  28.470  1.00  0.00     0.177 C 
HETATM   22  C25 UNL     1       2.113  18.668  29.468  1.00  0.00     0.028 C 
HETATM   23  C26 UNL     1       2.572  18.882  30.886  1.00  0.00     0.014 C 
ENDROOT
BRANCH   1  24
HETATM   24  C7  UNL     1       2.024  16.319  30.098  1.00  0.00     0.029 C 
BRANCH  24  25
HETATM   25  C5  UNL     1       1.307  15.314  30.916  1.00  0.00    -0.016 C 
HETATM   26  C6  UNL     1       0.489  16.090  31.944  1.00  0.00     0.010 C 
BRANCH  25  27
HETATM   27  C4  UNL     1       2.034  14.147  31.430  1.00  0.00     0.008 C 
BRANCH  27  28
HETATM   28  C2  UNL     1       1.713  12.799  30.885  1.00  0.00    -0.023 C 
HETATM   29  C1  UNL     1       0.741  11.966  31.669  1.00  0.00     0.009 C 
HETATM   30  C3  UNL     1       1.081  12.960  29.490  1.00  0.00     0.009 C 
ENDBRANCH  27  28
ENDBRANCH  25  27
ENDBRANCH  24  25
ENDBRANCH   1  24
BRANCH   6  31
HETATM   31  C11 UNL     1      -2.721  16.865  28.270  1.00  0.00     0.038 C 
BRANCH  31  32
HETATM   32  C12 UNL     1      -2.855  16.200  29.595  1.00  0.00    -0.020 C 
HETATM   33  C13 UNL     1      -4.232  15.912  30.088  1.00  0.00     0.009 C 
HETATM   34  C14 UNL     1      -2.105  14.855  29.601  1.00  0.00     0.009 C 
ENDBRANCH  31  32
ENDBRANCH   6  31
BRANCH  19  35
HETATM   35  O5  UNL     1       3.853  20.990  27.615  1.00  0.00    -0.369 OA
ATOM     36  H5  UNL     1       3.605  21.904  27.672  1.00  0.00     0.212 HD
ENDBRANCH  19  35
BRANCH  11  37
HETATM   37  C17 UNL     1      -2.834  21.930  28.452  1.00  0.00     0.009 C 
HETATM   38  C18 UNL     1      -2.970  22.877  27.320  1.00  0.00     0.012 C 
HETATM   39  C19 UNL     1      -4.043  21.035  28.489  1.00  0.00     0.012 C 
ENDBRANCH  11  37
TORSDOF 8
ENDMDL
MODEL 2
REMARK VINA RESULT: -6.993751543      0.883      1.329
REMARK  8 active torsions:
REMARK  status: ('A' for Active; 'I' for Inactive)
REMARK    1  A    between atoms: C2_2  and  C4_4 
REMARK    2  A    between atoms: C4_4  and  C5_5 
REMARK    3  A    between atoms: C5_5  and  C7_7 
REMARK    4  A    between atoms: C7_7  and  C8_8 
REMARK    5  A    between atoms: C10_13  and  C11_14 
REMARK    6  A    between atoms: C11_14  and  C12_15 
REMARK    7  A    between atoms: C16_22  and  C17_23 
REMARK    8  A    between atoms: C23_33  and  O5_34 
ROOT
HETATM    1  C8  UNL     1       1.346  17.443  29.021  1.00  0.00     0.090 C 
HETATM    2  N1  UNL     1       0.735  17.314  27.740  1.00  0.00    -0.354 N 
ATOM      3  H1  UNL     1       1.228  16.709  27.082  1.00  0.00     0.162 HD
HETATM    4  C9  UNL     1      -0.441  17.894  27.253  1.00  0.00     0.240 C 
HETATM    5  O1  UNL     1      -0.358  18.304  26.033  1.00  0.00    -0.271 OA
HETATM    6  C10 UNL     1      -1.729  18.105  27.909  1.00  0.00     0.177 C 
HETATM    7  N2  UNL     1      -1.666  18.707  29.225  1.00  0.00    -0.346 N 
ATOM      8  H2  UNL     1      -1.752  18.074  30.021  1.00  0.00     0.163 HD
HETATM    9  C15 UNL     1      -1.498  20.065  29.521  1.00  0.00     0.241 C 
HETATM   10  O2  UNL     1      -1.306  20.365  30.757  1.00  0.00    -0.271 OA
HETATM   11  C16 UNL     1      -1.513  21.216  28.592  1.00  0.00     0.180 C 
HETATM   12  N3  UNL     1      -0.523  22.164  29.109  1.00  0.00    -0.345 N 
ATOM     13  H3  UNL     1      -0.531  22.304  30.120  1.00  0.00     0.163 HD
HETATM   14  C20 UNL     1       0.427  22.899  28.405  1.00  0.00     0.250 C 
HETATM   15  O3  UNL     1       0.303  24.183  28.392  1.00  0.00    -0.271 OA
HETATM   16  C21 UNL     1       1.599  22.415  27.645  1.00  0.00     0.247 A 
HETATM   17  O4  UNL     1       1.763  22.727  26.307  1.00  0.00    -0.360 OA
HETATM   18  C22 UNL     1       1.540  21.336  26.796  1.00  0.00     0.215 A 
HETATM   19  C23 UNL     1       2.876  20.604  26.684  1.00  0.00     0.288 C 
HETATM   20  O6  UNL     1       2.781  19.255  26.870  1.00  0.00    -0.358 OA
HETATM   21  C24 UNL     1       3.274  18.789  28.092  1.00  0.00     0.177 C 
HETATM   22  C25 UNL     1       2.194  18.700  29.136  1.00  0.00     0.028 C 
HETATM   23  C26 UNL     1       2.714  18.772  30.548  1.00  0.00     0.014 C 
ENDROOT
BRANCH   1  24
HETATM   24  C7  UNL     1       2.158  16.298  29.520  1.00  0.00     0.029 C 
BRANCH  24  25
HETATM   25  C5  UNL     1       1.488  15.192  30.242  1.00  0.00    -0.016 C 
HETATM   26  C6  UNL     1       1.948  15.277  31.694  1.00  0.00     0.010 C 
BRANCH  25  27
HETATM   27  C4  UNL     1       1.474  13.847  29.656  1.00  0.00     0.008 C 
BRANCH  27  28
HETATM   28  C2  UNL     1       0.395  12.898  30.049  1.00  0.00    -0.023 C 
HETATM   29  C1  UNL     1       0.622  12.097  31.298  1.00  0.00     0.009 C 
HETATM   30  C3  UNL     1      -0.901  13.691  30.301  1.00  0.00     0.009 C 
ENDBRANCH  27  28
ENDBRANCH  25  27
ENDBRANCH  24  25
ENDBRANCH   1  24
BRANCH   6  31
HETATM   31  C11 UNL     1      -2.670  16.956  27.970  1.00  0.00     0.038 C 
BRANCH  31  32
HETATM   32  C12 UNL     1      -3.798  16.907  27.000  1.00  0.00    -0.020 C 
HETATM   33  C13 UNL     1      -4.270  18.198  26.422  1.00  0.00     0.009 C 
HETATM   34  C14 UNL     1      -3.443  16.004  25.805  1.00  0.00     0.009 C 
ENDBRANCH  31  32
ENDBRANCH   6  31
BRANCH  19  35
HETATM   35  O5  UNL     1       3.822  21.230  27.462  1.00  0.00    -0.369 OA
ATOM     36  H5  UNL     1       3.941  22.126  27.173  1.00  0.00     0.212 HD
ENDBRANCH  19  35
BRANCH  11  37
HETATM   37  C17 UNL     1      -2.830  21.972  28.686  1.00  0.00     0.009 C 
HETATM   38  C18 UNL     1      -3.053  22.990  27.632  1.00  0.00     0.012 C 
HETATM   39  C19 UNL     1      -4.023  21.057  28.744  1.00  0.00     0.012 C 
ENDBRANCH  11  37
TORSDOF 8
ENDMDL
MODEL 3
REMARK VINA RESULT: -6.966014088      1.943      5.137
REMARK  8 active torsions:
REMARK  status: ('A' for Active; 'I' for Inactive)
REMARK    1  A    between atoms: C2_2  and  C4_4 
REMARK    2  A    between atoms: C4_4  and  C5_5 
REMARK    3  A    between atoms: C5_5  and  C7_7 
REMARK    4  A    between atoms: C7_7  and  C8_8 
REMARK    5  A    between atoms: C10_13  and  C11_14 
REMARK    6  A    between atoms: C11_14  and  C12_15 
REMARK    7  A    between atoms: C16_22  and  C17_23 
REMARK    8  A    between atoms: C23_33  and  O5_34 
ROOT
HETATM    1  C8  UNL     1      -1.700  17.581  26.879  1.00  0.00     0.090 C 
HETATM    2  N1  UNL     1      -2.060  17.993  28.195  1.00  0.00    -0.354 N 
ATOM      3  H1  UNL     1      -3.039  18.253  28.317  1.00  0.00     0.162 HD
HETATM    4  C9  UNL     1      -1.268  18.092  29.344  1.00  0.00     0.240 C 
HETATM    5  O1  UNL     1      -1.510  19.137  30.059  1.00  0.00    -0.271 OA
HETATM    6  C10 UNL     1      -0.222  17.205  29.847  1.00  0.00     0.177 C 
HETATM    7  N2  UNL     1       0.776  16.805  28.875  1.00  0.00    -0.346 N 
ATOM      8  H2  UNL     1       0.665  15.879  28.463  1.00  0.00     0.163 HD
HETATM    9  C15 UNL     1       1.875  17.557  28.442  1.00  0.00     0.241 C 
HETATM   10  O2  UNL     1       2.544  17.079  27.454  1.00  0.00    -0.271 OA
HETATM   11  C16 UNL     1       2.376  18.842  28.976  1.00  0.00     0.180 C 
HETATM   12  N3  UNL     1       2.867  19.594  27.819  1.00  0.00    -0.345 N 
ATOM     13  H3  UNL     1       3.410  19.059  27.141  1.00  0.00     0.163 HD
HETATM   14  C20 UNL     1       2.691  20.944  27.521  1.00  0.00     0.250 C 
HETATM   15  O3  UNL     1       3.737  21.697  27.516  1.00  0.00    -0.271 OA
HETATM   16  C21 UNL     1       1.444  21.667  27.196  1.00  0.00     0.247 A 
HETATM   17  O4  UNL     1       1.038  22.763  27.938  1.00  0.00    -0.360 OA
HETATM   18  C22 UNL     1       0.274  21.482  27.893  1.00  0.00     0.215 A 
HETATM   19  C23 UNL     1      -0.965  21.732  27.036  1.00  0.00     0.288 C 
HETATM   20  O6  UNL     1      -1.885  20.726  27.095  1.00  0.00    -0.358 OA
HETATM   21  C24 UNL     1      -1.956  19.920  25.955  1.00  0.00     0.177 C 
HETATM   22  C25 UNL     1      -1.074  18.706  26.070  1.00  0.00     0.028 C 
HETATM   23  C26 UNL     1      -0.659  18.135  24.739  1.00  0.00     0.014 C 
ENDROOT
BRANCH   1  24
HETATM   24  C7  UNL     1      -2.753  16.946  26.039  1.00  0.00     0.029 C 
BRANCH  24  25
HETATM   25  C5  UNL     1      -3.237  15.589  26.384  1.00  0.00    -0.016 C 
HETATM   26  C6  UNL     1      -3.776  14.977  25.095  1.00  0.00     0.010 C 
BRANCH  25  27
HETATM   27  C4  UNL     1      -4.070  15.399  27.577  1.00  0.00     0.008 C 
BRANCH  27  28
HETATM   28  C2  UNL     1      -3.535  14.595  28.711  1.00  0.00    -0.023 C 
HETATM   29  C1  UNL     1      -4.158  14.828  30.057  1.00  0.00     0.009 C 
HETATM   30  C3  UNL     1      -3.754  13.101  28.412  1.00  0.00     0.009 C 
ENDBRANCH  27  28
ENDBRANCH  25  27
ENDBRANCH  24  25
ENDBRANCH   1  24
BRANCH   6  31
HETATM   31  C11 UNL     1      -0.646  15.995  30.600  1.00  0.00     0.038 C 
BRANCH  31  32
HETATM   32  C12 UNL     1       0.211  14.780  30.537  1.00  0.00    -0.020 C 
HETATM   33  C13 UNL     1       1.279  14.632  31.566  1.00  0.00     0.009 C 
HETATM   34  C14 UNL     1      -0.652  13.507  30.625  1.00  0.00     0.009 C 
ENDBRANCH  31  32
ENDBRANCH   6  31
BRANCH  19  35
HETATM   35  O5  UNL     1      -0.592  22.101  25.765  1.00  0.00    -0.369 OA
ATOM     36  H5  UNL     1      -0.816  23.011  25.611  1.00  0.00     0.212 HD
ENDBRANCH  19  35
BRANCH  11  37
HETATM   37  C17 UNL     1       3.618  18.627  29.829  1.00  0.00     0.009 C 
HETATM   38  C18 UNL     1       3.904  19.699  30.812  1.00  0.00     0.012 C 
HETATM   39  C19 UNL     1       3.614  17.300  30.537  1.00  0.00     0.012 C 
ENDBRANCH  11  37
TORSDOF 8
ENDMDL
MODEL 4
REMARK VINA RESULT: -6.887183577      1.429      1.940
REMARK  8 active torsions:
REMARK  status: ('A' for Active; 'I' for Inactive)
REMARK    1  A    between atoms: C2_2  and  C4_4 
REMARK    2  A    between atoms: C4_4  and  C5_5 
REMARK    3  A    between atoms: C5_5  and  C7_7 
REMARK    4  A    between atoms: C7_7  and  C8_8 
REMARK    5  A    between atoms: C10_13  and  C11_14 
REMARK    6  A    between atoms: C11_14  and  C12_15 
REMARK    7  A    between atoms: C16_22  and  C17_23 
REMARK    8  A    between atoms: C23_33  and  O5_34 
ROOT
HETATM    1  C8  UNL     1       1.663  17.676  28.198  1.00  0.00     0.090 C 
HETATM    2  N1  UNL     1       1.054  17.816  26.917  1.00  0.00    -0.354 N 
ATOM      3  H1  UNL     1       1.574  17.405  26.141  1.00  0.00     0.162 HD
HETATM    4  C9  UNL     1      -0.151  18.433  26.568  1.00  0.00     0.240 C 
HETATM    5  O1  UNL     1      -0.094  19.117  25.476  1.00  0.00    -0.271 OA
HETATM    6  C10 UNL     1      -1.447  18.423  27.244  1.00  0.00     0.177 C 
HETATM    7  N2  UNL     1      -1.409  18.707  28.664  1.00  0.00    -0.346 N 
ATOM      8  H2  UNL     1      -1.460  17.904  29.291  1.00  0.00     0.163 HD
HETATM    9  C15 UNL     1      -1.310  19.967  29.266  1.00  0.00     0.241 C 
HETATM   10  O2  UNL     1      -1.128  19.982  30.539  1.00  0.00    -0.271 OA
HETATM   11  C16 UNL     1      -1.386  21.298  28.628  1.00  0.00     0.180 C 
HETATM   12  N3  UNL     1      -0.444  22.150  29.358  1.00  0.00    -0.345 N 
ATOM     13  H3  UNL     1      -0.454  22.052  30.373  1.00  0.00     0.163 HD
HETATM   14  C20 UNL     1       0.466  23.075  28.850  1.00  0.00     0.250 C 
HETATM   15  O3  UNL     1       0.277  24.318  29.133  1.00  0.00    -0.271 OA
HETATM   16  C21 UNL     1       1.658  22.838  28.009  1.00  0.00     0.247 A 
HETATM   17  O4  UNL     1       1.801  23.459  26.780  1.00  0.00    -0.360 OA
HETATM   18  C22 UNL     1       1.651  21.983  26.933  1.00  0.00     0.215 A 
HETATM   19  C23 UNL     1       3.021  21.365  26.666  1.00  0.00     0.288 C 
HETATM   20  O6  UNL     1       2.995  20.006  26.535  1.00  0.00    -0.358 OA
HETATM   21  C24 UNL     1       3.516  19.295  27.621  1.00  0.00     0.177 C 
HETATM   22  C25 UNL     1       2.445  18.914  28.607  1.00  0.00     0.028 C 
HETATM   23  C26 UNL     1       2.966  18.684  30.002  1.00  0.00     0.014 C 
ENDROOT
BRANCH   1  24
HETATM   24  C7  UNL     1       2.533  16.489  28.426  1.00  0.00     0.029 C 
BRANCH  24  25
HETATM   25  C5  UNL     1       2.047  15.386  29.286  1.00  0.00    -0.016 C 
HETATM   26  C6  UNL     1       0.575  15.669  29.569  1.00  0.00     0.010 C 
BRANCH  25  27
HETATM   27  C4  UNL     1       2.847  14.960  30.440  1.00  0.00     0.008 C 
BRANCH  27  28
HETATM   28  C2  UNL     1       2.190  14.187  31.530  1.00  0.00    -0.023 C 
HETATM   29  C1  UNL     1       2.120  12.698  31.354  1.00  0.00     0.009 C 
HETATM   30  C3  UNL     1       2.968  14.408  32.840  1.00  0.00     0.009 C 
ENDBRANCH  27  28
ENDBRANCH  25  27
ENDBRANCH  24  25
ENDBRANCH   1  24
BRANCH   6  31
HETATM   31  C11 UNL     1      -2.328  17.245  27.030  1.00  0.00     0.038 C 
BRANCH  31  32
HETATM   32  C12 UNL     1      -2.823  16.966  25.654  1.00  0.00    -0.020 C 
HETATM   33  C13 UNL     1      -3.662  15.750  25.455  1.00  0.00     0.009 C 
HETATM   34  C14 UNL     1      -3.653  18.153  25.131  1.00  0.00     0.009 C 
ENDBRANCH  31  32
ENDBRANCH   6  31
BRANCH  19  35
HETATM   35  O5  UNL     1       3.938  21.840  27.575  1.00  0.00    -0.369 OA
ATOM     36  H5  UNL     1       3.974  21.267  28.331  1.00  0.00     0.212 HD
ENDBRANCH  19  35
BRANCH  11  37
HETATM   37  C17 UNL     1      -2.739  21.945  28.883  1.00  0.00     0.009 C 
HETATM   38  C18 UNL     1      -2.974  23.225  28.173  1.00  0.00     0.012 C 
HETATM   39  C19 UNL     1      -3.890  21.015  28.609  1.00  0.00     0.012 C 
ENDBRANCH  11  37
TORSDOF 8
ENDMDL
MODEL 5
REMARK VINA RESULT: -6.819411685      2.484      5.502
REMARK  8 active torsions:
REMARK  status: ('A' for Active; 'I' for Inactive)
REMARK    1  A    between atoms: C2_2  and  C4_4 
REMARK    2  A    between atoms: C4_4  and  C5_5 
REMARK    3  A    between atoms: C5_5  and  C7_7 
REMARK    4  A    between atoms: C7_7  and  C8_8 
REMARK    5  A    between atoms: C10_13  and  C11_14 
REMARK    6  A    between atoms: C11_14  and  C12_15 
REMARK    7  A    between atoms: C16_22  and  C17_23 
REMARK    8  A    between atoms: C23_33  and  O5_34 
ROOT
HETATM    1  C8  UNL     1       2.581  19.050  29.741  1.00  0.00     0.090 C 
HETATM    2  N1  UNL     1       3.144  17.986  28.979  1.00  0.00    -0.354 N 
ATOM      3  H1  UNL     1       3.970  18.231  28.433  1.00  0.00     0.162 HD
HETATM    4  C9  UNL     1       2.729  16.654  28.870  1.00  0.00     0.240 C 
HETATM    5  O1  UNL     1       2.801  16.179  27.673  1.00  0.00    -0.271 OA
HETATM    6  C10 UNL     1       2.231  15.735  29.891  1.00  0.00     0.177 C 
HETATM    7  N2  UNL     1       1.191  16.263  30.749  1.00  0.00    -0.346 N 
ATOM      8  H2  UNL     1       1.483  16.587  31.672  1.00  0.00     0.163 HD
HETATM    9  C15 UNL     1      -0.171  16.377  30.447  1.00  0.00     0.241 C 
HETATM   10  O2  UNL     1      -0.895  17.024  31.290  1.00  0.00    -0.271 OA
HETATM   11  C16 UNL     1      -0.898  15.845  29.274  1.00  0.00     0.180 C 
HETATM   12  N3  UNL     1      -1.923  16.841  28.951  1.00  0.00    -0.345 N 
ATOM     13  H3  UNL     1      -2.425  17.234  29.747  1.00  0.00     0.163 HD
HETATM   14  C20 UNL     1      -2.302  17.323  27.700  1.00  0.00     0.250 C 
HETATM   15  O3  UNL     1      -3.495  17.055  27.291  1.00  0.00    -0.271 OA
HETATM   16  C21 UNL     1      -1.519  18.127  26.738  1.00  0.00     0.247 A 
HETATM   17  O4  UNL     1      -1.308  17.687  25.442  1.00  0.00    -0.360 OA
HETATM   18  C22 UNL     1      -0.207  17.851  26.435  1.00  0.00     0.215 A 
HETATM   19  C23 UNL     1       0.576  19.098  26.030  1.00  0.00     0.288 C 
HETATM   20  O6  UNL     1       1.756  19.247  26.700  1.00  0.00    -0.358 OA
HETATM   21  C24 UNL     1       1.763  20.251  27.673  1.00  0.00     0.177 C 
HETATM   22  C25 UNL     1       1.411  19.715  29.034  1.00  0.00     0.028 C 
HETATM   23  C26 UNL     1       0.849  20.758  29.965  1.00  0.00     0.014 C 
ENDROOT
BRANCH   1  24
HETATM   24  C7  UNL     1       3.499  20.124  30.214  1.00  0.00     0.029 C 
BRANCH  24  25
HETATM   25  C5  UNL     1       4.206  19.959  31.505  1.00  0.00    -0.016 C 
HETATM   26  C6  UNL     1       5.424  20.875  31.456  1.00  0.00     0.010 C 
BRANCH  25  27
HETATM   27  C4  UNL     1       4.444  18.610  32.034  1.00  0.00     0.008 C 
BRANCH  27  28
HETATM   28  C2  UNL     1       4.042  18.302  33.434  1.00  0.00    -0.023 C 
HETATM   29  C1  UNL     1       4.206  19.402  34.442  1.00  0.00     0.009 C 
HETATM   30  C3  UNL     1       2.545  17.945  33.458  1.00  0.00     0.009 C 
ENDBRANCH  27  28
ENDBRANCH  25  27
ENDBRANCH  24  25
ENDBRANCH   1  24
BRANCH   6  31
HETATM   31  C11 UNL     1       3.233  15.045  30.745  1.00  0.00     0.038 C 
BRANCH  31  32
HETATM   32  C12 UNL     1       2.747  14.133  31.817  1.00  0.00    -0.020 C 
HETATM   33  C13 UNL     1       2.847  12.666  31.575  1.00  0.00     0.009 C 
HETATM   34  C14 UNL     1       3.497  14.405  33.135  1.00  0.00     0.009 C 
ENDBRANCH  31  32
ENDBRANCH   6  31
BRANCH  19  35
HETATM   35  O5  UNL     1      -0.246  20.200  26.056  1.00  0.00    -0.369 OA
ATOM     36  H5  UNL     1      -0.436  20.486  25.170  1.00  0.00     0.212 HD
ENDBRANCH  19  35
BRANCH  11  37
HETATM   37  C17 UNL     1      -1.697  14.605  29.647  1.00  0.00     0.009 C 
HETATM   38  C18 UNL     1      -0.961  13.594  30.443  1.00  0.00     0.012 C 
HETATM   39  C19 UNL     1      -2.989  14.933  30.345  1.00  0.00     0.012 C 
ENDBRANCH  11  37
TORSDOF 8
ENDMDL
