MODEL 1
REMARK VINA RESULT: -8.739795729      0.000      0.000
REMARK  7 active torsions:
REMARK  status: ('A' for Active; 'I' for Inactive)
REMARK    1  A    between atoms: C6_6  and  C7_7 
REMARK    2  A    between atoms: C7_7  and  S1_8 
REMARK    3  A    between atoms: S1_8  and  N1_11 
REMARK    4  A    between atoms: N1_11  and  C8_13 
REMARK       I    between atoms: N2_16  and  C11_17 
REMARK    5  A    between atoms: C11_17  and  C12_19 
REMARK    6  A    between atoms: C15_22  and  N3_23 
REMARK    7  A    between atoms: N3_23  and  C16_25 
ROOT
HETATM    1  C8  UNL     1       3.640  22.525  28.524  1.00  0.00     0.096 C 
HETATM    2  C9  UNL     1       4.525  21.895  29.542  1.00  0.00     0.045 C 
HETATM    3  C10 UNL     1       5.562  22.893  30.019  1.00  0.00     0.128 C 
HETATM    4  N2  UNL     1       6.403  23.191  28.872  1.00  0.00    -0.350 N 
HETATM    5  C11 UNL     1       7.823  23.208  28.903  1.00  0.00     0.250 C 
HETATM    6  O3  UNL     1       8.408  23.468  27.797  1.00  0.00    -0.271 OA
HETATM    7  C20 UNL     1       5.693  23.481  27.639  1.00  0.00     0.128 C 
HETATM    8  C21 UNL     1       4.267  23.812  28.028  1.00  0.00     0.045 C 
ENDROOT
BRANCH   1   9
HETATM    9  N1  UNL     1       3.436  21.695  27.355  1.00  0.00    -0.315 N 
ATOM     10  H1  UNL     1       3.900  21.833  26.457  1.00  0.00     0.172 HD
BRANCH   9  11
HETATM   11  S1  UNL     1       2.272  20.408  27.698  1.00  0.00     0.227 S 
HETATM   12  O1  UNL     1       1.669  20.935  29.002  1.00  0.00    -0.206 OA
HETATM   13  O2  UNL     1       1.250  20.522  26.654  1.00  0.00    -0.206 OA
BRANCH  11  14
HETATM   14  C7  UNL     1       3.119  18.950  27.885  1.00  0.00     0.175 C 
BRANCH  14  15
HETATM   15  C6  UNL     1       2.751  17.848  28.748  1.00  0.00    -0.002 C 
HETATM   16  C2  UNL     1       1.397  17.519  29.191  1.00  0.00    -0.028 C 
HETATM   17  C1  UNL     1       0.245  17.465  28.239  1.00  0.00     0.016 C 
HETATM   18  C3  UNL     1       0.960  18.016  30.547  1.00  0.00     0.016 C 
HETATM   19  C4  UNL     1       1.871  16.055  29.360  1.00  0.00     0.056 C 
HETATM   20  C5  UNL     1       2.944  16.430  28.336  1.00  0.00     0.025 C 
HETATM   21  C23 UNL     1       2.505  15.929  30.670  1.00  0.00     0.078 C 
HETATM   22  N5  UNL     1       3.438  16.964  30.966  1.00  0.00    -0.383 N 
HETATM   23  S2  UNL     1       2.151  14.702  31.670  1.00  0.00    -0.065 SA
HETATM   24  C22 UNL     1       3.606  18.014  30.038  1.00  0.00     0.131 C 
ATOM     25  H5  UNL     1       3.975  16.948  31.833  1.00  0.00     0.160 HD
ENDBRANCH  14  15
ENDBRANCH  11  14
ENDBRANCH   9  11
ENDBRANCH   1   9
BRANCH   5  26
HETATM   26  C12 UNL     1       8.639  22.945  30.119  1.00  0.00     0.277 C 
HETATM   27  C13 UNL     1       8.865  24.196  30.878  1.00  0.00     0.045 C 
HETATM   28  C14 UNL     1      10.239  24.758  30.924  1.00  0.00     0.029 C 
HETATM   29  C15 UNL     1      11.374  23.808  30.834  1.00  0.00     0.102 C 
HETATM   30  C19 UNL     1      10.792  22.385  30.806  1.00  0.00     0.257 C 
HETATM   31  N4  UNL     1       9.868  22.304  29.685  1.00  0.00    -0.060 N 
ATOM     32  H42 UNL     1       9.729  21.352  29.344  1.00  0.00     0.278 HD
ATOM     33  H41 UNL     1      10.245  22.694  28.822  1.00  0.00     0.278 HD
BRANCH  29  34
HETATM   34  N3  UNL     1      12.269  23.956  29.752  1.00  0.00    -0.411 N 
ATOM     35  H3  UNL     1      11.968  23.716  28.808  1.00  0.00     0.154 HD
BRANCH  34  36
HETATM   36  C16 UNL     1      13.578  24.434  29.973  1.00  0.00     0.077 A 
HETATM   37  C17 UNL     1      14.555  23.714  30.833  1.00  0.00     0.027 A 
HETATM   38  C18 UNL     1      14.078  25.115  31.172  1.00  0.00     0.027 A 
ENDBRANCH  34  36
ENDBRANCH  29  34
ENDBRANCH   5  26
TORSDOF 7
ENDMDL
MODEL 2
REMARK VINA RESULT: -8.584820704      1.311      1.530
REMARK  7 active torsions:
REMARK  status: ('A' for Active; 'I' for Inactive)
REMARK    1  A    between atoms: C6_6  and  C7_7 
REMARK    2  A    between atoms: C7_7  and  S1_8 
REMARK    3  A    between atoms: S1_8  and  N1_11 
REMARK    4  A    between atoms: N1_11  and  C8_13 
REMARK       I    between atoms: N2_16  and  C11_17 
REMARK    5  A    between atoms: C11_17  and  C12_19 
REMARK    6  A    between atoms: C15_22  and  N3_23 
REMARK    7  A    between atoms: N3_23  and  C16_25 
ROOT
HETATM    1  C8  UNL     1       3.722  23.356  28.462  1.00  0.00     0.096 C 
HETATM    2  C9  UNL     1       4.442  22.615  29.534  1.00  0.00     0.045 C 
HETATM    3  C10 UNL     1       5.725  23.338  29.893  1.00  0.00     0.128 C 
HETATM    4  N2  UNL     1       6.572  23.281  28.713  1.00  0.00    -0.350 N 
HETATM    5  C11 UNL     1       7.945  22.917  28.731  1.00  0.00     0.250 C 
HETATM    6  O3  UNL     1       8.537  22.897  27.598  1.00  0.00    -0.271 OA
HETATM    7  C20 UNL     1       5.921  23.628  27.462  1.00  0.00     0.128 C 
HETATM    8  C21 UNL     1       4.652  24.369  27.826  1.00  0.00     0.045 C 
ENDROOT
BRANCH   1   9
HETATM    9  N1  UNL     1       3.259  22.499  27.390  1.00  0.00    -0.315 N 
ATOM     10  H1  UNL     1       3.855  22.112  26.659  1.00  0.00     0.172 HD
BRANCH   9  11
HETATM   11  S1  UNL     1       1.518  22.216  27.523  1.00  0.00     0.227 S 
HETATM   12  O1  UNL     1       1.064  23.585  28.035  1.00  0.00    -0.206 OA
HETATM   13  O2  UNL     1       1.042  22.076  26.144  1.00  0.00    -0.206 OA
BRANCH  11  14
HETATM   14  C7  UNL     1       1.258  20.959  28.631  1.00  0.00     0.175 C 
BRANCH  14  15
HETATM   15  C6  UNL     1       1.963  19.696  28.679  1.00  0.00    -0.002 C 
HETATM   16  C2  UNL     1       1.359  18.370  28.546  1.00  0.00    -0.028 C 
HETATM   17  C1  UNL     1       0.381  18.052  27.462  1.00  0.00     0.016 C 
HETATM   18  C3  UNL     1       1.035  17.617  29.812  1.00  0.00     0.016 C 
HETATM   19  C4  UNL     1       2.731  17.862  28.038  1.00  0.00     0.056 C 
HETATM   20  C5  UNL     1       2.973  19.322  27.650  1.00  0.00     0.025 C 
HETATM   21  C23 UNL     1       3.560  17.547  29.200  1.00  0.00     0.078 C 
HETATM   22  N5  UNL     1       3.560  18.558  30.203  1.00  0.00    -0.383 N 
HETATM   23  S2  UNL     1       4.392  16.158  29.297  1.00  0.00    -0.065 SA
HETATM   24  C22 UNL     1       2.739  19.692  30.028  1.00  0.00     0.131 C 
ATOM     25  H5  UNL     1       4.144  18.464  31.035  1.00  0.00     0.160 HD
ENDBRANCH  14  15
ENDBRANCH  11  14
ENDBRANCH   9  11
ENDBRANCH   1   9
BRANCH   5  26
HETATM   26  C12 UNL     1       8.706  22.566  29.960  1.00  0.00     0.277 C 
HETATM   27  C13 UNL     1       9.097  23.788  30.700  1.00  0.00     0.045 C 
HETATM   28  C14 UNL     1      10.535  24.153  30.752  1.00  0.00     0.029 C 
HETATM   29  C15 UNL     1      11.527  23.054  30.692  1.00  0.00     0.102 C 
HETATM   30  C19 UNL     1      10.753  21.725  30.682  1.00  0.00     0.257 C 
HETATM   31  N4  UNL     1       9.837  21.752  29.552  1.00  0.00    -0.060 N 
ATOM     32  H42 UNL     1       9.570  20.823  29.226  1.00  0.00     0.278 HD
ATOM     33  H41 UNL     1      10.272  22.070  28.686  1.00  0.00     0.278 HD
BRANCH  29  34
HETATM   34  N3  UNL     1      12.444  23.055  29.618  1.00  0.00    -0.411 N 
ATOM     35  H3  UNL     1      12.225  22.544  28.762  1.00  0.00     0.154 HD
BRANCH  34  36
HETATM   36  C16 UNL     1      13.662  23.759  29.724  1.00  0.00     0.077 A 
HETATM   37  C17 UNL     1      14.552  23.638  30.909  1.00  0.00     0.027 A 
HETATM   38  C18 UNL     1      13.918  24.963  30.522  1.00  0.00     0.027 A 
ENDBRANCH  34  36
ENDBRANCH  29  34
ENDBRANCH   5  26
TORSDOF 7
ENDMDL
MODEL 3
REMARK VINA RESULT: -8.578245953      0.866      1.323
REMARK  7 active torsions:
REMARK  status: ('A' for Active; 'I' for Inactive)
REMARK    1  A    between atoms: C6_6  and  C7_7 
REMARK    2  A    between atoms: C7_7  and  S1_8 
REMARK    3  A    between atoms: S1_8  and  N1_11 
REMARK    4  A    between atoms: N1_11  and  C8_13 
REMARK       I    between atoms: N2_16  and  C11_17 
REMARK    5  A    between atoms: C11_17  and  C12_19 
REMARK    6  A    between atoms: C15_22  and  N3_23 
REMARK    7  A    between atoms: N3_23  and  C16_25 
ROOT
HETATM    1  C8  UNL     1       3.677  22.518  28.561  1.00  0.00     0.096 C 
HETATM    2  C9  UNL     1       4.538  22.041  29.678  1.00  0.00     0.045 C 
HETATM    3  C10 UNL     1       5.581  23.089  30.013  1.00  0.00     0.128 C 
HETATM    4  N2  UNL     1       6.442  23.200  28.847  1.00  0.00    -0.350 N 
HETATM    5  C11 UNL     1       7.861  23.206  28.899  1.00  0.00     0.250 C 
HETATM    6  O3  UNL     1       8.466  23.288  27.775  1.00  0.00    -0.271 OA
HETATM    7  C20 UNL     1       5.753  23.306  27.573  1.00  0.00     0.128 C 
HETATM    8  C21 UNL     1       4.327  23.708  27.884  1.00  0.00     0.045 C 
ENDROOT
BRANCH   1   9
HETATM    9  N1  UNL     1       3.478  21.521  27.529  1.00  0.00    -0.315 N 
ATOM     10  H1  UNL     1       4.186  21.238  26.852  1.00  0.00     0.172 HD
BRANCH   9  11
HETATM   11  S1  UNL     1       1.838  20.862  27.604  1.00  0.00     0.227 S 
HETATM   12  O1  UNL     1       1.345  21.522  28.894  1.00  0.00    -0.206 OA
HETATM   13  O2  UNL     1       1.122  21.478  26.485  1.00  0.00    -0.206 OA
BRANCH  11  14
HETATM   14  C7  UNL     1       1.940  19.172  27.705  1.00  0.00     0.175 C 
BRANCH  14  15
HETATM   15  C6  UNL     1       2.267  18.400  28.885  1.00  0.00    -0.002 C 
HETATM   16  C2  UNL     1       2.681  16.997  28.905  1.00  0.00    -0.028 C 
HETATM   17  C1  UNL     1       3.729  16.468  27.980  1.00  0.00     0.016 C 
HETATM   18  C3  UNL     1       1.623  15.957  29.182  1.00  0.00     0.016 C 
HETATM   19  C4  UNL     1       3.408  17.292  30.240  1.00  0.00     0.056 C 
HETATM   20  C5  UNL     1       3.434  18.740  29.747  1.00  0.00     0.025 C 
HETATM   21  C23 UNL     1       2.432  17.190  31.323  1.00  0.00     0.078 C 
HETATM   22  N5  UNL     1       1.210  17.876  31.070  1.00  0.00    -0.383 N 
HETATM   23  S2  UNL     1       2.753  16.358  32.678  1.00  0.00    -0.065 SA
HETATM   24  C22 UNL     1       1.029  18.506  29.821  1.00  0.00     0.131 C 
ATOM     25  H5  UNL     1       0.478  17.911  31.780  1.00  0.00     0.160 HD
ENDBRANCH  14  15
ENDBRANCH  11  14
ENDBRANCH   9  11
ENDBRANCH   1   9
BRANCH   5  26
HETATM   26  C12 UNL     1       8.657  23.123  30.153  1.00  0.00     0.277 C 
HETATM   27  C13 UNL     1       8.802  24.461  30.770  1.00  0.00     0.045 C 
HETATM   28  C14 UNL     1      10.146  25.094  30.780  1.00  0.00     0.029 C 
HETATM   29  C15 UNL     1      11.327  24.200  30.822  1.00  0.00     0.102 C 
HETATM   30  C19 UNL     1      10.816  22.754  30.943  1.00  0.00     0.257 C 
HETATM   31  N4  UNL     1       9.927  22.501  29.820  1.00  0.00    -0.060 N 
ATOM     32  H42 UNL     1       9.843  21.511  29.586  1.00  0.00     0.278 HD
ATOM     33  H41 UNL     1      10.307  22.811  28.926  1.00  0.00     0.278 HD
BRANCH  29  34
HETATM   34  N3  UNL     1      12.242  24.271  29.750  1.00  0.00    -0.411 N 
ATOM     35  H3  UNL     1      11.915  24.139  28.793  1.00  0.00     0.154 HD
BRANCH  34  36
HETATM   36  C16 UNL     1      13.609  24.523  29.996  1.00  0.00     0.077 A 
HETATM   37  C17 UNL     1      14.459  23.597  30.792  1.00  0.00     0.027 A 
HETATM   38  C18 UNL     1      14.202  25.025  31.240  1.00  0.00     0.027 A 
ENDBRANCH  34  36
ENDBRANCH  29  34
ENDBRANCH   5  26
TORSDOF 7
ENDMDL
MODEL 4
REMARK VINA RESULT: -8.494429206      0.905      1.347
REMARK  7 active torsions:
REMARK  status: ('A' for Active; 'I' for Inactive)
REMARK    1  A    between atoms: C6_6  and  C7_7 
REMARK    2  A    between atoms: C7_7  and  S1_8 
REMARK    3  A    between atoms: S1_8  and  N1_11 
REMARK    4  A    between atoms: N1_11  and  C8_13 
REMARK       I    between atoms: N2_16  and  C11_17 
REMARK    5  A    between atoms: C11_17  and  C12_19 
REMARK    6  A    between atoms: C15_22  and  N3_23 
REMARK    7  A    between atoms: N3_23  and  C16_25 
ROOT
HETATM    1  C8  UNL     1       3.644  22.687  28.354  1.00  0.00     0.096 C 
HETATM    2  C9  UNL     1       4.467  21.977  29.372  1.00  0.00     0.045 C 
HETATM    3  C10 UNL     1       5.535  22.905  29.916  1.00  0.00     0.128 C 
HETATM    4  N2  UNL     1       6.423  23.206  28.805  1.00  0.00    -0.350 N 
HETATM    5  C11 UNL     1       7.840  23.153  28.877  1.00  0.00     0.250 C 
HETATM    6  O3  UNL     1       8.470  23.427  27.798  1.00  0.00    -0.271 OA
HETATM    7  C20 UNL     1       5.764  23.576  27.565  1.00  0.00     0.128 C 
HETATM    8  C21 UNL     1       4.345  23.960  27.926  1.00  0.00     0.045 C 
ENDROOT
BRANCH   1   9
HETATM    9  N1  UNL     1       3.436  21.912  27.149  1.00  0.00    -0.315 N 
ATOM     10  H1  UNL     1       3.876  22.108  26.250  1.00  0.00     0.172 HD
BRANCH   9  11
HETATM   11  S1  UNL     1       2.315  20.576  27.450  1.00  0.00     0.227 S 
HETATM   12  O1  UNL     1       1.612  21.097  28.705  1.00  0.00    -0.206 OA
HETATM   13  O2  UNL     1       1.353  20.623  26.346  1.00  0.00    -0.206 OA
BRANCH  11  14
HETATM   14  C7  UNL     1       3.217  19.164  27.716  1.00  0.00     0.175 C 
BRANCH  14  15
HETATM   15  C6  UNL     1       2.760  17.967  28.390  1.00  0.00    -0.002 C 
HETATM   16  C2  UNL     1       2.891  17.684  29.819  1.00  0.00    -0.028 C 
HETATM   17  C1  UNL     1       2.528  18.692  30.861  1.00  0.00     0.016 C 
HETATM   18  C3  UNL     1       4.056  16.836  30.263  1.00  0.00     0.016 C 
HETATM   19  C4  UNL     1       1.659  16.755  29.686  1.00  0.00     0.056 C 
HETATM   20  C5  UNL     1       1.316  17.612  28.467  1.00  0.00     0.025 C 
HETATM   21  C23 UNL     1       2.121  15.449  29.219  1.00  0.00     0.078 C 
HETATM   22  N5  UNL     1       3.023  15.512  28.119  1.00  0.00    -0.383 N 
HETATM   23  S2  UNL     1       1.624  14.073  29.920  1.00  0.00    -0.065 SA
HETATM   24  C22 UNL     1       3.430  16.777  27.644  1.00  0.00     0.131 C 
ATOM     25  H5  UNL     1       3.369  14.658  27.681  1.00  0.00     0.160 HD
ENDBRANCH  14  15
ENDBRANCH  11  14
ENDBRANCH   9  11
ENDBRANCH   1   9
BRANCH   5  26
HETATM   26  C12 UNL     1       8.607  22.807  30.104  1.00  0.00     0.277 C 
HETATM   27  C13 UNL     1       9.077  24.031  30.791  1.00  0.00     0.045 C 
HETATM   28  C14 UNL     1      10.534  24.322  30.802  1.00  0.00     0.029 C 
HETATM   29  C15 UNL     1      11.465  23.169  30.764  1.00  0.00     0.102 C 
HETATM   30  C19 UNL     1      10.623  21.884  30.817  1.00  0.00     0.257 C 
HETATM   31  N4  UNL     1       9.686  21.919  29.705  1.00  0.00    -0.060 N 
ATOM     32  H42 UNL     1       9.363  20.995  29.418  1.00  0.00     0.278 HD
ATOM     33  H41 UNL     1      10.119  22.183  28.820  1.00  0.00     0.278 HD
BRANCH  29  34
HETATM   34  N3  UNL     1      12.358  23.083  29.674  1.00  0.00    -0.411 N 
ATOM     35  H3  UNL     1      12.101  22.543  28.848  1.00  0.00     0.154 HD
BRANCH  34  36
HETATM   36  C16 UNL     1      13.605  23.742  29.723  1.00  0.00     0.077 A 
HETATM   37  C17 UNL     1      14.515  23.640  30.895  1.00  0.00     0.027 A 
HETATM   38  C18 UNL     1      13.926  24.969  30.458  1.00  0.00     0.027 A 
ENDBRANCH  34  36
ENDBRANCH  29  34
ENDBRANCH   5  26
TORSDOF 7
ENDMDL
MODEL 5
REMARK VINA RESULT: -8.406910410      1.259      1.634
REMARK  7 active torsions:
REMARK  status: ('A' for Active; 'I' for Inactive)
REMARK    1  A    between atoms: C6_6  and  C7_7 
REMARK    2  A    between atoms: C7_7  and  S1_8 
REMARK    3  A    between atoms: S1_8  and  N1_11 
REMARK    4  A    between atoms: N1_11  and  C8_13 
REMARK       I    between atoms: N2_16  and  C11_17 
REMARK    5  A    between atoms: C11_17  and  C12_19 
REMARK    6  A    between atoms: C15_22  and  N3_23 
REMARK    7  A    between atoms: N3_23  and  C16_25 
ROOT
HETATM    1  C8  UNL     1       3.729  23.049  28.470  1.00  0.00     0.096 C 
HETATM    2  C9  UNL     1       4.482  22.371  29.562  1.00  0.00     0.045 C 
HETATM    3  C10 UNL     1       5.721  23.169  29.912  1.00  0.00     0.128 C 
HETATM    4  N2  UNL     1       6.578  23.134  28.739  1.00  0.00    -0.350 N 
HETATM    5  C11 UNL     1       7.968  22.844  28.772  1.00  0.00     0.250 C 
HETATM    6  O3  UNL     1       8.568  22.833  27.643  1.00  0.00    -0.271 OA
HETATM    7  C20 UNL     1       5.917  23.419  27.477  1.00  0.00     0.128 C 
HETATM    8  C21 UNL     1       4.608  24.098  27.818  1.00  0.00     0.045 C 
ENDROOT
BRANCH   1   9
HETATM    9  N1  UNL     1       3.321  22.147  27.414  1.00  0.00    -0.315 N 
ATOM     10  H1  UNL     1       3.804  22.041  26.522  1.00  0.00     0.172 HD
BRANCH   9  11
HETATM   11  S1  UNL     1       1.868  21.253  27.882  1.00  0.00     0.227 S 
HETATM   12  O1  UNL     1       0.981  22.411  28.347  1.00  0.00    -0.206 OA
HETATM   13  O2  UNL     1       1.310  20.737  26.630  1.00  0.00    -0.206 OA
BRANCH  11  14
HETATM   14  C7  UNL     1       2.276  20.173  29.125  1.00  0.00     0.175 C 
BRANCH  14  15
HETATM   15  C6  UNL     1       1.626  18.914  29.418  1.00  0.00    -0.002 C 
HETATM   16  C2  UNL     1       1.476  17.790  28.494  1.00  0.00    -0.028 C 
HETATM   17  C1  UNL     1       2.620  17.278  27.679  1.00  0.00     0.016 C 
HETATM   18  C3  UNL     1       0.174  17.667  27.743  1.00  0.00     0.016 C 
HETATM   19  C4  UNL     1       1.393  16.862  29.730  1.00  0.00     0.056 C 
HETATM   20  C5  UNL     1       2.155  17.977  30.448  1.00  0.00     0.025 C 
HETATM   21  C23 UNL     1       0.012  16.863  30.210  1.00  0.00     0.078 C 
HETATM   22  N5  UNL     1      -0.564  18.161  30.317  1.00  0.00    -0.383 N 
HETATM   23  S2  UNL     1      -0.761  15.484  30.576  1.00  0.00    -0.065 SA
HETATM   24  C22 UNL     1       0.192  19.278  29.902  1.00  0.00     0.131 C 
ATOM     25  H5  UNL     1      -1.506  18.282  30.689  1.00  0.00     0.160 HD
ENDBRANCH  14  15
ENDBRANCH  11  14
ENDBRANCH   9  11
ENDBRANCH   1   9
BRANCH   5  26
HETATM   26  C12 UNL     1       8.739  22.561  30.012  1.00  0.00     0.277 C 
HETATM   27  C13 UNL     1       9.087  23.819  30.711  1.00  0.00     0.045 C 
HETATM   28  C14 UNL     1      10.512  24.235  30.751  1.00  0.00     0.029 C 
HETATM   29  C15 UNL     1      11.541  23.168  30.729  1.00  0.00     0.102 C 
HETATM   30  C19 UNL     1      10.812  21.814  30.762  1.00  0.00     0.257 C 
HETATM   31  N4  UNL     1       9.897  21.772  29.632  1.00  0.00    -0.060 N 
ATOM     32  H42 UNL     1       9.662  20.824  29.337  1.00  0.00     0.278 HD
ATOM     33  H41 UNL     1      10.323  22.076  28.756  1.00  0.00     0.278 HD
BRANCH  29  34
HETATM   34  N3  UNL     1      12.459  23.164  29.656  1.00  0.00    -0.411 N 
ATOM     35  H3  UNL     1      12.229  22.673  28.792  1.00  0.00     0.154 HD
BRANCH  34  36
HETATM   36  C16 UNL     1      13.693  23.837  29.774  1.00  0.00     0.077 A 
HETATM   37  C17 UNL     1      14.574  23.685  30.963  1.00  0.00     0.027 A 
HETATM   38  C18 UNL     1      13.975  25.027  30.584  1.00  0.00     0.027 A 
ENDBRANCH  34  36
ENDBRANCH  29  34
ENDBRANCH   5  26
TORSDOF 7
ENDMDL
