MODEL 1
REMARK VINA RESULT: -9.380597055      0.000      0.000
REMARK  12 active torsions:
REMARK  status: ('A' for Active; 'I' for Inactive)
REMARK    1  A    between atoms: C3_3  and  O1_4 
REMARK    2  A    between atoms: C3_3  and  C4_6 
REMARK    3  A    between atoms: C3_3  and  C22_28 
REMARK    4  A    between atoms: C5_7  and  C6_8 
REMARK       I    between atoms: C6_8  and  N1_10 
REMARK    5  A    between atoms: C12_16  and  C13_17 
REMARK    6  A    between atoms: C13_17  and  O3_18 
REMARK    7  A    between atoms: O3_18  and  C14_19 
REMARK    8  A    between atoms: C24_30  and  C25_31 
REMARK    9  A    between atoms: C25_31  and  C27_33 
REMARK   10  A    between atoms: C27_33  and  O5_34 
REMARK   11  A    between atoms: C27_33  and  C28_36 
REMARK   12  A    between atoms: C28_36  and  O6_38 
ROOT
HETATM    1  C1  UNL     1       5.053  25.243  29.929  1.00  0.00     0.016 C 
HETATM    2  C2  UNL     1       5.782  24.285  29.921  1.00  0.00    -0.065 C 
HETATM    3  C3  UNL     1       6.646  23.114  29.896  1.00  0.00     0.189 C 
ENDROOT
BRANCH   3   4
HETATM    4  O1  UNL     1       6.692  22.558  28.617  1.00  0.00    -0.367 OA
ATOM      5  H1  UNL     1       5.974  21.951  28.485  1.00  0.00     0.212 HD
ENDBRANCH   3   4
BRANCH   3   6
HETATM    6  C4  UNL     1       6.060  22.150  30.861  1.00  0.00    -0.044 C 
HETATM    7  C5  UNL     1       5.597  21.370  31.658  1.00  0.00    -0.001 C 
BRANCH   7   8
HETATM    8  C6  UNL     1       5.053  20.458  32.626  1.00  0.00     0.298 C 
HETATM    9  O2  UNL     1       5.258  20.745  33.849  1.00  0.00    -0.258 OA
HETATM   10  N1  UNL     1       4.336  19.314  32.257  1.00  0.00    -0.341 N 
HETATM   11  C7  UNL     1       4.133  19.036  30.867  1.00  0.00     0.129 C 
HETATM   12  C21 UNL     1       3.815  18.438  33.262  1.00  0.00     0.129 C 
HETATM   13  C8  UNL     1       4.021  17.563  30.568  1.00  0.00     0.058 C 
HETATM   14  C9  UNL     1       3.077  16.834  31.457  1.00  0.00     0.064 C 
HETATM   15  C10 UNL     1       3.565  15.439  31.803  1.00  0.00     0.041 C 
HETATM   16  O4  UNL     1       1.888  16.598  30.767  1.00  0.00    -0.373 OA
HETATM   17  C20 UNL     1       2.725  17.532  32.727  1.00  0.00     0.058 C 
HETATM   18  C11 UNL     1       2.258  14.738  32.121  1.00  0.00     0.037 C 
HETATM   19  C12 UNL     1       1.222  15.657  31.545  1.00  0.00     0.146 C 
BRANCH  19  20
HETATM   20  C13 UNL     1       0.237  14.949  30.647  1.00  0.00     0.200 C 
BRANCH  20  21
HETATM   21  O3  UNL     1      -0.520  15.875  29.960  1.00  0.00    -0.383 OA
BRANCH  21  22
HETATM   22  C14 UNL     1      -1.878  15.654  30.175  1.00  0.00     0.121 C 
HETATM   23  C15 UNL     1      -2.601  15.759  28.870  1.00  0.00     0.032 C 
HETATM   24  C16 UNL     1      -3.413  14.523  28.545  1.00  0.00     0.002 C 
HETATM   25  C17 UNL     1      -4.342  14.216  29.688  1.00  0.00     0.000 C 
HETATM   26  C18 UNL     1      -3.588  14.085  30.983  1.00  0.00     0.002 C 
HETATM   27  C19 UNL     1      -2.100  14.278  30.798  1.00  0.00     0.032 C 
ENDBRANCH  21  22
ENDBRANCH  20  21
ENDBRANCH  19  20
ENDBRANCH   7   8
ENDBRANCH   3   6
BRANCH   3  28
HETATM   28  C22 UNL     1       8.048  23.389  30.386  1.00  0.00     0.051 A 
HETATM   29  C23 UNL     1       9.049  22.277  30.421  1.00  0.00     0.015 A 
HETATM   30  C24 UNL     1       9.142  23.373  29.412  1.00  0.00     0.001 A 
BRANCH  30  31
HETATM   31  C25 UNL     1      10.252  24.386  29.426  1.00  0.00     0.017 C 
HETATM   32  C26 UNL     1       9.806  25.785  29.611  1.00  0.00     0.013 C 
BRANCH  31  33
HETATM   33  C27 UNL     1      11.253  23.957  30.464  1.00  0.00     0.150 C 
BRANCH  33  34
HETATM   34  O5  UNL     1      11.494  24.903  31.447  1.00  0.00    -0.393 OA
ATOM     35  H5  UNL     1      11.933  25.685  31.135  1.00  0.00     0.210 HD
ENDBRANCH  33  34
BRANCH  33  36
HETATM   36  C28 UNL     1      12.499  23.323  29.903  1.00  0.00     0.143 C 
HETATM   37  C29 UNL     1      13.741  24.164  30.093  1.00  0.00     0.042 C 
BRANCH  36  38
HETATM   38  O6  UNL     1      12.752  22.142  30.650  1.00  0.00    -0.393 OA
ATOM     39  H6  UNL     1      13.642  21.868  30.460  1.00  0.00     0.210 HD
ENDBRANCH  36  38
ENDBRANCH  33  36
ENDBRANCH  31  33
ENDBRANCH  30  31
ENDBRANCH   3  28
TORSDOF 12
ENDMDL
MODEL 2
REMARK VINA RESULT: -9.345627046      0.660      1.073
REMARK  12 active torsions:
REMARK  status: ('A' for Active; 'I' for Inactive)
REMARK    1  A    between atoms: C3_3  and  O1_4 
REMARK    2  A    between atoms: C3_3  and  C4_6 
REMARK    3  A    between atoms: C3_3  and  C22_28 
REMARK    4  A    between atoms: C5_7  and  C6_8 
REMARK       I    between atoms: C6_8  and  N1_10 
REMARK    5  A    between atoms: C12_16  and  C13_17 
REMARK    6  A    between atoms: C13_17  and  O3_18 
REMARK    7  A    between atoms: O3_18  and  C14_19 
REMARK    8  A    between atoms: C24_30  and  C25_31 
REMARK    9  A    between atoms: C25_31  and  C27_33 
REMARK   10  A    between atoms: C27_33  and  O5_34 
REMARK   11  A    between atoms: C27_33  and  C28_36 
REMARK   12  A    between atoms: C28_36  and  O6_38 
ROOT
HETATM    1  C1  UNL     1       4.250  25.150  29.312  1.00  0.00     0.016 C 
HETATM    2  C2  UNL     1       5.196  24.416  29.439  1.00  0.00    -0.065 C 
HETATM    3  C3  UNL     1       6.327  23.510  29.578  1.00  0.00     0.189 C 
ENDROOT
BRANCH   3   4
HETATM    4  O1  UNL     1       6.571  22.832  28.384  1.00  0.00    -0.367 OA
ATOM      5  H1  UNL     1       7.366  22.316  28.444  1.00  0.00     0.212 HD
ENDBRANCH   3   4
BRANCH   3   6
HETATM    6  C4  UNL     1       5.958  22.555  30.653  1.00  0.00    -0.044 C 
HETATM    7  C5  UNL     1       5.655  21.793  31.539  1.00  0.00    -0.001 C 
BRANCH   7   8
HETATM    8  C6  UNL     1       5.279  20.902  32.603  1.00  0.00     0.298 C 
HETATM    9  O2  UNL     1       5.645  21.238  33.775  1.00  0.00    -0.258 OA
HETATM   10  N1  UNL     1       4.551  19.728  32.375  1.00  0.00    -0.341 N 
HETATM   11  C7  UNL     1       4.165  19.396  31.038  1.00  0.00     0.129 C 
HETATM   12  C21 UNL     1       4.203  18.876  33.471  1.00  0.00     0.129 C 
HETATM   13  C8  UNL     1       4.055  17.911  30.805  1.00  0.00     0.058 C 
HETATM   14  C9  UNL     1       3.267  17.191  31.840  1.00  0.00     0.064 C 
HETATM   15  C10 UNL     1       3.840  15.822  32.158  1.00  0.00     0.041 C 
HETATM   16  O4  UNL     1       2.001  16.901  31.332  1.00  0.00    -0.373 OA
HETATM   17  C20 UNL     1       3.076  17.926  33.124  1.00  0.00     0.058 C 
HETATM   18  C11 UNL     1       2.611  15.101  32.679  1.00  0.00     0.037 C 
HETATM   19  C12 UNL     1       1.478  15.972  32.226  1.00  0.00     0.146 C 
BRANCH  19  20
HETATM   20  C13 UNL     1       0.399  15.209  31.499  1.00  0.00     0.200 C 
BRANCH  20  21
HETATM   21  O3  UNL     1      -0.080  15.961  30.447  1.00  0.00    -0.383 OA
BRANCH  21  22
HETATM   22  C14 UNL     1      -1.058  15.258  29.747  1.00  0.00     0.121 C 
HETATM   23  C15 UNL     1      -1.591  14.167  30.620  1.00  0.00     0.032 C 
HETATM   24  C16 UNL     1      -3.093  14.229  30.791  1.00  0.00     0.002 C 
HETATM   25  C17 UNL     1      -3.753  14.252  29.439  1.00  0.00     0.000 C 
HETATM   26  C18 UNL     1      -3.224  15.376  28.592  1.00  0.00     0.002 C 
HETATM   27  C19 UNL     1      -2.184  16.197  29.320  1.00  0.00     0.032 C 
ENDBRANCH  21  22
ENDBRANCH  20  21
ENDBRANCH  19  20
ENDBRANCH   7   8
ENDBRANCH   3   6
BRANCH   3  28
HETATM   28  C22 UNL     1       7.590  24.192  30.048  1.00  0.00     0.051 A 
HETATM   29  C23 UNL     1       8.225  23.765  31.334  1.00  0.00     0.015 A 
HETATM   30  C24 UNL     1       8.843  23.433  30.018  1.00  0.00     0.001 A 
BRANCH  30  31
HETATM   31  C25 UNL     1      10.144  24.037  29.565  1.00  0.00     0.017 C 
HETATM   32  C26 UNL     1      10.087  25.490  29.294  1.00  0.00     0.013 C 
BRANCH  31  33
HETATM   33  C27 UNL     1      11.194  23.679  30.580  1.00  0.00     0.150 C 
BRANCH  33  34
HETATM   34  O5  UNL     1      11.604  24.739  31.373  1.00  0.00    -0.393 OA
ATOM     35  H5  UNL     1      12.392  24.568  31.875  1.00  0.00     0.210 HD
ENDBRANCH  33  34
BRANCH  33  36
HETATM   36  C28 UNL     1      12.325  22.844  30.038  1.00  0.00     0.143 C 
HETATM   37  C29 UNL     1      13.657  23.560  30.039  1.00  0.00     0.042 C 
BRANCH  36  38
HETATM   38  O6  UNL     1      12.511  21.748  30.923  1.00  0.00    -0.393 OA
ATOM     39  H6  UNL     1      13.386  21.408  30.779  1.00  0.00     0.210 HD
ENDBRANCH  36  38
ENDBRANCH  33  36
ENDBRANCH  31  33
ENDBRANCH  30  31
ENDBRANCH   3  28
TORSDOF 12
ENDMDL
MODEL 3
REMARK VINA RESULT: -9.334514754      2.595      5.106
REMARK  12 active torsions:
REMARK  status: ('A' for Active; 'I' for Inactive)
REMARK    1  A    between atoms: C3_3  and  O1_4 
REMARK    2  A    between atoms: C3_3  and  C4_6 
REMARK    3  A    between atoms: C3_3  and  C22_28 
REMARK    4  A    between atoms: C5_7  and  C6_8 
REMARK       I    between atoms: C6_8  and  N1_10 
REMARK    5  A    between atoms: C12_16  and  C13_17 
REMARK    6  A    between atoms: C13_17  and  O3_18 
REMARK    7  A    between atoms: O3_18  and  C14_19 
REMARK    8  A    between atoms: C24_30  and  C25_31 
REMARK    9  A    between atoms: C25_31  and  C27_33 
REMARK   10  A    between atoms: C27_33  and  O5_34 
REMARK   11  A    between atoms: C27_33  and  C28_36 
REMARK   12  A    between atoms: C28_36  and  O6_38 
ROOT
HETATM    1  C1  UNL     1       8.489  22.738  28.220  1.00  0.00     0.016 C 
HETATM    2  C2  UNL     1       7.556  23.218  28.810  1.00  0.00    -0.065 C 
HETATM    3  C3  UNL     1       6.445  23.807  29.544  1.00  0.00     0.189 C 
ENDROOT
BRANCH   3   4
HETATM    4  O1  UNL     1       6.789  25.064  30.042  1.00  0.00    -0.367 OA
ATOM      5  H1  UNL     1       6.013  25.558  30.280  1.00  0.00     0.212 HD
ENDBRANCH   3   4
BRANCH   3   6
HETATM    6  C4  UNL     1       6.145  22.871  30.656  1.00  0.00    -0.044 C 
HETATM    7  C5  UNL     1       5.885  22.120  31.565  1.00  0.00    -0.001 C 
BRANCH   7   8
HETATM    8  C6  UNL     1       5.551  21.227  32.641  1.00  0.00     0.298 C 
HETATM    9  O2  UNL     1       6.092  21.475  33.767  1.00  0.00    -0.258 OA
HETATM   10  N1  UNL     1       4.683  20.143  32.473  1.00  0.00    -0.341 N 
HETATM   11  C7  UNL     1       4.102  19.908  31.186  1.00  0.00     0.129 C 
HETATM   12  C21 UNL     1       4.384  19.285  33.580  1.00  0.00     0.129 C 
HETATM   13  C8  UNL     1       3.810  18.452  30.926  1.00  0.00     0.058 C 
HETATM   14  C9  UNL     1       3.084  17.772  32.031  1.00  0.00     0.064 C 
HETATM   15  C10 UNL     1       3.545  16.340  32.234  1.00  0.00     0.041 C 
HETATM   16  O4  UNL     1       1.742  17.632  31.679  1.00  0.00    -0.373 OA
HETATM   17  C20 UNL     1       3.130  18.467  33.350  1.00  0.00     0.058 C 
HETATM   18  C11 UNL     1       2.321  15.724  32.885  1.00  0.00     0.037 C 
HETATM   19  C12 UNL     1       1.239  16.723  32.605  1.00  0.00     0.146 C 
BRANCH  19  20
HETATM   20  C13 UNL     1       0.004  16.102  31.999  1.00  0.00     0.200 C 
BRANCH  20  21
HETATM   21  O3  UNL     1      -0.033  16.361  30.644  1.00  0.00    -0.383 OA
BRANCH  21  22
HETATM   22  C14 UNL     1      -0.037  15.173  29.918  1.00  0.00     0.121 C 
HETATM   23  C15 UNL     1       1.373  14.799  29.588  1.00  0.00     0.032 C 
HETATM   24  C16 UNL     1       1.742  13.410  30.063  1.00  0.00     0.002 C 
HETATM   25  C17 UNL     1       0.748  12.415  29.527  1.00  0.00     0.000 C 
HETATM   26  C18 UNL     1      -0.659  12.795  29.898  1.00  0.00     0.002 C 
HETATM   27  C19 UNL     1      -0.708  14.061  30.722  1.00  0.00     0.032 C 
ENDBRANCH  21  22
ENDBRANCH  20  21
ENDBRANCH  19  20
ENDBRANCH   7   8
ENDBRANCH   3   6
BRANCH   3  28
HETATM   28  C22 UNL     1       5.174  23.907  28.734  1.00  0.00     0.051 A 
HETATM   29  C23 UNL     1       5.224  23.699  27.252  1.00  0.00     0.015 A 
HETATM   30  C24 UNL     1       4.617  22.680  28.158  1.00  0.00     0.001 A 
BRANCH  30  31
HETATM   31  C25 UNL     1       3.144  22.381  28.160  1.00  0.00     0.017 C 
HETATM   32  C26 UNL     1       2.273  23.576  28.099  1.00  0.00     0.013 C 
BRANCH  31  33
HETATM   33  C27 UNL     1       2.871  21.410  27.044  1.00  0.00     0.150 C 
BRANCH  33  34
HETATM   34  O5  UNL     1       1.679  21.633  26.375  1.00  0.00    -0.393 OA
ATOM     35  H5  UNL     1       0.998  21.000  26.569  1.00  0.00     0.210 HD
ENDBRANCH  33  34
BRANCH  33  36
HETATM   36  C28 UNL     1       3.113  19.966  27.402  1.00  0.00     0.143 C 
HETATM   37  C29 UNL     1       1.843  19.191  27.672  1.00  0.00     0.042 C 
BRANCH  36  38
HETATM   38  O6  UNL     1       3.680  19.333  26.264  1.00  0.00    -0.393 OA
ATOM     39  H6  UNL     1       4.625  19.390  26.346  1.00  0.00     0.210 HD
ENDBRANCH  36  38
ENDBRANCH  33  36
ENDBRANCH  31  33
ENDBRANCH  30  31
ENDBRANCH   3  28
TORSDOF 12
ENDMDL
MODEL 4
REMARK VINA RESULT: -9.241423023      1.594      2.056
REMARK  12 active torsions:
REMARK  status: ('A' for Active; 'I' for Inactive)
REMARK    1  A    between atoms: C3_3  and  O1_4 
REMARK    2  A    between atoms: C3_3  and  C4_6 
REMARK    3  A    between atoms: C3_3  and  C22_28 
REMARK    4  A    between atoms: C5_7  and  C6_8 
REMARK       I    between atoms: C6_8  and  N1_10 
REMARK    5  A    between atoms: C12_16  and  C13_17 
REMARK    6  A    between atoms: C13_17  and  O3_18 
REMARK    7  A    between atoms: O3_18  and  C14_19 
REMARK    8  A    between atoms: C24_30  and  C25_31 
REMARK    9  A    between atoms: C25_31  and  C27_33 
REMARK   10  A    between atoms: C27_33  and  O5_34 
REMARK   11  A    between atoms: C27_33  and  C28_36 
REMARK   12  A    between atoms: C28_36  and  O6_38 
ROOT
HETATM    1  C1  UNL     1       4.576  25.154  29.165  1.00  0.00     0.016 C 
HETATM    2  C2  UNL     1       5.527  24.442  29.359  1.00  0.00    -0.065 C 
HETATM    3  C3  UNL     1       6.664  23.560  29.580  1.00  0.00     0.189 C 
ENDROOT
BRANCH   3   4
HETATM    4  O1  UNL     1       6.939  22.806  28.439  1.00  0.00    -0.367 OA
ATOM      5  H1  UNL     1       6.151  22.391  28.109  1.00  0.00     0.212 HD
ENDBRANCH   3   4
BRANCH   3   6
HETATM    6  C4  UNL     1       6.284  22.675  30.709  1.00  0.00    -0.044 C 
HETATM    7  C5  UNL     1       5.958  21.966  31.631  1.00  0.00    -0.001 C 
BRANCH   7   8
HETATM    8  C6  UNL     1       5.547  21.125  32.722  1.00  0.00     0.298 C 
HETATM    9  O2  UNL     1       6.024  21.413  33.867  1.00  0.00    -0.258 OA
HETATM   10  N1  UNL     1       4.672  20.046  32.548  1.00  0.00    -0.341 N 
HETATM   11  C7  UNL     1       4.165  19.764  31.239  1.00  0.00     0.129 C 
HETATM   12  C21 UNL     1       4.295  19.240  33.669  1.00  0.00     0.129 C 
HETATM   13  C8  UNL     1       3.865  18.303  31.023  1.00  0.00     0.058 C 
HETATM   14  C9  UNL     1       3.065  17.680  32.111  1.00  0.00     0.064 C 
HETATM   15  C10 UNL     1       3.490  16.253  32.400  1.00  0.00     0.041 C 
HETATM   16  O4  UNL     1       1.743  17.544  31.686  1.00  0.00    -0.373 OA
HETATM   17  C20 UNL     1       3.044  18.431  33.399  1.00  0.00     0.058 C 
HETATM   18  C11 UNL     1       2.220  15.682  33.002  1.00  0.00     0.037 C 
HETATM   19  C12 UNL     1       1.172  16.682  32.616  1.00  0.00     0.146 C 
BRANCH  19  20
HETATM   20  C13 UNL     1      -0.035  16.053  31.964  1.00  0.00     0.200 C 
BRANCH  20  21
HETATM   21  O3  UNL     1      -0.020  16.309  30.608  1.00  0.00    -0.383 OA
BRANCH  21  22
HETATM   22  C14 UNL     1      -0.026  15.118  29.886  1.00  0.00     0.121 C 
HETATM   23  C15 UNL     1       1.385  14.730  29.575  1.00  0.00     0.032 C 
HETATM   24  C16 UNL     1       1.734  13.340  30.058  1.00  0.00     0.002 C 
HETATM   25  C17 UNL     1       0.739  12.352  29.512  1.00  0.00     0.000 C 
HETATM   26  C18 UNL     1      -0.670  12.746  29.864  1.00  0.00     0.002 C 
HETATM   27  C19 UNL     1      -0.718  14.015  30.684  1.00  0.00     0.032 C 
ENDBRANCH  21  22
ENDBRANCH  20  21
ENDBRANCH  19  20
ENDBRANCH   7   8
ENDBRANCH   3   6
BRANCH   3  28
HETATM   28  C22 UNL     1       7.911  24.286  30.027  1.00  0.00     0.051 A 
HETATM   29  C23 UNL     1       8.397  24.124  31.433  1.00  0.00     0.015 A 
HETATM   30  C24 UNL     1       9.120  23.500  30.287  1.00  0.00     0.001 A 
BRANCH  30  31
HETATM   31  C25 UNL     1      10.487  23.952  29.857  1.00  0.00     0.017 C 
HETATM   32  C26 UNL     1      11.071  25.026  30.691  1.00  0.00     0.013 C 
BRANCH  31  33
HETATM   33  C27 UNL     1      11.369  22.737  29.779  1.00  0.00     0.150 C 
BRANCH  33  34
HETATM   34  O5  UNL     1      10.745  21.556  30.146  1.00  0.00    -0.393 OA
ATOM     35  H5  UNL     1      10.862  21.320  31.058  1.00  0.00     0.210 HD
ENDBRANCH  33  34
BRANCH  33  36
HETATM   36  C28 UNL     1      12.738  22.920  30.383  1.00  0.00     0.143 C 
HETATM   37  C29 UNL     1      13.324  21.646  30.948  1.00  0.00     0.042 C 
BRANCH  36  38
HETATM   38  O6  UNL     1      13.624  23.284  29.334  1.00  0.00    -0.393 OA
ATOM     39  H6  UNL     1      14.346  22.667  29.342  1.00  0.00     0.210 HD
ENDBRANCH  36  38
ENDBRANCH  33  36
ENDBRANCH  31  33
ENDBRANCH  30  31
ENDBRANCH   3  28
TORSDOF 12
ENDMDL
MODEL 5
REMARK VINA RESULT: -9.159475374      2.243     10.925
REMARK  12 active torsions:
REMARK  status: ('A' for Active; 'I' for Inactive)
REMARK    1  A    between atoms: C3_3  and  O1_4 
REMARK    2  A    between atoms: C3_3  and  C4_6 
REMARK    3  A    between atoms: C3_3  and  C22_28 
REMARK    4  A    between atoms: C5_7  and  C6_8 
REMARK       I    between atoms: C6_8  and  N1_10 
REMARK    5  A    between atoms: C12_16  and  C13_17 
REMARK    6  A    between atoms: C13_17  and  O3_18 
REMARK    7  A    between atoms: O3_18  and  C14_19 
REMARK    8  A    between atoms: C24_30  and  C25_31 
REMARK    9  A    between atoms: C25_31  and  C27_33 
REMARK   10  A    between atoms: C27_33  and  O5_34 
REMARK   11  A    between atoms: C27_33  and  C28_36 
REMARK   12  A    between atoms: C28_36  and  O6_38 
ROOT
HETATM    1  C1  UNL     1      -0.114  16.058  31.915  1.00  0.00     0.016 C 
HETATM    2  C2  UNL     1       1.073  15.887  32.024  1.00  0.00    -0.065 C 
HETATM    3  C3  UNL     1       2.505  15.677  32.182  1.00  0.00     0.189 C 
ENDROOT
BRANCH   3   4
HETATM    4  O1  UNL     1       2.759  14.624  33.060  1.00  0.00    -0.367 OA
ATOM      5  H1  UNL     1       3.685  14.413  33.078  1.00  0.00     0.212 HD
ENDBRANCH   3   4
BRANCH   3   6
HETATM    6  C4  UNL     1       3.049  16.948  32.722  1.00  0.00    -0.044 C 
HETATM    7  C5  UNL     1       3.491  17.990  33.144  1.00  0.00    -0.001 C 
BRANCH   7   8
HETATM    8  C6  UNL     1       4.002  19.242  33.631  1.00  0.00     0.298 C 
HETATM    9  O2  UNL     1       3.729  19.530  34.841  1.00  0.00    -0.258 OA
HETATM   10  N1  UNL     1       4.758  20.105  32.830  1.00  0.00    -0.341 N 
HETATM   11  C7  UNL     1       5.037  19.735  31.476  1.00  0.00     0.129 C 
HETATM   12  C21 UNL     1       5.242  21.341  33.366  1.00  0.00     0.129 C 
HETATM   13  C8  UNL     1       5.192  20.920  30.558  1.00  0.00     0.058 C 
HETATM   14  C9  UNL     1       6.102  21.975  31.078  1.00  0.00     0.064 C 
HETATM   15  C10 UNL     1       5.623  23.374  30.738  1.00  0.00     0.041 C 
HETATM   16  O4  UNL     1       7.329  21.886  30.420  1.00  0.00    -0.373 OA
HETATM   17  C20 UNL     1       6.375  21.919  32.543  1.00  0.00     0.058 C 
HETATM   18  C11 UNL     1       6.925  24.152  30.780  1.00  0.00     0.037 C 
HETATM   19  C12 UNL     1       7.972  23.079  30.732  1.00  0.00     0.146 C 
BRANCH  19  20
HETATM   20  C13 UNL     1       9.014  23.318  29.668  1.00  0.00     0.200 C 
BRANCH  20  21
HETATM   21  O3  UNL     1      10.104  22.502  29.888  1.00  0.00    -0.383 OA
BRANCH  21  22
HETATM   22  C14 UNL     1      11.288  23.177  29.601  1.00  0.00     0.121 C 
HETATM   23  C15 UNL     1      11.192  24.574  30.127  1.00  0.00     0.032 C 
HETATM   24  C16 UNL     1      12.321  24.928  31.069  1.00  0.00     0.002 C 
HETATM   25  C17 UNL     1      13.641  24.662  30.397  1.00  0.00     0.000 C 
HETATM   26  C18 UNL     1      13.726  23.243  29.904  1.00  0.00     0.002 C 
HETATM   27  C19 UNL     1      12.478  22.453  30.227  1.00  0.00     0.032 C 
ENDBRANCH  21  22
ENDBRANCH  20  21
ENDBRANCH  19  20
ENDBRANCH   7   8
ENDBRANCH   3   6
BRANCH   3  28
HETATM   28  C22 UNL     1       3.226  15.441  30.876  1.00  0.00     0.051 A 
HETATM   29  C23 UNL     1       2.547  14.676  29.784  1.00  0.00     0.015 A 
HETATM   30  C24 UNL     1       2.756  16.150  29.683  1.00  0.00     0.001 A 
BRANCH  30  31
HETATM   31  C25 UNL     1       3.697  16.760  28.682  1.00  0.00     0.017 C 
HETATM   32  C26 UNL     1       3.798  16.024  27.402  1.00  0.00     0.013 C 
BRANCH  31  33
HETATM   33  C27 UNL     1       3.295  18.197  28.491  1.00  0.00     0.150 C 
BRANCH  33  34
HETATM   34  O5  UNL     1       2.400  18.668  29.438  1.00  0.00    -0.393 OA
ATOM     35  H5  UNL     1       1.518  18.329  29.343  1.00  0.00     0.210 HD
ENDBRANCH  33  34
BRANCH  33  36
HETATM   36  C28 UNL     1       2.936  18.561  27.074  1.00  0.00     0.143 C 
HETATM   37  C29 UNL     1       1.708  19.436  26.968  1.00  0.00     0.042 C 
BRANCH  36  38
HETATM   38  O6  UNL     1       3.989  19.364  26.558  1.00  0.00    -0.393 OA
ATOM     39  H6  UNL     1       3.623  19.911  25.873  1.00  0.00     0.210 HD
ENDBRANCH  36  38
ENDBRANCH  33  36
ENDBRANCH  31  33
ENDBRANCH  30  31
ENDBRANCH   3  28
TORSDOF 12
ENDMDL
