MODEL 1
REMARK VINA RESULT: -8.242295008      0.000      0.000
REMARK  7 active torsions:
REMARK  status: ('A' for Active; 'I' for Inactive)
REMARK    1  A    between atoms: C4_5  and  C5_6 
REMARK    2  A    between atoms: C14_19  and  O4_20 
REMARK    3  A    between atoms: C18_25  and  C19_26 
REMARK       I    between atoms: C19_26  and  N2_28 
REMARK    4  A    between atoms: N2_28  and  C20_30 
REMARK    5  A    between atoms: C20_30  and  C21_31 
REMARK    6  A    between atoms: C21_31  and  C22_32 
REMARK    7  A    between atoms: C22_32  and  N3_33 
ROOT
HETATM    1  C1  UNL     1      -0.470  15.588  30.873  1.00  0.00     0.026 C 
HETATM    2  C2  UNL     1       0.991  15.919  30.660  1.00  0.00     0.048 C 
HETATM    3  C3  UNL     1       1.712  15.512  31.925  1.00  0.00     0.152 C 
HETATM    4  O1  UNL     1       2.368  14.577  32.317  1.00  0.00    -0.296 OA
HETATM    5  C4  UNL     1       1.213  16.837  32.458  1.00  0.00     0.162 C 
HETATM    6  C6  UNL     1       1.326  17.303  31.013  1.00  0.00     0.025 C 
HETATM    7  C7  UNL     1       0.346  18.350  30.573  1.00  0.00     0.008 C 
HETATM    8  C8  UNL     1       1.027  19.464  29.839  1.00  0.00     0.011 C 
HETATM    9  C9  UNL     1       1.489  19.193  28.463  1.00  0.00    -0.030 C 
HETATM   10  C10 UNL     1       2.984  19.461  28.397  1.00  0.00     0.054 C 
HETATM   11  C11 UNL     1       3.646  18.871  27.209  1.00  0.00     0.056 C 
HETATM   12  N1  UNL     1       3.325  17.539  26.894  1.00  0.00    -0.397 N 
ATOM     13  H1  UNL     1       3.862  17.019  26.201  1.00  0.00     0.159 HD
HETATM   14  C12 UNL     1       2.223  16.937  27.576  1.00  0.00     0.087 C 
HETATM   15  C13 UNL     1       2.646  16.099  28.762  1.00  0.00     0.058 C 
HETATM   16  C14 UNL     1       1.516  15.382  29.393  1.00  0.00     0.136 C 
HETATM   17  C15 UNL     1       1.109  17.896  27.838  1.00  0.00     0.017 C 
HETATM   18  C16 UNL     1       0.454  18.110  26.453  1.00  0.00     0.008 C 
HETATM   19  C17 UNL     1      -0.845  18.828  26.586  1.00  0.00     0.014 C 
HETATM   20  C18 UNL     1      -0.614  20.080  27.388  1.00  0.00     0.078 C 
HETATM   21  C27 UNL     1       0.873  20.301  27.582  1.00  0.00     0.024 C 
ENDROOT
BRANCH  20  22
HETATM   22  C19 UNL     1      -1.100  21.236  26.603  1.00  0.00     0.221 C 
HETATM   23  O5  UNL     1      -1.573  21.058  25.447  1.00  0.00    -0.273 OA
HETATM   24  N2  UNL     1      -1.065  22.573  27.087  1.00  0.00    -0.361 N 
ATOM     25  H2  UNL     1      -0.687  22.735  28.021  1.00  0.00     0.162 HD
BRANCH  24  26
HETATM   26  C20 UNL     1      -1.525  23.701  26.345  1.00  0.00     0.124 C 
BRANCH  26  27
HETATM   27  C21 UNL     1      -0.437  24.727  26.104  1.00  0.00     0.039 C 
BRANCH  27  28
HETATM   28  C22 UNL     1       0.659  24.602  27.164  1.00  0.00     0.118 C 
BRANCH  28  29
HETATM   29  N3  UNL     1       1.959  24.602  26.580  1.00  0.00    -0.408 N 
HETATM   30  C23 UNL     1       2.550  23.319  26.427  1.00  0.00     0.143 C 
HETATM   31  C24 UNL     1       3.908  23.144  27.015  1.00  0.00     0.187 C 
HETATM   32  O6  UNL     1       4.692  24.280  26.992  1.00  0.00    -0.388 OA
HETATM   33  C25 UNL     1       4.013  25.260  27.741  1.00  0.00     0.187 C 
HETATM   34  C26 UNL     1       2.820  25.674  26.934  1.00  0.00     0.143 C 
ENDBRANCH  28  29
ENDBRANCH  27  28
ENDBRANCH  26  27
ENDBRANCH  24  26
ENDBRANCH  20  22
BRANCH  16  35
HETATM   35  O4  UNL     1       1.825  14.019  29.618  1.00  0.00    -0.394 OA
ATOM     36  H4  UNL     1       2.731  13.894  29.361  1.00  0.00     0.210 HD
ENDBRANCH  16  35
BRANCH   5  37
HETATM   37  C5  UNL     1       2.216  17.437  33.366  1.00  0.00     0.184 C 
HETATM   38  O2  UNL     1       1.861  17.845  34.491  1.00  0.00    -0.647 OA
HETATM   39  O3  UNL     1       3.560  17.552  32.976  1.00  0.00    -0.647 OA
ENDBRANCH   5  37
TORSDOF 7
ENDMDL
MODEL 2
REMARK VINA RESULT: -8.066777827      0.825      1.026
REMARK  7 active torsions:
REMARK  status: ('A' for Active; 'I' for Inactive)
REMARK    1  A    between atoms: C4_5  and  C5_6 
REMARK    2  A    between atoms: C14_19  and  O4_20 
REMARK    3  A    between atoms: C18_25  and  C19_26 
REMARK       I    between atoms: C19_26  and  N2_28 
REMARK    4  A    between atoms: N2_28  and  C20_30 
REMARK    5  A    between atoms: C20_30  and  C21_31 
REMARK    6  A    between atoms: C21_31  and  C22_32 
REMARK    7  A    between atoms: C22_32  and  N3_33 
ROOT
HETATM    1  C1  UNL     1      -0.478  15.610  30.845  1.00  0.00     0.026 C 
HETATM    2  C2  UNL     1       0.986  15.932  30.638  1.00  0.00     0.048 C 
HETATM    3  C3  UNL     1       1.701  15.512  31.903  1.00  0.00     0.152 C 
HETATM    4  O1  UNL     1       2.349  14.571  32.292  1.00  0.00    -0.296 OA
HETATM    5  C4  UNL     1       1.209  16.839  32.443  1.00  0.00     0.162 C 
HETATM    6  C6  UNL     1       1.329  17.311  31.001  1.00  0.00     0.025 C 
HETATM    7  C7  UNL     1       0.358  18.368  30.564  1.00  0.00     0.008 C 
HETATM    8  C8  UNL     1       1.048  19.481  29.838  1.00  0.00     0.011 C 
HETATM    9  C9  UNL     1       1.512  19.215  28.462  1.00  0.00    -0.030 C 
HETATM   10  C10 UNL     1       3.009  19.473  28.401  1.00  0.00     0.054 C 
HETATM   11  C11 UNL     1       3.671  18.886  27.212  1.00  0.00     0.056 C 
HETATM   12  N1  UNL     1       3.342  17.558  26.889  1.00  0.00    -0.397 N 
ATOM     13  H1  UNL     1       3.877  17.038  26.194  1.00  0.00     0.159 HD
HETATM   14  C12 UNL     1       2.234  16.959  27.563  1.00  0.00     0.087 C 
HETATM   15  C13 UNL     1       2.648  16.111  28.746  1.00  0.00     0.058 C 
HETATM   16  C14 UNL     1       1.510  15.399  29.370  1.00  0.00     0.136 C 
HETATM   17  C15 UNL     1       1.125  17.925  27.828  1.00  0.00     0.017 C 
HETATM   18  C16 UNL     1       0.477  18.151  26.443  1.00  0.00     0.008 C 
HETATM   19  C17 UNL     1      -0.819  18.877  26.576  1.00  0.00     0.014 C 
HETATM   20  C18 UNL     1      -0.581  20.123  27.386  1.00  0.00     0.078 C 
HETATM   21  C27 UNL     1       0.907  20.333  27.585  1.00  0.00     0.024 C 
ENDROOT
BRANCH  20  22
HETATM   22  C19 UNL     1      -1.057  21.287  26.606  1.00  0.00     0.221 C 
HETATM   23  O5  UNL     1      -2.085  21.182  25.883  1.00  0.00    -0.273 OA
HETATM   24  N2  UNL     1      -0.406  22.551  26.624  1.00  0.00    -0.361 N 
ATOM     25  H2  UNL     1       0.426  22.654  27.205  1.00  0.00     0.162 HD
BRANCH  24  26
HETATM   26  C20 UNL     1      -0.846  23.684  25.878  1.00  0.00     0.124 C 
BRANCH  26  27
HETATM   27  C21 UNL     1       0.301  24.545  25.388  1.00  0.00     0.039 C 
BRANCH  27  28
HETATM   28  C22 UNL     1       1.595  24.171  26.112  1.00  0.00     0.118 C 
BRANCH  28  29
HETATM   29  N3  UNL     1       2.273  25.322  26.608  1.00  0.00    -0.408 N 
HETATM   30  C23 UNL     1       3.618  25.102  27.011  1.00  0.00     0.143 C 
HETATM   31  C24 UNL     1       3.972  25.534  28.393  1.00  0.00     0.187 C 
HETATM   32  O6  UNL     1       3.283  26.644  28.839  1.00  0.00    -0.388 OA
HETATM   33  C25 UNL     1       1.915  26.311  28.821  1.00  0.00     0.187 C 
HETATM   34  C26 UNL     1       1.506  26.234  27.381  1.00  0.00     0.143 C 
ENDBRANCH  28  29
ENDBRANCH  27  28
ENDBRANCH  26  27
ENDBRANCH  24  26
ENDBRANCH  20  22
BRANCH  16  35
HETATM   35  O4  UNL     1       1.810  14.032  29.588  1.00  0.00    -0.394 OA
ATOM     36  H4  UNL     1       1.511  13.819  30.464  1.00  0.00     0.210 HD
ENDBRANCH  16  35
BRANCH   5  37
HETATM   37  C5  UNL     1       2.213  17.426  33.356  1.00  0.00     0.184 C 
HETATM   38  O2  UNL     1       1.861  17.815  34.489  1.00  0.00    -0.647 OA
HETATM   39  O3  UNL     1       3.555  17.551  32.964  1.00  0.00    -0.647 OA
ENDBRANCH   5  37
TORSDOF 7
ENDMDL
MODEL 3
REMARK VINA RESULT: -7.794084552      2.888      4.511
REMARK  7 active torsions:
REMARK  status: ('A' for Active; 'I' for Inactive)
REMARK    1  A    between atoms: C4_5  and  C5_6 
REMARK    2  A    between atoms: C14_19  and  O4_20 
REMARK    3  A    between atoms: C18_25  and  C19_26 
REMARK       I    between atoms: C19_26  and  N2_28 
REMARK    4  A    between atoms: N2_28  and  C20_30 
REMARK    5  A    between atoms: C20_30  and  C21_31 
REMARK    6  A    between atoms: C21_31  and  C22_32 
REMARK    7  A    between atoms: C22_32  and  N3_33 
ROOT
HETATM    1  C1  UNL     1       2.277  14.573  29.110  1.00  0.00     0.026 C 
HETATM    2  C2  UNL     1       2.941  15.932  29.111  1.00  0.00     0.048 C 
HETATM    3  C3  UNL     1       4.201  15.794  29.937  1.00  0.00     0.152 C 
HETATM    4  O1  UNL     1       5.381  15.633  29.744  1.00  0.00    -0.296 OA
HETATM    5  C4  UNL     1       3.266  15.953  31.116  1.00  0.00     0.162 C 
HETATM    6  C6  UNL     1       2.443  16.816  30.170  1.00  0.00     0.025 C 
HETATM    7  C7  UNL     1       0.959  16.814  30.386  1.00  0.00     0.008 C 
HETATM    8  C8  UNL     1       0.402  18.204  30.388  1.00  0.00     0.011 C 
HETATM    9  C9  UNL     1       0.300  18.901  29.091  1.00  0.00    -0.030 C 
HETATM   10  C10 UNL     1       1.088  20.198  29.179  1.00  0.00     0.054 C 
HETATM   11  C11 UNL     1       1.396  20.803  27.861  1.00  0.00     0.056 C 
HETATM   12  N1  UNL     1       1.887  19.943  26.863  1.00  0.00    -0.397 N 
ATOM     13  H1  UNL     1       2.276  20.313  25.996  1.00  0.00     0.159 HD
HETATM   14  C12 UNL     1       1.824  18.536  27.101  1.00  0.00     0.087 C 
HETATM   15  C13 UNL     1       3.124  17.965  27.624  1.00  0.00     0.058 C 
HETATM   16  C14 UNL     1       3.093  16.491  27.757  1.00  0.00     0.136 C 
HETATM   17  C15 UNL     1       0.600  18.129  27.854  1.00  0.00     0.017 C 
HETATM   18  C16 UNL     1      -0.544  18.255  26.821  1.00  0.00     0.008 C 
HETATM   19  C17 UNL     1      -1.793  17.622  27.333  1.00  0.00     0.014 C 
HETATM   20  C18 UNL     1      -2.089  18.194  28.694  1.00  0.00     0.078 C 
HETATM   21  C27 UNL     1      -1.168  19.365  28.972  1.00  0.00     0.024 C 
ENDROOT
BRANCH  20  22
HETATM   22  C19 UNL     1      -3.461  18.747  28.680  1.00  0.00     0.221 C 
HETATM   23  O5  UNL     1      -4.148  18.753  29.738  1.00  0.00    -0.273 OA
HETATM   24  N2  UNL     1      -4.067  19.289  27.513  1.00  0.00    -0.361 N 
ATOM     25  H2  UNL     1      -3.525  19.294  26.649  1.00  0.00     0.162 HD
BRANCH  24  26
HETATM   26  C20 UNL     1      -5.389  19.825  27.478  1.00  0.00     0.124 C 
BRANCH  26  27
HETATM   27  C21 UNL     1      -5.932  19.953  26.069  1.00  0.00     0.039 C 
BRANCH  27  28
HETATM   28  C22 UNL     1      -5.575  21.320  25.483  1.00  0.00     0.118 C 
BRANCH  28  29
HETATM   29  N3  UNL     1      -4.525  21.224  24.523  1.00  0.00    -0.408 N 
HETATM   30  C23 UNL     1      -4.353  19.936  23.947  1.00  0.00     0.143 C 
HETATM   31  C24 UNL     1      -2.982  19.357  24.022  1.00  0.00     0.187 C 
HETATM   32  O6  UNL     1      -1.964  20.288  23.966  1.00  0.00    -0.388 OA
HETATM   33  C25 UNL     1      -2.137  21.149  25.066  1.00  0.00     0.187 C 
HETATM   34  C26 UNL     1      -3.351  21.981  24.780  1.00  0.00     0.143 C 
ENDBRANCH  28  29
ENDBRANCH  27  28
ENDBRANCH  26  27
ENDBRANCH  24  26
ENDBRANCH  20  22
BRANCH  16  35
HETATM   35  O4  UNL     1       4.244  15.894  27.189  1.00  0.00    -0.394 OA
ATOM     36  H4  UNL     1       4.977  16.466  27.381  1.00  0.00     0.210 HD
ENDBRANCH  16  35
BRANCH   5  37
HETATM   37  C5  UNL     1       3.929  16.709  32.201  1.00  0.00     0.184 C 
HETATM   38  O2  UNL     1       4.366  16.099  33.198  1.00  0.00    -0.647 OA
HETATM   39  O3  UNL     1       4.072  18.104  32.120  1.00  0.00    -0.647 OA
ENDBRANCH   5  37
TORSDOF 7
ENDMDL
MODEL 4
REMARK VINA RESULT: -7.695250359      3.819      5.713
REMARK  7 active torsions:
REMARK  status: ('A' for Active; 'I' for Inactive)
REMARK    1  A    between atoms: C4_5  and  C5_6 
REMARK    2  A    between atoms: C14_19  and  O4_20 
REMARK    3  A    between atoms: C18_25  and  C19_26 
REMARK       I    between atoms: C19_26  and  N2_28 
REMARK    4  A    between atoms: N2_28  and  C20_30 
REMARK    5  A    between atoms: C20_30  and  C21_31 
REMARK    6  A    between atoms: C21_31  and  C22_32 
REMARK    7  A    between atoms: C22_32  and  N3_33 
ROOT
HETATM    1  C1  UNL     1      -1.185  15.874  31.760  1.00  0.00     0.026 C 
HETATM    2  C2  UNL     1      -0.624  15.476  30.412  1.00  0.00     0.048 C 
HETATM    3  C3  UNL     1      -1.054  14.045  30.174  1.00  0.00     0.152 C 
HETATM    4  O1  UNL     1      -1.919  13.462  29.567  1.00  0.00    -0.296 OA
HETATM    5  C4  UNL     1       0.121  13.702  31.064  1.00  0.00     0.162 C 
HETATM    6  C6  UNL     1       0.748  14.963  30.488  1.00  0.00     0.025 C 
HETATM    7  C7  UNL     1       1.682  15.714  31.389  1.00  0.00     0.008 C 
HETATM    8  C8  UNL     1       2.955  16.073  30.685  1.00  0.00     0.011 C 
HETATM    9  C9  UNL     1       2.902  17.161  29.689  1.00  0.00    -0.030 C 
HETATM   10  C10 UNL     1       3.390  16.617  28.356  1.00  0.00     0.054 C 
HETATM   11  C11 UNL     1       3.031  17.466  27.195  1.00  0.00     0.056 C 
HETATM   12  N1  UNL     1       1.707  17.935  27.131  1.00  0.00    -0.397 N 
ATOM     13  H1  UNL     1       1.347  18.378  26.286  1.00  0.00     0.159 HD
HETATM   14  C12 UNL     1       0.883  17.773  28.286  1.00  0.00     0.087 C 
HETATM   15  C13 UNL     1      -0.006  16.550  28.213  1.00  0.00     0.058 C 
HETATM   16  C14 UNL     1      -0.941  16.450  29.355  1.00  0.00     0.136 C 
HETATM   17  C15 UNL     1       1.637  17.937  29.565  1.00  0.00     0.017 C 
HETATM   18  C16 UNL     1       1.899  19.458  29.662  1.00  0.00     0.008 C 
HETATM   19  C17 UNL     1       2.401  19.824  31.017  1.00  0.00     0.014 C 
HETATM   20  C18 UNL     1       3.582  18.947  31.336  1.00  0.00     0.078 C 
HETATM   21  C27 UNL     1       3.995  18.169  30.102  1.00  0.00     0.024 C 
ENDROOT
BRANCH  20  22
HETATM   22  C19 UNL     1       4.732  19.814  31.677  1.00  0.00     0.221 C 
HETATM   23  O5  UNL     1       5.536  19.466  32.583  1.00  0.00    -0.273 OA
HETATM   24  N2  UNL     1       4.990  21.050  31.023  1.00  0.00    -0.361 N 
ATOM     25  H2  UNL     1       4.350  21.346  30.286  1.00  0.00     0.162 HD
BRANCH  24  26
HETATM   26  C20 UNL     1       6.090  21.903  31.337  1.00  0.00     0.124 C 
BRANCH  26  27
HETATM   27  C21 UNL     1       6.111  23.165  30.500  1.00  0.00     0.039 C 
BRANCH  27  28
HETATM   28  C22 UNL     1       7.393  23.231  29.668  1.00  0.00     0.118 C 
BRANCH  28  29
HETATM   29  N3  UNL     1       8.557  23.128  30.484  1.00  0.00    -0.408 N 
HETATM   30  C23 UNL     1       8.965  24.340  31.104  1.00  0.00     0.143 C 
HETATM   31  C24 UNL     1      10.381  24.751  30.881  1.00  0.00     0.187 C 
HETATM   32  O6  UNL     1      11.267  23.701  30.750  1.00  0.00    -0.388 OA
HETATM   33  C25 UNL     1      10.848  22.950  29.636  1.00  0.00     0.187 C 
HETATM   34  C26 UNL     1       9.582  22.254  30.032  1.00  0.00     0.143 C 
ENDBRANCH  28  29
ENDBRANCH  27  28
ENDBRANCH  26  27
ENDBRANCH  24  26
ENDBRANCH  20  22
BRANCH  16  35
HETATM   35  O4  UNL     1      -2.262  16.175  28.921  1.00  0.00    -0.394 OA
ATOM     36  H4  UNL     1      -2.792  16.928  29.153  1.00  0.00     0.210 HD
ENDBRANCH  16  35
BRANCH   5  37
HETATM   37  C5  UNL     1       0.761  12.448  30.611  1.00  0.00     0.184 C 
HETATM   38  O2  UNL     1       1.061  11.573  31.449  1.00  0.00    -0.647 OA
HETATM   39  O3  UNL     1       1.034  12.232  29.251  1.00  0.00    -0.647 OA
ENDBRANCH   5  37
TORSDOF 7
ENDMDL
MODEL 5
REMARK VINA RESULT: -7.645474800      3.498      6.093
REMARK  7 active torsions:
REMARK  status: ('A' for Active; 'I' for Inactive)
REMARK    1  A    between atoms: C4_5  and  C5_6 
REMARK    2  A    between atoms: C14_19  and  O4_20 
REMARK    3  A    between atoms: C18_25  and  C19_26 
REMARK       I    between atoms: C19_26  and  N2_28 
REMARK    4  A    between atoms: N2_28  and  C20_30 
REMARK    5  A    between atoms: C20_30  and  C21_31 
REMARK    6  A    between atoms: C21_31  and  C22_32 
REMARK    7  A    between atoms: C22_32  and  N3_33 
ROOT
HETATM    1  C1  UNL     1       1.799  14.788  29.324  1.00  0.00     0.026 C 
HETATM    2  C2  UNL     1       2.357  16.181  29.519  1.00  0.00     0.048 C 
HETATM    3  C3  UNL     1       3.117  16.158  30.827  1.00  0.00     0.152 C 
HETATM    4  O1  UNL     1       4.263  16.053  31.192  1.00  0.00    -0.296 OA
HETATM    5  C4  UNL     1       1.750  16.330  31.452  1.00  0.00     0.162 C 
HETATM    6  C6  UNL     1       1.416  17.092  30.177  1.00  0.00     0.025 C 
HETATM    7  C7  UNL     1      -0.007  17.018  29.711  1.00  0.00     0.008 C 
HETATM    8  C8  UNL     1      -0.542  18.373  29.362  1.00  0.00     0.011 C 
HETATM    9  C9  UNL     1      -0.071  18.991  28.106  1.00  0.00    -0.030 C 
HETATM   10  C10 UNL     1       0.561  20.333  28.439  1.00  0.00     0.054 C 
HETATM   11  C11 UNL     1       1.411  20.880  27.355  1.00  0.00     0.056 C 
HETATM   12  N1  UNL     1       2.318  19.996  26.746  1.00  0.00    -0.397 N 
ATOM     13  H1  UNL     1       3.044  20.339  26.118  1.00  0.00     0.159 HD
HETATM   14  C12 UNL     1       2.191  18.603  27.035  1.00  0.00     0.087 C 
HETATM   15  C13 UNL     1       3.134  18.135  28.122  1.00  0.00     0.058 C 
HETATM   16  C14 UNL     1       3.084  16.671  28.337  1.00  0.00     0.136 C 
HETATM   17  C15 UNL     1       0.771  18.170  27.193  1.00  0.00     0.017 C 
HETATM   18  C16 UNL     1       0.207  18.175  25.753  1.00  0.00     0.008 C 
HETATM   19  C17 UNL     1      -1.122  17.502  25.702  1.00  0.00     0.014 C 
HETATM   20  C18 UNL     1      -2.011  18.130  26.742  1.00  0.00     0.078 C 
HETATM   21  C27 UNL     1      -1.341  19.365  27.314  1.00  0.00     0.024 C 
ENDROOT
BRANCH  20  22
HETATM   22  C19 UNL     1      -3.245  18.605  26.079  1.00  0.00     0.221 C 
HETATM   23  O5  UNL     1      -4.058  19.334  26.709  1.00  0.00    -0.273 OA
HETATM   24  N2  UNL     1      -3.578  18.278  24.736  1.00  0.00    -0.361 N 
ATOM     25  H2  UNL     1      -2.931  17.690  24.211  1.00  0.00     0.162 HD
BRANCH  24  26
HETATM   26  C20 UNL     1      -4.764  18.721  24.079  1.00  0.00     0.124 C 
BRANCH  26  27
HETATM   27  C21 UNL     1      -5.717  17.588  23.761  1.00  0.00     0.039 C 
BRANCH  27  28
HETATM   28  C22 UNL     1      -6.481  17.165  25.017  1.00  0.00     0.118 C 
BRANCH  28  29
HETATM   29  N3  UNL     1      -6.098  15.864  25.453  1.00  0.00    -0.408 N 
HETATM   30  C23 UNL     1      -5.666  15.786  26.805  1.00  0.00     0.143 C 
HETATM   31  C24 UNL     1      -4.331  15.163  27.036  1.00  0.00     0.187 C 
HETATM   32  O6  UNL     1      -4.002  14.167  26.140  1.00  0.00    -0.388 OA
HETATM   33  C25 UNL     1      -3.996  14.753  24.860  1.00  0.00     0.187 C 
HETATM   34  C26 UNL     1      -5.423  15.044  24.509  1.00  0.00     0.143 C 
ENDBRANCH  28  29
ENDBRANCH  27  28
ENDBRANCH  26  27
ENDBRANCH  24  26
ENDBRANCH  20  22
BRANCH  16  35
HETATM   35  O4  UNL     1       4.383  16.109  28.386  1.00  0.00    -0.394 OA
ATOM     36  H4  UNL     1       4.724  16.273  29.257  1.00  0.00     0.210 HD
ENDBRANCH  16  35
BRANCH   5  37
HETATM   37  C5  UNL     1       1.838  17.180  32.659  1.00  0.00     0.184 C 
HETATM   38  O2  UNL     1       0.959  17.090  33.541  1.00  0.00    -0.647 OA
HETATM   39  O3  UNL     1       2.899  18.086  32.823  1.00  0.00    -0.647 OA
ENDBRANCH   5  37
TORSDOF 7
ENDMDL
