MODEL 1
REMARK VINA RESULT: -7.025260080      0.000      0.000
REMARK  9 active torsions:
REMARK  status: ('A' for Active; 'I' for Inactive)
REMARK       I    between atoms: N2_9  and  C8_11 
REMARK    1  A    between atoms: C8_11  and  C9_13 
REMARK    2  A    between atoms: C9_13  and  C10_14 
REMARK    3  A    between atoms: C10_14  and  N3_17 
REMARK    4  A    between atoms: C14_23  and  C15_24 
REMARK    5  A    between atoms: C15_24  and  C16_25 
REMARK    6  A    between atoms: C16_25  and  C17_26 
REMARK    7  A    between atoms: C17_26  and  C18_27 
REMARK    8  A    between atoms: C18_27  and  N4_28 
REMARK    9  A    between atoms: C20_36  and  C21_37 
ROOT
HETATM    1  C1  UNL     1      -0.693  13.304  29.659  1.00  0.00     0.032 C 
HETATM    2  C2  UNL     1      -0.632  14.022  30.963  1.00  0.00     0.085 C 
HETATM    3  C3  UNL     1      -1.009  15.456  30.893  1.00  0.00     0.084 C 
HETATM    4  C4  UNL     1      -0.179  16.223  29.853  1.00  0.00     0.044 C 
HETATM    5  C5  UNL     1      -0.805  16.927  28.978  1.00  0.00     0.098 C 
HETATM    6  C6  UNL     1      -2.318  16.878  29.114  1.00  0.00     0.104 C 
HETATM    7  N1  UNL     1      -3.512  16.848  29.193  1.00  0.00    -0.191 NA
HETATM    8  C7  UNL     1      -0.498  17.807  27.856  1.00  0.00     0.106 C 
HETATM    9  N2  UNL     1      -1.113  17.684  26.733  1.00  0.00    -0.323 N 
ATOM     10  H2  UNL     1      -1.796  16.927  26.758  1.00  0.00     0.169 HD
HETATM   11  C8  UNL     1      -1.089  18.298  25.528  1.00  0.00     0.224 C 
HETATM   12  O1  UNL     1      -0.528  17.698  24.542  1.00  0.00    -0.273 OA
HETATM   13  C13 UNL     1       0.511  18.916  27.849  1.00  0.00     0.200 C 
HETATM   14  O2  UNL     1       1.046  19.125  26.736  1.00  0.00    -0.288 OA
HETATM   15  C14 UNL     1       0.858  19.691  29.020  1.00  0.00     0.161 C 
HETATM   16  N5  UNL     1       2.128  19.344  29.628  1.00  0.00    -0.344 N 
ATOM     17  H5  UNL     1       2.827  20.084  29.689  1.00  0.00     0.163 HD
HETATM   18  C19 UNL     1       2.492  18.076  30.146  1.00  0.00     0.269 C 
HETATM   19  O3  UNL     1       3.067  18.110  31.304  1.00  0.00    -0.266 OA
HETATM   20  C20 UNL     1       2.285  16.755  29.507  1.00  0.00     0.111 C 
HETATM   21  N6  UNL     1       1.243  15.971  30.106  1.00  0.00    -0.285 N 
HETATM   22  C24 UNL     1       1.632  14.895  30.955  1.00  0.00     0.179 C 
HETATM   23  S1  UNL     1       3.202  14.636  31.342  1.00  0.00    -0.040 SA
HETATM   24  N7  UNL     1       0.673  14.008  31.585  1.00  0.00    -0.362 N 
ATOM     25  H7  UNL     1       0.899  13.428  32.393  1.00  0.00     0.162 HD
ENDROOT
BRANCH  20  26
HETATM   26  C21 UNL     1       3.507  16.264  28.842  1.00  0.00    -0.055 C 
HETATM   27  C22 UNL     1       4.799  16.258  29.554  1.00  0.00     0.045 C 
HETATM   28  C23 UNL     1       3.560  16.341  27.336  1.00  0.00     0.045 C 
ENDBRANCH  20  26
BRANCH  11  29
HETATM   29  C9  UNL     1      -1.656  19.631  25.181  1.00  0.00     0.141 C 
BRANCH  29  30
HETATM   30  C10 UNL     1      -3.097  19.524  24.708  1.00  0.00     0.124 C 
HETATM   31  C11 UNL     1      -4.059  19.669  25.890  1.00  0.00     0.046 C 
HETATM   32  C12 UNL     1      -3.405  20.656  23.759  1.00  0.00     0.046 C 
BRANCH  30  33
HETATM   33  N3  UNL     1      -3.386  18.280  24.034  1.00  0.00    -0.071 N 
ATOM     34  H33 UNL     1      -3.506  17.522  24.706  1.00  0.00     0.275 HD
ATOM     35  H32 UNL     1      -4.322  18.296  23.629  1.00  0.00     0.275 HD
ATOM     36  H31 UNL     1      -2.691  18.032  23.330  1.00  0.00     0.275 HD
ENDBRANCH  30  33
ENDBRANCH  29  30
ENDBRANCH  11  29
BRANCH  15  37
HETATM   37  C15 UNL     1       0.770  21.154  28.787  1.00  0.00     0.033 C 
BRANCH  37  38
HETATM   38  C16 UNL     1       2.071  21.801  28.490  1.00  0.00     0.004 C 
BRANCH  38  39
HETATM   39  C17 UNL     1       2.022  22.492  27.101  1.00  0.00     0.027 C 
BRANCH  39  40
HETATM   40  C18 UNL     1       3.288  22.108  26.349  1.00  0.00     0.229 C 
BRANCH  40  41
HETATM   41  N4  UNL     1       3.699  20.781  26.834  1.00  0.00    -0.079 N 
ATOM     42  H43 UNL     1       3.582  20.670  27.840  1.00  0.00     0.274 HD
ATOM     43  H42 UNL     1       3.064  20.036  26.545  1.00  0.00     0.274 HD
ATOM     44  H41 UNL     1       4.659  20.628  26.525  1.00  0.00     0.274 HD
ENDBRANCH  40  41
ENDBRANCH  39  40
ENDBRANCH  38  39
ENDBRANCH  37  38
ENDBRANCH  15  37
TORSDOF 9
ENDMDL
MODEL 2
REMARK VINA RESULT: -6.732558851      1.114      2.015
REMARK  9 active torsions:
REMARK  status: ('A' for Active; 'I' for Inactive)
REMARK       I    between atoms: N2_9  and  C8_11 
REMARK    1  A    between atoms: C8_11  and  C9_13 
REMARK    2  A    between atoms: C9_13  and  C10_14 
REMARK    3  A    between atoms: C10_14  and  N3_17 
REMARK    4  A    between atoms: C14_23  and  C15_24 
REMARK    5  A    between atoms: C15_24  and  C16_25 
REMARK    6  A    between atoms: C16_25  and  C17_26 
REMARK    7  A    between atoms: C17_26  and  C18_27 
REMARK    8  A    between atoms: C18_27  and  N4_28 
REMARK    9  A    between atoms: C20_36  and  C21_37 
ROOT
HETATM    1  C1  UNL     1      -0.836  13.332  29.516  1.00  0.00     0.032 C 
HETATM    2  C2  UNL     1      -0.783  13.955  30.867  1.00  0.00     0.085 C 
HETATM    3  C3  UNL     1      -1.085  15.408  30.888  1.00  0.00     0.084 C 
HETATM    4  C4  UNL     1      -0.186  16.201  29.928  1.00  0.00     0.044 C 
HETATM    5  C5  UNL     1      -0.747  16.995  29.086  1.00  0.00     0.098 C 
HETATM    6  C6  UNL     1      -2.264  17.015  29.175  1.00  0.00     0.104 C 
HETATM    7  N1  UNL     1      -3.460  17.041  29.216  1.00  0.00    -0.191 NA
HETATM    8  C7  UNL     1      -0.360  17.932  28.039  1.00  0.00     0.106 C 
HETATM    9  N2  UNL     1      -0.944  17.918  26.892  1.00  0.00    -0.323 N 
ATOM     10  H2  UNL     1      -1.664  17.197  26.844  1.00  0.00     0.169 HD
HETATM   11  C8  UNL     1      -0.850  18.611  25.734  1.00  0.00     0.224 C 
HETATM   12  O1  UNL     1      -0.288  18.052  24.725  1.00  0.00    -0.273 OA
HETATM   13  C13 UNL     1       0.701  18.986  28.139  1.00  0.00     0.200 C 
HETATM   14  O2  UNL     1       1.282  19.242  27.059  1.00  0.00    -0.288 OA
HETATM   15  C14 UNL     1       1.048  19.660  29.371  1.00  0.00     0.161 C 
HETATM   16  N5  UNL     1       2.279  19.207  29.990  1.00  0.00    -0.344 N 
ATOM     17  H5  UNL     1       3.012  19.904  30.122  1.00  0.00     0.163 HD
HETATM   18  C19 UNL     1       2.563  17.890  30.428  1.00  0.00     0.269 C 
HETATM   19  O3  UNL     1       3.100  17.814  31.602  1.00  0.00    -0.266 OA
HETATM   20  C20 UNL     1       2.312  16.628  29.692  1.00  0.00     0.111 C 
HETATM   21  N6  UNL     1       1.214  15.860  30.204  1.00  0.00    -0.285 N 
HETATM   22  C24 UNL     1       1.521  14.709  30.986  1.00  0.00     0.179 C 
HETATM   23  S1  UNL     1       3.062  14.344  31.400  1.00  0.00    -0.040 SA
HETATM   24  N7  UNL     1       0.499  13.832  31.526  1.00  0.00    -0.362 N 
ATOM     25  H7  UNL     1       0.670  13.187  32.297  1.00  0.00     0.162 HD
ENDROOT
BRANCH  20  26
HETATM   26  C21 UNL     1       3.529  16.121  29.031  1.00  0.00    -0.055 C 
HETATM   27  C22 UNL     1       4.839  16.202  29.704  1.00  0.00     0.045 C 
HETATM   28  C23 UNL     1       3.540  16.087  27.521  1.00  0.00     0.045 C 
ENDBRANCH  20  26
BRANCH  11  29
HETATM   29  C9  UNL     1      -1.339  19.992  25.465  1.00  0.00     0.141 C 
BRANCH  29  30
HETATM   30  C10 UNL     1      -2.656  19.985  24.705  1.00  0.00     0.124 C 
HETATM   31  C11 UNL     1      -3.825  19.750  25.665  1.00  0.00     0.046 C 
HETATM   32  C12 UNL     1      -2.883  21.335  24.071  1.00  0.00     0.046 C 
BRANCH  30  33
HETATM   33  N3  UNL     1      -2.710  18.984  23.665  1.00  0.00    -0.071 N 
ATOM     34  H33 UNL     1      -3.139  18.126  24.010  1.00  0.00     0.275 HD
ATOM     35  H32 UNL     1      -3.392  19.240  22.952  1.00  0.00     0.275 HD
ATOM     36  H31 UNL     1      -1.801  18.790  23.244  1.00  0.00     0.275 HD
ENDBRANCH  30  33
ENDBRANCH  29  30
ENDBRANCH  11  29
BRANCH  15  37
HETATM   37  C15 UNL     1       1.040  21.138  29.238  1.00  0.00     0.033 C 
BRANCH  37  38
HETATM   38  C16 UNL     1      -0.310  21.724  29.058  1.00  0.00     0.004 C 
BRANCH  38  39
HETATM   39  C17 UNL     1      -1.311  21.085  30.058  1.00  0.00     0.027 C 
BRANCH  39  40
HETATM   40  C18 UNL     1      -2.561  20.702  29.279  1.00  0.00     0.229 C 
BRANCH  40  41
HETATM   41  N4  UNL     1      -3.534  20.171  30.246  1.00  0.00    -0.079 N 
ATOM     42  H43 UNL     1      -4.494  20.206  29.906  1.00  0.00     0.274 HD
ATOM     43  H42 UNL     1      -3.471  19.159  30.361  1.00  0.00     0.274 HD
ATOM     44  H41 UNL     1      -3.402  20.681  31.120  1.00  0.00     0.274 HD
ENDBRANCH  40  41
ENDBRANCH  39  40
ENDBRANCH  38  39
ENDBRANCH  37  38
ENDBRANCH  15  37
TORSDOF 9
ENDMDL
MODEL 3
REMARK VINA RESULT: -6.516876167      1.566      1.846
REMARK  9 active torsions:
REMARK  status: ('A' for Active; 'I' for Inactive)
REMARK       I    between atoms: N2_9  and  C8_11 
REMARK    1  A    between atoms: C8_11  and  C9_13 
REMARK    2  A    between atoms: C9_13  and  C10_14 
REMARK    3  A    between atoms: C10_14  and  N3_17 
REMARK    4  A    between atoms: C14_23  and  C15_24 
REMARK    5  A    between atoms: C15_24  and  C16_25 
REMARK    6  A    between atoms: C16_25  and  C17_26 
REMARK    7  A    between atoms: C17_26  and  C18_27 
REMARK    8  A    between atoms: C18_27  and  N4_28 
REMARK    9  A    between atoms: C20_36  and  C21_37 
ROOT
HETATM    1  C1  UNL     1       0.392  12.628  29.567  1.00  0.00     0.032 C 
HETATM    2  C2  UNL     1       0.279  13.173  30.948  1.00  0.00     0.085 C 
HETATM    3  C3  UNL     1      -0.657  14.318  31.084  1.00  0.00     0.084 C 
HETATM    4  C4  UNL     1      -0.319  15.460  30.114  1.00  0.00     0.044 C 
HETATM    5  C5  UNL     1      -1.260  15.921  29.369  1.00  0.00     0.098 C 
HETATM    6  C6  UNL     1      -2.600  15.230  29.569  1.00  0.00     0.104 C 
HETATM    7  N1  UNL     1      -3.663  14.696  29.699  1.00  0.00    -0.191 NA
HETATM    8  C7  UNL     1      -1.451  16.954  28.358  1.00  0.00     0.106 C 
HETATM    9  N2  UNL     1      -2.067  16.697  27.259  1.00  0.00    -0.323 N 
ATOM     10  H2  UNL     1      -2.375  15.725  27.217  1.00  0.00     0.169 HD
HETATM   11  C8  UNL     1      -2.414  17.380  26.144  1.00  0.00     0.224 C 
HETATM   12  O1  UNL     1      -1.755  17.171  25.063  1.00  0.00    -0.273 OA
HETATM   13  C13 UNL     1      -0.991  18.378  28.448  1.00  0.00     0.200 C 
HETATM   14  O2  UNL     1      -0.699  18.900  27.348  1.00  0.00    -0.288 OA
HETATM   15  C14 UNL     1      -0.879  19.108  29.692  1.00  0.00     0.161 C 
HETATM   16  N5  UNL     1       0.474  19.265  30.189  1.00  0.00    -0.344 N 
ATOM     17  H5  UNL     1       0.811  20.220  30.313  1.00  0.00     0.163 HD
HETATM   18  C19 UNL     1       1.374  18.222  30.520  1.00  0.00     0.269 C 
HETATM   19  O3  UNL     1       1.993  18.378  31.644  1.00  0.00    -0.266 OA
HETATM   20  C20 UNL     1       1.664  17.005  29.725  1.00  0.00     0.111 C 
HETATM   21  N6  UNL     1       1.099  15.803  30.265  1.00  0.00    -0.285 N 
HETATM   22  C24 UNL     1       1.975  14.909  30.947  1.00  0.00     0.179 C 
HETATM   23  S1  UNL     1       3.542  15.293  31.223  1.00  0.00    -0.040 SA
HETATM   24  N7  UNL     1       1.529  13.645  31.502  1.00  0.00    -0.362 N 
ATOM     25  H7  UNL     1       2.050  13.136  32.216  1.00  0.00     0.162 HD
ENDROOT
BRANCH  20  26
HETATM   26  C21 UNL     1       2.910  17.138  28.945  1.00  0.00    -0.055 C 
HETATM   27  C22 UNL     1       3.521  18.462  28.726  1.00  0.00     0.045 C 
HETATM   28  C23 UNL     1       3.206  16.073  27.917  1.00  0.00     0.045 C 
ENDBRANCH  20  26
BRANCH  11  29
HETATM   29  C9  UNL     1      -3.508  18.381  26.001  1.00  0.00     0.141 C 
BRANCH  29  30
HETATM   30  C10 UNL     1      -4.687  17.818  25.223  1.00  0.00     0.124 C 
HETATM   31  C11 UNL     1      -5.940  17.788  26.103  1.00  0.00     0.046 C 
HETATM   32  C12 UNL     1      -5.002  18.721  24.055  1.00  0.00     0.046 C 
BRANCH  30  33
HETATM   33  N3  UNL     1      -4.453  16.488  24.714  1.00  0.00    -0.071 N 
ATOM     34  H33 UNL     1      -4.634  16.447  23.711  1.00  0.00     0.275 HD
ATOM     35  H32 UNL     1      -3.456  16.270  24.714  1.00  0.00     0.275 HD
ATOM     36  H31 UNL     1      -4.981  15.768  25.206  1.00  0.00     0.275 HD
ENDBRANCH  30  33
ENDBRANCH  29  30
ENDBRANCH  11  29
BRANCH  15  37
HETATM   37  C15 UNL     1      -1.581  20.415  29.656  1.00  0.00     0.033 C 
BRANCH  37  38
HETATM   38  C16 UNL     1      -0.687  21.589  29.804  1.00  0.00     0.004 C 
BRANCH  38  39
HETATM   39  C17 UNL     1      -0.490  22.289  28.433  1.00  0.00     0.027 C 
BRANCH  39  40
HETATM   40  C18 UNL     1       1.000  22.279  28.119  1.00  0.00     0.229 C 
BRANCH  40  41
HETATM   41  N4  UNL     1       1.254  21.125  27.242  1.00  0.00    -0.079 N 
ATOM     42  H43 UNL     1       0.541  21.007  26.522  1.00  0.00     0.274 HD
ATOM     43  H42 UNL     1       2.049  21.266  26.618  1.00  0.00     0.274 HD
ATOM     44  H41 UNL     1       1.355  20.305  27.840  1.00  0.00     0.274 HD
ENDBRANCH  40  41
ENDBRANCH  39  40
ENDBRANCH  38  39
ENDBRANCH  37  38
ENDBRANCH  15  37
TORSDOF 9
ENDMDL
MODEL 4
REMARK VINA RESULT: -6.396156103      4.851      8.711
REMARK  9 active torsions:
REMARK  status: ('A' for Active; 'I' for Inactive)
REMARK       I    between atoms: N2_9  and  C8_11 
REMARK    1  A    between atoms: C8_11  and  C9_13 
REMARK    2  A    between atoms: C9_13  and  C10_14 
REMARK    3  A    between atoms: C10_14  and  N3_17 
REMARK    4  A    between atoms: C14_23  and  C15_24 
REMARK    5  A    between atoms: C15_24  and  C16_25 
REMARK    6  A    between atoms: C16_25  and  C17_26 
REMARK    7  A    between atoms: C17_26  and  C18_27 
REMARK    8  A    between atoms: C18_27  and  N4_28 
REMARK    9  A    between atoms: C20_36  and  C21_37 
ROOT
HETATM    1  C1  UNL     1      -0.175  19.599  29.268  1.00  0.00     0.032 C 
HETATM    2  C2  UNL     1      -0.668  20.016  27.926  1.00  0.00     0.085 C 
HETATM    3  C3  UNL     1       0.335  20.726  27.095  1.00  0.00     0.084 C 
HETATM    4  C4  UNL     1       0.929  21.945  27.817  1.00  0.00     0.044 C 
HETATM    5  C5  UNL     1       2.209  22.048  27.880  1.00  0.00     0.098 C 
HETATM    6  C6  UNL     1       2.954  20.904  27.212  1.00  0.00     0.104 C 
HETATM    7  N1  UNL     1       3.564  20.009  26.703  1.00  0.00    -0.191 NA
HETATM    8  C7  UNL     1       3.209  22.972  28.403  1.00  0.00     0.106 C 
HETATM    9  N2  UNL     1       4.211  22.541  29.085  1.00  0.00    -0.323 N 
ATOM     10  H2  UNL     1       4.189  21.527  29.190  1.00  0.00     0.169 HD
HETATM   11  C8  UNL     1       5.287  23.085  29.699  1.00  0.00     0.224 C 
HETATM   12  O1  UNL     1       5.287  23.172  30.979  1.00  0.00    -0.273 OA
HETATM   13  C13 UNL     1       3.218  24.460  28.230  1.00  0.00     0.200 C 
HETATM   14  O2  UNL     1       3.735  25.091  29.181  1.00  0.00    -0.288 OA
HETATM   15  C14 UNL     1       2.676  25.136  27.071  1.00  0.00     0.161 C 
HETATM   16  N5  UNL     1       1.387  25.767  27.280  1.00  0.00    -0.344 N 
ATOM     17  H5  UNL     1       1.337  26.774  27.124  1.00  0.00     0.163 HD
HETATM   18  C19 UNL     1       0.191  25.122  27.678  1.00  0.00     0.269 C 
HETATM   19  O3  UNL     1      -0.858  25.458  27.000  1.00  0.00    -0.266 OA
HETATM   20  C20 UNL     1       0.030  24.128  28.766  1.00  0.00     0.111 C 
HETATM   21  N6  UNL     1      -0.170  22.783  28.307  1.00  0.00    -0.285 N 
HETATM   22  C24 UNL     1      -1.493  22.256  28.364  1.00  0.00     0.179 C 
HETATM   23  S1  UNL     1      -2.764  23.184  28.812  1.00  0.00    -0.040 SA
HETATM   24  N7  UNL     1      -1.814  20.899  27.965  1.00  0.00    -0.362 N 
ATOM     25  H7  UNL     1      -2.760  20.595  27.735  1.00  0.00     0.162 HD
ENDROOT
BRANCH  20  26
HETATM   26  C21 UNL     1      -0.494  24.739  30.002  1.00  0.00    -0.055 C 
HETATM   27  C22 UNL     1      -0.462  26.202  30.188  1.00  0.00     0.045 C 
HETATM   28  C23 UNL     1      -0.493  23.894  31.253  1.00  0.00     0.045 C 
ENDBRANCH  20  26
BRANCH  11  29
HETATM   29  C9  UNL     1       6.523  23.613  29.057  1.00  0.00     0.141 C 
BRANCH  29  30
HETATM   30  C10 UNL     1       7.778  23.056  29.711  1.00  0.00     0.124 C 
HETATM   31  C11 UNL     1       8.886  22.874  28.669  1.00  0.00     0.046 C 
HETATM   32  C12 UNL     1       8.300  24.041  30.728  1.00  0.00     0.046 C 
BRANCH  30  33
HETATM   33  N3  UNL     1       7.563  21.792  30.376  1.00  0.00    -0.071 N 
ATOM     34  H33 UNL     1       6.651  21.774  30.832  1.00  0.00     0.275 HD
ATOM     35  H32 UNL     1       7.427  21.044  29.696  1.00  0.00     0.275 HD
ATOM     36  H31 UNL     1       8.303  21.553  31.035  1.00  0.00     0.275 HD
ENDBRANCH  30  33
ENDBRANCH  29  30
ENDBRANCH  11  29
BRANCH  15  37
HETATM   37  C15 UNL     1       3.636  26.090  26.462  1.00  0.00     0.033 C 
BRANCH  37  38
HETATM   38  C16 UNL     1       3.096  27.459  26.275  1.00  0.00     0.004 C 
BRANCH  38  39
HETATM   39  C17 UNL     1       3.501  28.363  27.469  1.00  0.00     0.027 C 
BRANCH  39  40
HETATM   40  C18 UNL     1       4.208  29.586  26.903  1.00  0.00     0.229 C 
BRANCH  40  41
HETATM   41  N4  UNL     1       5.364  29.864  27.771  1.00  0.00    -0.079 N 
ATOM     42  H43 UNL     1       5.756  30.794  27.626  1.00  0.00     0.274 HD
ATOM     43  H42 UNL     1       5.107  29.979  28.751  1.00  0.00     0.274 HD
ATOM     44  H41 UNL     1       6.043  29.118  27.620  1.00  0.00     0.274 HD
ENDBRANCH  40  41
ENDBRANCH  39  40
ENDBRANCH  38  39
ENDBRANCH  37  38
ENDBRANCH  15  37
TORSDOF 9
ENDMDL
MODEL 5
REMARK VINA RESULT: -6.383868143      2.036      2.644
REMARK  9 active torsions:
REMARK  status: ('A' for Active; 'I' for Inactive)
REMARK       I    between atoms: N2_9  and  C8_11 
REMARK    1  A    between atoms: C8_11  and  C9_13 
REMARK    2  A    between atoms: C9_13  and  C10_14 
REMARK    3  A    between atoms: C10_14  and  N3_17 
REMARK    4  A    between atoms: C14_23  and  C15_24 
REMARK    5  A    between atoms: C15_24  and  C16_25 
REMARK    6  A    between atoms: C16_25  and  C17_26 
REMARK    7  A    between atoms: C17_26  and  C18_27 
REMARK    8  A    between atoms: C18_27  and  N4_28 
REMARK    9  A    between atoms: C20_36  and  C21_37 
ROOT
HETATM    1  C1  UNL     1       1.016  13.169  29.633  1.00  0.00     0.032 C 
HETATM    2  C2  UNL     1       1.190  13.868  30.936  1.00  0.00     0.085 C 
HETATM    3  C3  UNL     1       0.281  15.024  31.141  1.00  0.00     0.084 C 
HETATM    4  C4  UNL     1       0.378  16.048  30.001  1.00  0.00     0.044 C 
HETATM    5  C5  UNL     1      -0.710  16.423  29.428  1.00  0.00     0.098 C 
HETATM    6  C6  UNL     1      -1.961  15.764  29.987  1.00  0.00     0.104 C 
HETATM    7  N1  UNL     1      -2.960  15.251  30.402  1.00  0.00    -0.191 NA
HETATM    8  C7  UNL     1      -1.135  17.336  28.373  1.00  0.00     0.106 C 
HETATM    9  N2  UNL     1      -1.967  16.957  27.468  1.00  0.00    -0.323 N 
ATOM     10  H2  UNL     1      -2.255  15.987  27.602  1.00  0.00     0.169 HD
HETATM   11  C8  UNL     1      -2.558  17.510  26.385  1.00  0.00     0.224 C 
HETATM   12  O1  UNL     1      -2.142  17.177  25.217  1.00  0.00    -0.273 OA
HETATM   13  C13 UNL     1      -0.697  18.759  28.202  1.00  0.00     0.200 C 
HETATM   14  O2  UNL     1      -0.658  19.152  27.013  1.00  0.00    -0.288 OA
HETATM   15  C14 UNL     1      -0.338  19.625  29.304  1.00  0.00     0.161 C 
HETATM   16  N5  UNL     1       1.087  19.834  29.477  1.00  0.00    -0.344 N 
ATOM     17  H5  UNL     1       1.422  20.795  29.418  1.00  0.00     0.163 HD
HETATM   18  C19 UNL     1       2.059  18.832  29.721  1.00  0.00     0.269 C 
HETATM   19  O3  UNL     1       2.901  19.113  30.662  1.00  0.00    -0.266 OA
HETATM   20  C20 UNL     1       2.199  17.532  29.024  1.00  0.00     0.111 C 
HETATM   21  N6  UNL     1       1.788  16.400  29.804  1.00  0.00    -0.285 N 
HETATM   22  C24 UNL     1       2.808  15.588  30.377  1.00  0.00     0.179 C 
HETATM   23  S1  UNL     1       4.390  15.996  30.264  1.00  0.00    -0.040 SA
HETATM   24  N7  UNL     1       2.519  14.396  31.152  1.00  0.00    -0.362 N 
ATOM     25  H7  UNL     1       3.191  13.970  31.790  1.00  0.00     0.162 HD
ENDROOT
BRANCH  20  26
HETATM   26  C21 UNL     1       3.245  17.571  27.985  1.00  0.00    -0.055 C 
HETATM   27  C22 UNL     1       3.550  18.827  27.273  1.00  0.00     0.045 C 
HETATM   28  C23 UNL     1       3.556  16.285  27.259  1.00  0.00     0.045 C 
ENDBRANCH  20  26
BRANCH  11  29
HETATM   29  C9  UNL     1      -3.679  18.491  26.369  1.00  0.00     0.141 C 
BRANCH  29  30
HETATM   30  C10 UNL     1      -4.916  17.922  25.692  1.00  0.00     0.124 C 
HETATM   31  C11 UNL     1      -5.339  16.615  26.367  1.00  0.00     0.046 C 
HETATM   32  C12 UNL     1      -6.069  18.883  25.851  1.00  0.00     0.046 C 
BRANCH  30  33
HETATM   33  N3  UNL     1      -4.730  17.670  24.282  1.00  0.00    -0.071 N 
ATOM     34  H33 UNL     1      -5.421  18.178  23.729  1.00  0.00     0.275 HD
ATOM     35  H32 UNL     1      -3.879  18.119  23.943  1.00  0.00     0.275 HD
ATOM     36  H31 UNL     1      -4.736  16.678  24.045  1.00  0.00     0.275 HD
ENDBRANCH  30  33
ENDBRANCH  29  30
ENDBRANCH  11  29
BRANCH  15  37
HETATM   37  C15 UNL     1      -1.059  20.921  29.274  1.00  0.00     0.033 C 
BRANCH  37  38
HETATM   38  C16 UNL     1      -2.127  21.047  30.295  1.00  0.00     0.004 C 
BRANCH  38  39
HETATM   39  C17 UNL     1      -1.900  22.318  31.156  1.00  0.00     0.027 C 
BRANCH  39  40
HETATM   40  C18 UNL     1      -0.872  23.183  30.439  1.00  0.00     0.229 C 
BRANCH  40  41
HETATM   41  N4  UNL     1      -0.307  24.106  31.436  1.00  0.00    -0.079 N 
ATOM     42  H43 UNL     1      -0.909  24.233  32.249  1.00  0.00     0.274 HD
ATOM     43  H42 UNL     1       0.499  23.718  31.927  1.00  0.00     0.274 HD
ATOM     44  H41 UNL     1      -0.098  24.981  30.955  1.00  0.00     0.274 HD
ENDBRANCH  40  41
ENDBRANCH  39  40
ENDBRANCH  38  39
ENDBRANCH  37  38
ENDBRANCH  15  37
TORSDOF 9
ENDMDL
