MODEL 1
REMARK VINA RESULT: -7.340128672      0.000      0.000
REMARK  9 active torsions:
REMARK  status: ('A' for Active; 'I' for Inactive)
REMARK    1  A    between atoms: C2_2  and  C3_3 
REMARK    2  A    between atoms: C17_27  and  C18_28 
REMARK    3  A    between atoms: C18_28  and  C19_29 
REMARK    4  A    between atoms: C19_29  and  C20_30 
REMARK    5  A    between atoms: C20_30  and  C21_31 
REMARK    6  A    between atoms: C21_31  and  N4_32 
REMARK    7  A    between atoms: C23_38  and  O4_39 
REMARK    8  A    between atoms: C24_41  and  C25_42 
REMARK    9  A    between atoms: C25_42  and  C26_43 
ROOT
HETATM    1  C3  UNL     1      16.439   8.668  -0.906  1.00  0.00     0.176 C 
HETATM    2  N1  UNL     1      15.890   9.959  -1.309  1.00  0.00    -0.340 N 
ATOM      3  H1  UNL     1      16.398  10.769  -0.954  1.00  0.00     0.163 HD
HETATM    4  C4  UNL     1      14.790  10.259  -2.096  1.00  0.00     0.310 C 
HETATM    5  O1  UNL     1      13.894  11.036  -1.566  1.00  0.00    -0.262 OA
HETATM    6  C5  UNL     1      14.465   9.841  -3.448  1.00  0.00     0.309 C 
HETATM    7  O2  UNL     1      13.286   9.339  -3.599  1.00  0.00    -0.262 OA
HETATM    8  N2  UNL     1      15.244   9.906  -4.604  1.00  0.00    -0.352 N 
ATOM      9  H2  UNL     1      15.308   9.064  -5.175  1.00  0.00     0.162 HD
HETATM   10  C6  UNL     1      15.969  11.076  -5.056  1.00  0.00     0.135 C 
HETATM   11  C7  UNL     1      17.050  10.702  -6.056  1.00  0.00     0.114 C 
HETATM   12  C8  UNL     1      18.353  10.786  -5.532  1.00  0.00    -0.100 C 
HETATM   13  C9  UNL     1      19.358  10.856  -5.091  1.00  0.00    -0.067 C 
HETATM   14  C10 UNL     1      20.642  10.943  -4.476  1.00  0.00     0.021 A 
HETATM   15  C11 UNL     1      21.658  10.831  -5.424  1.00  0.00     0.044 A 
HETATM   16  C12 UNL     1      22.981  10.874  -5.075  1.00  0.00     0.037 A 
HETATM   17 CL1  UNL     1      24.272  10.737  -6.244  1.00  0.00    -0.084 Cl
HETATM   18  C13 UNL     1      23.220  11.033  -3.731  1.00  0.00     0.053 A 
HETATM   19  C14 UNL     1      22.205  11.150  -2.746  1.00  0.00     0.037 A 
HETATM   20  C15 UNL     1      20.896  11.106  -3.118  1.00  0.00     0.050 A 
HETATM   21  N3  UNL     1      22.802  11.302  -1.439  1.00  0.00    -0.325 N 
ATOM     22  H3  UNL     1      23.601  11.936  -1.433  1.00  0.00     0.169 HD
HETATM   23  C16 UNL     1      22.515  10.764  -0.188  1.00  0.00     0.245 C 
HETATM   24  O3  UNL     1      22.354  11.583   0.787  1.00  0.00    -0.271 OA
HETATM   25  C17 UNL     1      22.373   9.285   0.136  1.00  0.00     0.178 C 
HETATM   26  N5  UNL     1      21.617   9.172   1.353  1.00  0.00    -0.355 N 
HETATM   27  C22 UNL     1      22.369   9.433   2.600  1.00  0.00     0.152 C 
HETATM   28  C23 UNL     1      20.251   8.883   1.540  1.00  0.00     0.137 C 
HETATM   29  C24 UNL     1      19.328   8.087   0.715  1.00  0.00     0.159 C 
HETATM   30  N6  UNL     1      18.985   8.718  -0.547  1.00  0.00    -0.347 N 
ATOM     31  H6  UNL     1      19.654   9.400  -0.906  1.00  0.00     0.163 HD
HETATM   32  C29 UNL     1      17.835   8.501  -1.335  1.00  0.00     0.241 C 
HETATM   33  O5  UNL     1      17.982   8.123  -2.556  1.00  0.00    -0.271 OA
ENDROOT
BRANCH  25  34
HETATM   34  C18 UNL     1      23.802   8.764   0.248  1.00  0.00     0.035 C 
BRANCH  34  35
HETATM   35  C19 UNL     1      24.085   7.494  -0.422  1.00  0.00     0.004 C 
BRANCH  35  36
HETATM   36  C20 UNL     1      22.996   7.111  -1.383  1.00  0.00     0.027 C 
BRANCH  36  37
HETATM   37  C21 UNL     1      23.300   5.801  -2.041  1.00  0.00     0.229 C 
BRANCH  37  38
HETATM   38  N4  UNL     1      22.080   5.297  -2.704  1.00  0.00    -0.079 N 
ATOM     39  H43 UNL     1      22.090   4.284  -2.814  1.00  0.00     0.274 HD
ATOM     40  H42 UNL     1      21.257   5.369  -2.106  1.00  0.00     0.274 HD
ATOM     41  H41 UNL     1      21.958   5.783  -3.592  1.00  0.00     0.274 HD
ENDBRANCH  37  38
ENDBRANCH  36  37
ENDBRANCH  35  36
ENDBRANCH  34  35
ENDBRANCH  25  34
BRANCH  28  42
HETATM   42  O4  UNL     1      19.690   9.391   2.604  1.00  0.00    -0.348 OA
ATOM     43  H4  UNL     1      20.175   9.311   3.417  1.00  0.00     0.219 HD
ENDBRANCH  28  42
BRANCH  29  44
HETATM   44  C25 UNL     1      19.671   6.668   0.473  1.00  0.00     0.037 C 
BRANCH  44  45
HETATM   45  C26 UNL     1      20.522   5.950   1.431  1.00  0.00    -0.020 C 
HETATM   46  C27 UNL     1      21.095   4.673   0.785  1.00  0.00     0.009 C 
HETATM   47  C28 UNL     1      20.020   5.589   2.763  1.00  0.00     0.009 C 
ENDBRANCH  44  45
ENDBRANCH  29  44
BRANCH   1  48
HETATM   48  C2  UNL     1      15.529   7.585  -1.359  1.00  0.00     0.030 C 
HETATM   49  C1  UNL     1      14.775   6.877  -0.278  1.00  0.00     0.007 C 
ENDBRANCH   1  48
TORSDOF 9
ENDMDL
MODEL 2
REMARK VINA RESULT: -7.296622750      3.102      7.355
REMARK  9 active torsions:
REMARK  status: ('A' for Active; 'I' for Inactive)
REMARK    1  A    between atoms: C2_2  and  C3_3 
REMARK    2  A    between atoms: C17_27  and  C18_28 
REMARK    3  A    between atoms: C18_28  and  C19_29 
REMARK    4  A    between atoms: C19_29  and  C20_30 
REMARK    5  A    between atoms: C20_30  and  C21_31 
REMARK    6  A    between atoms: C21_31  and  N4_32 
REMARK    7  A    between atoms: C23_38  and  O4_39 
REMARK    8  A    between atoms: C24_41  and  C25_42 
REMARK    9  A    between atoms: C25_42  and  C26_43 
ROOT
HETATM    1  C3  UNL     1      21.404   8.477  -0.331  1.00  0.00     0.176 C 
HETATM    2  N1  UNL     1      21.589   7.705  -1.556  1.00  0.00    -0.340 N 
ATOM      3  H1  UNL     1      20.821   7.072  -1.783  1.00  0.00     0.163 HD
HETATM    4  C4  UNL     1      22.640   7.694  -2.459  1.00  0.00     0.310 C 
HETATM    5  O1  UNL     1      23.187   6.541  -2.695  1.00  0.00    -0.262 OA
HETATM    6  C5  UNL     1      23.244   8.784  -3.204  1.00  0.00     0.309 C 
HETATM    7  O2  UNL     1      24.529   8.867  -3.111  1.00  0.00    -0.262 OA
HETATM    8  N2  UNL     1      22.635   9.751  -4.005  1.00  0.00    -0.352 N 
ATOM      9  H2  UNL     1      22.898  10.724  -3.849  1.00  0.00     0.162 HD
HETATM   10  C6  UNL     1      21.657   9.482  -5.040  1.00  0.00     0.135 C 
HETATM   11  C7  UNL     1      20.873  10.734  -5.396  1.00  0.00     0.114 C 
HETATM   12  C8  UNL     1      19.550  10.722  -4.921  1.00  0.00    -0.100 C 
HETATM   13  C9  UNL     1      18.522  10.685  -4.531  1.00  0.00    -0.067 C 
HETATM   14  C10 UNL     1      17.203  10.605  -3.994  1.00  0.00     0.021 A 
HETATM   15  C11 UNL     1      16.396  11.623  -4.496  1.00  0.00     0.044 A 
HETATM   16  C12 UNL     1      15.087  11.763  -4.118  1.00  0.00     0.037 A 
HETATM   17 CL1  UNL     1      14.056  13.032  -4.735  1.00  0.00    -0.084 Cl
HETATM   18  C13 UNL     1      14.643  10.828  -3.216  1.00  0.00     0.053 A 
HETATM   19  C14 UNL     1      15.443   9.780  -2.689  1.00  0.00     0.037 A 
HETATM   20  C15 UNL     1      16.742   9.662  -3.080  1.00  0.00     0.050 A 
HETATM   21  N3  UNL     1      14.666   8.984  -1.767  1.00  0.00    -0.325 N 
ATOM     22  H3  UNL     1      13.721   8.793  -2.098  1.00  0.00     0.169 HD
HETATM   23  C16 UNL     1      14.940   8.423  -0.522  1.00  0.00     0.245 C 
HETATM   24  O3  UNL     1      14.724   7.166  -0.379  1.00  0.00    -0.271 OA
HETATM   25  C17 UNL     1      15.474   9.165   0.692  1.00  0.00     0.178 C 
HETATM   26  N5  UNL     1      16.068   8.196   1.572  1.00  0.00    -0.355 N 
HETATM   27  C22 UNL     1      15.121   7.413   2.394  1.00  0.00     0.152 C 
HETATM   28  C23 UNL     1      17.423   7.851   1.748  1.00  0.00     0.137 C 
HETATM   29  C24 UNL     1      18.639   8.663   1.574  1.00  0.00     0.159 C 
HETATM   30  N6  UNL     1      18.936   8.976   0.187  1.00  0.00    -0.347 N 
ATOM     31  H6  UNL     1      18.144   8.958  -0.457  1.00  0.00     0.163 HD
HETATM   32  C29 UNL     1      20.188   9.302  -0.374  1.00  0.00     0.241 C 
HETATM   33  O5  UNL     1      20.318  10.420  -0.996  1.00  0.00    -0.271 OA
ENDROOT
BRANCH  25  34
HETATM   34  C18 UNL     1      14.264   9.877   1.287  1.00  0.00     0.035 C 
BRANCH  34  35
HETATM   35  C19 UNL     1      14.147  11.307   1.000  1.00  0.00     0.004 C 
BRANCH  35  36
HETATM   36  C20 UNL     1      12.733  11.794   1.139  1.00  0.00     0.027 C 
BRANCH  36  37
HETATM   37  C21 UNL     1      12.701  13.238   1.534  1.00  0.00     0.229 C 
BRANCH  37  38
HETATM   38  N4  UNL     1      13.522  14.017   0.586  1.00  0.00    -0.079 N 
ATOM     39  H43 UNL     1      14.319  14.464   1.041  1.00  0.00     0.274 HD
ATOM     40  H42 UNL     1      14.041  13.421  -0.059  1.00  0.00     0.274 HD
ATOM     41  H41 UNL     1      12.927  14.687   0.100  1.00  0.00     0.274 HD
ENDBRANCH  37  38
ENDBRANCH  36  37
ENDBRANCH  35  36
ENDBRANCH  34  35
ENDBRANCH  25  34
BRANCH  28  42
HETATM   42  O4  UNL     1      17.667   6.624   2.121  1.00  0.00    -0.348 OA
ATOM     43  H4  UNL     1      18.440   6.491   2.656  1.00  0.00     0.219 HD
ENDBRANCH  28  42
BRANCH  29  44
HETATM   44  C25 UNL     1      18.769   9.890   2.390  1.00  0.00     0.037 C 
BRANCH  44  45
HETATM   45  C26 UNL     1      19.952  10.082   3.238  1.00  0.00    -0.020 C 
HETATM   46  C27 UNL     1      20.821  11.232   2.694  1.00  0.00     0.009 C 
HETATM   47  C28 UNL     1      20.845   8.959   3.553  1.00  0.00     0.009 C 
ENDBRANCH  44  45
ENDBRANCH  29  44
BRANCH   1  48
HETATM   48  C2  UNL     1      22.646   9.237  -0.038  1.00  0.00     0.030 C 
HETATM   49  C1  UNL     1      23.532   8.651   1.015  1.00  0.00     0.007 C 
ENDBRANCH   1  48
TORSDOF 9
ENDMDL
MODEL 3
REMARK VINA RESULT: -7.001903280      3.709      6.157
REMARK  9 active torsions:
REMARK  status: ('A' for Active; 'I' for Inactive)
REMARK    1  A    between atoms: C2_2  and  C3_3 
REMARK    2  A    between atoms: C17_27  and  C18_28 
REMARK    3  A    between atoms: C18_28  and  C19_29 
REMARK    4  A    between atoms: C19_29  and  C20_30 
REMARK    5  A    between atoms: C20_30  and  C21_31 
REMARK    6  A    between atoms: C21_31  and  N4_32 
REMARK    7  A    between atoms: C23_38  and  O4_39 
REMARK    8  A    between atoms: C24_41  and  C25_42 
REMARK    9  A    between atoms: C25_42  and  C26_43 
ROOT
HETATM    1  C3  UNL     1      16.962   7.631   3.125  1.00  0.00     0.176 C 
HETATM    2  N1  UNL     1      16.639   8.758   3.994  1.00  0.00    -0.340 N 
ATOM      3  H1  UNL     1      17.233   9.579   3.870  1.00  0.00     0.163 HD
HETATM    4  C4  UNL     1      15.655   8.892   4.960  1.00  0.00     0.310 C 
HETATM    5  O1  UNL     1      16.053   9.225   6.150  1.00  0.00    -0.262 OA
HETATM    6  C5  UNL     1      14.217   8.719   4.859  1.00  0.00     0.309 C 
HETATM    7  O2  UNL     1      13.694   7.938   5.745  1.00  0.00    -0.262 OA
HETATM    8  N2  UNL     1      13.321   9.275   3.945  1.00  0.00    -0.352 N 
ATOM      9  H2  UNL     1      12.661   8.644   3.490  1.00  0.00     0.162 HD
HETATM   10  C6  UNL     1      13.255  10.678   3.590  1.00  0.00     0.135 C 
HETATM   11  C7  UNL     1      12.518  10.881   2.277  1.00  0.00     0.114 C 
HETATM   12  C8  UNL     1      13.363  11.225   1.207  1.00  0.00    -0.100 C 
HETATM   13  C9  UNL     1      14.050  11.486   0.389  1.00  0.00    -0.067 C 
HETATM   14  C10 UNL     1      14.977  11.806  -0.647  1.00  0.00     0.021 A 
HETATM   15  C11 UNL     1      14.314  12.221  -1.800  1.00  0.00     0.044 A 
HETATM   16  C12 UNL     1      14.991  12.572  -2.938  1.00  0.00     0.037 A 
HETATM   17 CL1  UNL     1      14.182  13.095  -4.395  1.00  0.00    -0.084 Cl
HETATM   18  C13 UNL     1      16.359  12.482  -2.848  1.00  0.00     0.053 A 
HETATM   19  C14 UNL     1      17.059  12.063  -1.686  1.00  0.00     0.037 A 
HETATM   20  C15 UNL     1      16.364  11.720  -0.567  1.00  0.00     0.050 A 
HETATM   21  N3  UNL     1      18.482  12.081  -1.936  1.00  0.00    -0.325 N 
ATOM     22  H3  UNL     1      18.790  12.904  -2.454  1.00  0.00     0.169 HD
HETATM   23  C16 UNL     1      19.520  11.209  -1.618  1.00  0.00     0.245 C 
HETATM   24  O3  UNL     1      20.536  11.698  -1.004  1.00  0.00    -0.271 OA
HETATM   25  C17 UNL     1      19.563   9.722  -1.930  1.00  0.00     0.178 C 
HETATM   26  N5  UNL     1      20.515   9.114  -1.041  1.00  0.00    -0.355 N 
HETATM   27  C22 UNL     1      21.937   9.292  -1.407  1.00  0.00     0.152 C 
HETATM   28  C23 UNL     1      20.301   8.399   0.154  1.00  0.00     0.137 C 
HETATM   29  C24 UNL     1      19.155   7.576   0.575  1.00  0.00     0.159 C 
HETATM   30  N6  UNL     1      17.961   8.350   0.867  1.00  0.00    -0.347 N 
ATOM     31  H6  UNL     1      17.895   9.262   0.414  1.00  0.00     0.163 HD
HETATM   32  C29 UNL     1      16.882   7.989   1.701  1.00  0.00     0.241 C 
HETATM   33  O5  UNL     1      15.696   7.962   1.205  1.00  0.00    -0.271 OA
ENDROOT
BRANCH  25  34
HETATM   34  C18 UNL     1      19.953   9.637  -3.402  1.00  0.00     0.035 C 
BRANCH  34  35
HETATM   35  C19 UNL     1      20.043  10.906  -4.125  1.00  0.00     0.004 C 
BRANCH  35  36
HETATM   36  C20 UNL     1      19.447  10.812  -5.500  1.00  0.00     0.027 C 
BRANCH  36  37
HETATM   37  C21 UNL     1      17.952  10.769  -5.433  1.00  0.00     0.229 C 
BRANCH  37  38
HETATM   38  N4  UNL     1      17.412  10.542  -6.789  1.00  0.00    -0.079 N 
ATOM     39  H43 UNL     1      18.094  10.104  -7.408  1.00  0.00     0.274 HD
ATOM     40  H42 UNL     1      16.707   9.806  -6.807  1.00  0.00     0.274 HD
ATOM     41  H41 UNL     1      17.061  11.424  -7.161  1.00  0.00     0.274 HD
ENDBRANCH  37  38
ENDBRANCH  36  37
ENDBRANCH  35  36
ENDBRANCH  34  35
ENDBRANCH  25  34
BRANCH  28  42
HETATM   42  O4  UNL     1      21.253   8.459   1.045  1.00  0.00    -0.348 OA
ATOM     43  H4  UNL     1      21.406   9.308   1.443  1.00  0.00     0.219 HD
ENDBRANCH  28  42
BRANCH  29  44
HETATM   44  C25 UNL     1      18.792   6.418  -0.271  1.00  0.00     0.037 C 
BRANCH  44  45
HETATM   45  C26 UNL     1      19.827   5.734  -1.056  1.00  0.00    -0.020 C 
HETATM   46  C27 UNL     1      19.194   5.000  -2.253  1.00  0.00     0.009 C 
HETATM   47  C28 UNL     1      20.772   4.810  -0.415  1.00  0.00     0.009 C 
ENDBRANCH  44  45
ENDBRANCH  29  44
BRANCH   1  48
HETATM   48  C2  UNL     1      16.131   6.462   3.507  1.00  0.00     0.030 C 
HETATM   49  C1  UNL     1      16.808   5.435   4.358  1.00  0.00     0.007 C 
ENDBRANCH   1  48
TORSDOF 9
ENDMDL
MODEL 4
REMARK VINA RESULT: -6.877602400      4.053      8.042
REMARK  9 active torsions:
REMARK  status: ('A' for Active; 'I' for Inactive)
REMARK    1  A    between atoms: C2_2  and  C3_3 
REMARK    2  A    between atoms: C17_27  and  C18_28 
REMARK    3  A    between atoms: C18_28  and  C19_29 
REMARK    4  A    between atoms: C19_29  and  C20_30 
REMARK    5  A    between atoms: C20_30  and  C21_31 
REMARK    6  A    between atoms: C21_31  and  N4_32 
REMARK    7  A    between atoms: C23_38  and  O4_39 
REMARK    8  A    between atoms: C24_41  and  C25_42 
REMARK    9  A    between atoms: C25_42  and  C26_43 
ROOT
HETATM    1  C3  UNL     1      12.968  10.265   2.168  1.00  0.00     0.176 C 
HETATM    2  N1  UNL     1      12.577   9.024   2.828  1.00  0.00    -0.340 N 
ATOM      3  H1  UNL     1      12.668   8.186   2.253  1.00  0.00     0.163 HD
HETATM    4  C4  UNL     1      12.103   8.801   4.110  1.00  0.00     0.310 C 
HETATM    5  O1  UNL     1      10.968   8.178   4.208  1.00  0.00    -0.262 OA
HETATM    6  C5  UNL     1      12.680   9.155   5.395  1.00  0.00     0.309 C 
HETATM    7  O2  UNL     1      11.888   9.784   6.198  1.00  0.00    -0.262 OA
HETATM    8  N2  UNL     1      13.964   8.913   5.884  1.00  0.00    -0.352 N 
ATOM      9  H2  UNL     1      14.463   9.698   6.303  1.00  0.00     0.162 HD
HETATM   10  C6  UNL     1      14.644   7.635   5.844  1.00  0.00     0.135 C 
HETATM   11  C7  UNL     1      16.143   7.802   6.025  1.00  0.00     0.114 C 
HETATM   12  C8  UNL     1      16.878   7.601   4.844  1.00  0.00    -0.100 C 
HETATM   13  C9  UNL     1      17.423   7.443   3.902  1.00  0.00    -0.067 C 
HETATM   14  C10 UNL     1      18.091   7.247   2.656  1.00  0.00     0.021 A 
HETATM   15  C11 UNL     1      19.470   7.166   2.836  1.00  0.00     0.044 A 
HETATM   16  C12 UNL     1      20.328   6.991   1.783  1.00  0.00     0.037 A 
HETATM   17 CL1  UNL     1      22.061   6.886   1.984  1.00  0.00    -0.084 Cl
HETATM   18  C13 UNL     1      19.724   6.902   0.553  1.00  0.00     0.053 A 
HETATM   19  C14 UNL     1      18.322   6.980   0.342  1.00  0.00     0.037 A 
HETATM   20  C15 UNL     1      17.490   7.154   1.405  1.00  0.00     0.050 A 
HETATM   21  N3  UNL     1      18.029   6.853  -1.067  1.00  0.00    -0.325 N 
ATOM     22  H3  UNL     1      18.579   6.130  -1.529  1.00  0.00     0.169 HD
HETATM   23  C16 UNL     1      17.152   7.512  -1.925  1.00  0.00     0.245 C 
HETATM   24  O3  UNL     1      16.345   6.791  -2.615  1.00  0.00    -0.271 OA
HETATM   25  C17 UNL     1      17.058   9.016  -2.121  1.00  0.00     0.178 C 
HETATM   26  N5  UNL     1      15.764   9.308  -2.674  1.00  0.00    -0.355 N 
HETATM   27  C22 UNL     1      15.614   9.050  -4.122  1.00  0.00     0.152 C 
HETATM   28  C23 UNL     1      14.597   9.772  -2.036  1.00  0.00     0.137 C 
HETATM   29  C24 UNL     1      14.441  10.611  -0.836  1.00  0.00     0.159 C 
HETATM   30  N6  UNL     1      14.803   9.935   0.397  1.00  0.00    -0.347 N 
ATOM     31  H6  UNL     1      15.454   9.154   0.307  1.00  0.00     0.163 HD
HETATM   32  C29 UNL     1      14.363  10.231   1.704  1.00  0.00     0.241 C 
HETATM   33  O5  UNL     1      15.237  10.499   2.608  1.00  0.00    -0.271 OA
ENDROOT
BRANCH  25  34
HETATM   34  C18 UNL     1      18.217   9.368  -3.048  1.00  0.00     0.035 C 
BRANCH  34  35
HETATM   35  C19 UNL     1      18.770  10.716  -2.913  1.00  0.00     0.004 C 
BRANCH  35  36
HETATM   36  C20 UNL     1      18.542  11.543  -4.146  1.00  0.00     0.027 C 
BRANCH  36  37
HETATM   37  C21 UNL     1      19.006  10.817  -5.370  1.00  0.00     0.229 C 
BRANCH  37  38
HETATM   38  N4  UNL     1      17.936  10.849  -6.387  1.00  0.00    -0.079 N 
ATOM     39  H43 UNL     1      17.007  10.761  -5.975  1.00  0.00     0.274 HD
ATOM     40  H42 UNL     1      17.822  11.774  -6.801  1.00  0.00     0.274 HD
ATOM     41  H41 UNL     1      18.119  10.130  -7.087  1.00  0.00     0.274 HD
ENDBRANCH  37  38
ENDBRANCH  36  37
ENDBRANCH  35  36
ENDBRANCH  34  35
ENDBRANCH  25  34
BRANCH  28  42
HETATM   42  O4  UNL     1      13.461   9.414  -2.570  1.00  0.00    -0.348 OA
ATOM     43  H4  UNL     1      12.715   9.365  -1.984  1.00  0.00     0.219 HD
ENDBRANCH  28  42
BRANCH  29  44
HETATM   44  C25 UNL     1      15.055  11.956  -0.854  1.00  0.00     0.037 C 
BRANCH  44  45
HETATM   45  C26 UNL     1      15.597  12.495  -2.108  1.00  0.00    -0.020 C 
HETATM   46  C27 UNL     1      16.668  13.563  -1.814  1.00  0.00     0.009 C 
HETATM   47  C28 UNL     1      14.707  13.030  -3.147  1.00  0.00     0.009 C 
ENDBRANCH  44  45
ENDBRANCH  29  44
BRANCH   1  48
HETATM   48  C2  UNL     1      12.648  11.414   3.053  1.00  0.00     0.030 C 
HETATM   49  C1  UNL     1      12.413  12.720   2.362  1.00  0.00     0.007 C 
ENDBRANCH   1  48
TORSDOF 9
ENDMDL
MODEL 5
REMARK VINA RESULT: -6.749533044      4.037      7.810
REMARK  9 active torsions:
REMARK  status: ('A' for Active; 'I' for Inactive)
REMARK    1  A    between atoms: C2_2  and  C3_3 
REMARK    2  A    between atoms: C17_27  and  C18_28 
REMARK    3  A    between atoms: C18_28  and  C19_29 
REMARK    4  A    between atoms: C19_29  and  C20_30 
REMARK    5  A    between atoms: C20_30  and  C21_31 
REMARK    6  A    between atoms: C21_31  and  N4_32 
REMARK    7  A    between atoms: C23_38  and  O4_39 
REMARK    8  A    between atoms: C24_41  and  C25_42 
REMARK    9  A    between atoms: C25_42  and  C26_43 
ROOT
HETATM    1  C3  UNL     1      21.176   9.008   0.802  1.00  0.00     0.176 C 
HETATM    2  N1  UNL     1      21.110   8.763  -0.635  1.00  0.00    -0.340 N 
ATOM      3  H1  UNL     1      20.315   8.199  -0.938  1.00  0.00     0.163 HD
HETATM    4  C4  UNL     1      21.953   9.175  -1.655  1.00  0.00     0.310 C 
HETATM    5  O1  UNL     1      22.447   8.241  -2.410  1.00  0.00    -0.262 OA
HETATM    6  C5  UNL     1      22.385  10.509  -2.030  1.00  0.00     0.309 C 
HETATM    7  O2  UNL     1      23.662  10.658  -2.155  1.00  0.00    -0.262 OA
HETATM    8  N2  UNL     1      21.620  11.650  -2.274  1.00  0.00    -0.352 N 
ATOM      9  H2  UNL     1      21.905  12.515  -1.813  1.00  0.00     0.162 HD
HETATM   10  C6  UNL     1      20.452  11.704  -3.130  1.00  0.00     0.135 C 
HETATM   11  C7  UNL     1      19.605  12.929  -2.830  1.00  0.00     0.114 C 
HETATM   12  C8  UNL     1      18.407  12.632  -2.156  1.00  0.00    -0.100 C 
HETATM   13  C9  UNL     1      17.482  12.368  -1.624  1.00  0.00    -0.067 C 
HETATM   14  C10 UNL     1      16.301  11.986  -0.920  1.00  0.00     0.021 A 
HETATM   15  C11 UNL     1      15.403  13.048  -0.836  1.00  0.00     0.044 A 
HETATM   16  C12 UNL     1      14.199  12.929  -0.196  1.00  0.00     0.037 A 
HETATM   17 CL1  UNL     1      13.056  14.245  -0.079  1.00  0.00    -0.084 Cl
HETATM   18  C13 UNL     1      13.955  11.692   0.350  1.00  0.00     0.053 A 
HETATM   19  C14 UNL     1      14.851  10.594   0.280  1.00  0.00     0.037 A 
HETATM   20  C15 UNL     1      16.042  10.737  -0.364  1.00  0.00     0.050 A 
HETATM   21  N3  UNL     1      14.284   9.451   0.958  1.00  0.00    -0.325 N 
ATOM     22  H3  UNL     1      13.292   9.319   0.764  1.00  0.00     0.169 HD
HETATM   23  C16 UNL     1      14.810   8.494   1.822  1.00  0.00     0.245 C 
HETATM   24  O3  UNL     1      14.635   7.260   1.515  1.00  0.00    -0.271 OA
HETATM   25  C17 UNL     1      15.578   8.774   3.103  1.00  0.00     0.178 C 
HETATM   26  N5  UNL     1      16.346   7.602   3.421  1.00  0.00    -0.355 N 
HETATM   27  C22 UNL     1      15.592   6.494   4.046  1.00  0.00     0.152 C 
HETATM   28  C23 UNL     1      17.709   7.329   3.195  1.00  0.00     0.137 C 
HETATM   29  C24 UNL     1      18.860   8.245   3.117  1.00  0.00     0.159 C 
HETATM   30  N6  UNL     1      18.864   9.073   1.924  1.00  0.00    -0.347 N 
ATOM     31  H6  UNL     1      17.957   9.230   1.483  1.00  0.00     0.163 HD
HETATM   32  C29 UNL     1      19.972   9.686   1.304  1.00  0.00     0.241 C 
HETATM   33  O5  UNL     1      19.966  10.962   1.141  1.00  0.00    -0.271 OA
ENDROOT
BRANCH  25  34
HETATM   34  C18 UNL     1      14.512   9.113   4.139  1.00  0.00     0.035 C 
BRANCH  34  35
HETATM   35  C19 UNL     1      13.376   9.906   3.668  1.00  0.00     0.004 C 
BRANCH  35  36
HETATM   36  C20 UNL     1      12.062   9.282   4.042  1.00  0.00     0.027 C 
BRANCH  36  37
HETATM   37  C21 UNL     1      12.220   7.815   4.295  1.00  0.00     0.229 C 
BRANCH  37  38
HETATM   38  N4  UNL     1      11.826   7.069   3.083  1.00  0.00    -0.079 N 
ATOM     39  H43 UNL     1      11.023   7.488   2.614  1.00  0.00     0.274 HD
ATOM     40  H42 UNL     1      12.503   7.172   2.328  1.00  0.00     0.274 HD
ATOM     41  H41 UNL     1      11.665   6.092   3.329  1.00  0.00     0.274 HD
ENDBRANCH  37  38
ENDBRANCH  36  37
ENDBRANCH  35  36
ENDBRANCH  34  35
ENDBRANCH  25  34
BRANCH  28  42
HETATM   42  O4  UNL     1      18.031   6.076   3.021  1.00  0.00    -0.348 OA
ATOM     43  H4  UNL     1      18.658   5.712   3.635  1.00  0.00     0.219 HD
ENDBRANCH  28  42
BRANCH  29  44
HETATM   44  C25 UNL     1      19.147   9.089   4.298  1.00  0.00     0.037 C 
BRANCH  44  45
HETATM   45  C26 UNL     1      18.716   8.650   5.631  1.00  0.00    -0.020 C 
HETATM   46  C27 UNL     1      17.656   9.616   6.196  1.00  0.00     0.009 C 
HETATM   47  C28 UNL     1      19.696   8.393   6.695  1.00  0.00     0.009 C 
ENDBRANCH  44  45
ENDBRANCH  29  44
BRANCH   1  48
HETATM   48  C2  UNL     1      22.447   9.706   1.123  1.00  0.00     0.030 C 
HETATM   49  C1  UNL     1      22.884   9.633   2.552  1.00  0.00     0.007 C 
ENDBRANCH   1  48
TORSDOF 9
ENDMDL
