MODEL 1
REMARK VINA RESULT: -7.355747735      0.000      0.000
REMARK  9 active torsions:
REMARK  status: ('A' for Active; 'I' for Inactive)
REMARK    1  A    between atoms: C2_2  and  C3_3 
REMARK    2  A    between atoms: C3_3  and  C5_5 
REMARK    3  A    between atoms: C7_10  and  C8_11 
REMARK    4  A    between atoms: C12_18  and  C13_19 
REMARK    5  A    between atoms: C16_26  and  C17_27 
REMARK    6  A    between atoms: C17_27  and  C18_28 
REMARK    7  A    between atoms: C21_33  and  O4_34 
REMARK    8  A    between atoms: C22_36  and  C23_37 
REMARK    9  A    between atoms: C29_45  and  O5_46 
ROOT
HETATM    1  C5  UNL     1      21.557   7.374  -1.373  1.00  0.00     0.163 C 
HETATM    2  N1  UNL     1      21.856   8.651  -0.844  1.00  0.00    -0.347 N 
ATOM      3  H1  UNL     1      22.751   8.646  -0.354  1.00  0.00     0.163 HD
HETATM    4  C6  UNL     1      21.274   9.900  -0.806  1.00  0.00     0.241 C 
HETATM    5  O1  UNL     1      21.231  10.466   0.356  1.00  0.00    -0.271 OA
HETATM    6  C7  UNL     1      20.677  10.737  -1.872  1.00  0.00     0.180 C 
HETATM    7  N2  UNL     1      19.892  11.830  -1.331  1.00  0.00    -0.346 N 
ATOM      8  H2  UNL     1      20.270  12.239  -0.476  1.00  0.00     0.163 HD
HETATM    9  C11 UNL     1      18.713  12.418  -1.775  1.00  0.00     0.242 C 
HETATM   10  O2  UNL     1      18.747  13.664  -2.120  1.00  0.00    -0.271 OA
HETATM   11  C12 UNL     1      17.348  11.790  -1.918  1.00  0.00     0.194 C 
HETATM   12  N3  UNL     1      16.853  11.338  -0.643  1.00  0.00    -0.345 N 
ATOM     13  H3  UNL     1      17.296  11.805   0.148  1.00  0.00     0.163 HD
HETATM   14  C15 UNL     1      15.913  10.411  -0.266  1.00  0.00     0.241 C 
HETATM   15  O3  UNL     1      14.988  10.873   0.522  1.00  0.00    -0.271 OA
HETATM   16  C16 UNL     1      15.776   8.974  -0.603  1.00  0.00     0.176 C 
HETATM   17  N4  UNL     1      17.010   8.324  -0.979  1.00  0.00    -0.356 N 
ATOM     18  H4  UNL     1      17.516   8.826  -1.709  1.00  0.00     0.162 HD
HETATM   19  C21 UNL     1      17.661   7.175  -0.569  1.00  0.00     0.160 C 
HETATM   20  C22 UNL     1      18.580   6.893   0.563  1.00  0.00     0.066 C 
HETATM   21  N5  UNL     1      19.724   6.175   0.087  1.00  0.00    -0.338 N 
ATOM     22  H5  UNL     1      19.545   5.173   0.026  1.00  0.00     0.167 HD
HETATM   23  C29 UNL     1      21.005   6.490  -0.310  1.00  0.00     0.139 C 
ENDROOT
BRANCH  20  24
HETATM   24  C23 UNL     1      18.751   7.951   1.568  1.00  0.00     0.040 C 
HETATM   25  C24 UNL     1      19.890   7.737   2.528  1.00  0.00     0.011 C 
HETATM   26  C25 UNL     1      19.827   8.852   3.590  1.00  0.00     0.001 C 
HETATM   27  C26 UNL     1      18.716   8.570   4.570  1.00  0.00     0.000 C 
HETATM   28  C27 UNL     1      17.781   7.599   3.883  1.00  0.00     0.001 C 
HETATM   29  C28 UNL     1      17.529   8.062   2.493  1.00  0.00     0.011 C 
ENDBRANCH  20  24
BRANCH  19  30
HETATM   30  O4  UNL     1      17.501   6.060  -1.253  1.00  0.00    -0.345 OA
ATOM     31  H4  UNL     1      18.225   5.449  -1.327  1.00  0.00     0.219 HD
ENDBRANCH  19  30
BRANCH  23  32
HETATM   32  O5  UNL     1      21.935   5.898   0.379  1.00  0.00    -0.348 OA
ATOM     33  H5  UNL     1      21.614   5.553   1.203  1.00  0.00     0.219 HD
ENDBRANCH  23  32
BRANCH  16  34
HETATM   34  C17 UNL     1      14.744   8.688  -1.679  1.00  0.00     0.038 C 
BRANCH  34  35
HETATM   35  C18 UNL     1      15.386   8.170  -2.909  1.00  0.00    -0.020 C 
HETATM   36  C19 UNL     1      15.502   9.188  -4.010  1.00  0.00     0.009 C 
HETATM   37  C20 UNL     1      14.582   6.985  -3.467  1.00  0.00     0.009 C 
ENDBRANCH  34  35
ENDBRANCH  16  34
BRANCH   1  38
HETATM   38  C3  UNL     1      20.856   7.274  -2.690  1.00  0.00     0.012 C 
HETATM   39  C4  UNL     1      21.761   7.758  -3.811  1.00  0.00     0.012 C 
BRANCH  38  40
HETATM   40  C2  UNL     1      20.676   5.799  -3.062  1.00  0.00     0.002 C 
HETATM   41  C1  UNL     1      21.434   5.492  -4.351  1.00  0.00     0.005 C 
ENDBRANCH  38  40
ENDBRANCH   1  38
BRANCH  11  42
HETATM   42  C13 UNL     1      16.396  12.890  -2.426  1.00  0.00     0.110 C 
HETATM   43  C14 UNL     1      15.887  13.750  -1.290  1.00  0.00     0.029 C 
HETATM   44 CL1  UNL     1      15.075  12.343  -3.384  1.00  0.00    -0.123 Cl
ENDBRANCH  11  42
BRANCH   6  45
HETATM   45  C8  UNL     1      21.813  11.429  -2.671  1.00  0.00     0.009 C 
HETATM   46  C9  UNL     1      23.121  10.767  -2.465  1.00  0.00     0.012 C 
HETATM   47  C10 UNL     1      21.483  11.336  -4.159  1.00  0.00     0.012 C 
ENDBRANCH   6  45
TORSDOF 9
ENDMDL
MODEL 2
REMARK VINA RESULT: -6.168702771      3.879      7.499
REMARK  9 active torsions:
REMARK  status: ('A' for Active; 'I' for Inactive)
REMARK    1  A    between atoms: C2_2  and  C3_3 
REMARK    2  A    between atoms: C3_3  and  C5_5 
REMARK    3  A    between atoms: C7_10  and  C8_11 
REMARK    4  A    between atoms: C12_18  and  C13_19 
REMARK    5  A    between atoms: C16_26  and  C17_27 
REMARK    6  A    between atoms: C17_27  and  C18_28 
REMARK    7  A    between atoms: C21_33  and  O4_34 
REMARK    8  A    between atoms: C22_36  and  C23_37 
REMARK    9  A    between atoms: C29_45  and  O5_46 
ROOT
HETATM    1  C5  UNL     1      14.485   8.565   2.177  1.00  0.00     0.163 C 
HETATM    2  N1  UNL     1      15.567   8.121   1.382  1.00  0.00    -0.347 N 
ATOM      3  H1  UNL     1      15.308   7.300   0.835  1.00  0.00     0.163 HD
HETATM    4  C6  UNL     1      16.873   8.489   1.141  1.00  0.00     0.241 C 
HETATM    5  O1  UNL     1      17.745   7.537   1.194  1.00  0.00    -0.271 OA
HETATM    6  C7  UNL     1      17.479   9.803   0.822  1.00  0.00     0.180 C 
HETATM    7  N2  UNL     1      18.922   9.788   0.972  1.00  0.00    -0.346 N 
ATOM      8  H2  UNL     1      19.365   8.911   0.698  1.00  0.00     0.163 HD
HETATM    9  C11 UNL     1      19.804  10.761   1.425  1.00  0.00     0.242 C 
HETATM   10  O2  UNL     1      20.692  11.210   0.597  1.00  0.00    -0.271 OA
HETATM   11  C12 UNL     1      19.883  11.394   2.792  1.00  0.00     0.194 C 
HETATM   12  N3  UNL     1      20.172  10.407   3.801  1.00  0.00    -0.345 N 
ATOM     13  H3  UNL     1      20.612   9.567   3.426  1.00  0.00     0.163 HD
HETATM   14  C15 UNL     1      19.981  10.356   5.159  1.00  0.00     0.241 C 
HETATM   15  O3  UNL     1      21.056  10.102   5.845  1.00  0.00    -0.271 OA
HETATM   16  C16 UNL     1      18.757  10.539   5.976  1.00  0.00     0.176 C 
HETATM   17  N4  UNL     1      17.522  10.269   5.277  1.00  0.00    -0.356 N 
ATOM     18  H4  UNL     1      17.451  10.770   4.391  1.00  0.00     0.162 HD
HETATM   19  C21 UNL     1      16.416   9.482   5.539  1.00  0.00     0.160 C 
HETATM   20  C22 UNL     1      16.135   8.041   5.316  1.00  0.00     0.066 C 
HETATM   21  N5  UNL     1      14.853   7.891   4.695  1.00  0.00    -0.338 N 
ATOM     22  H5  UNL     1      14.097   7.898   5.380  1.00  0.00     0.167 HD
HETATM   23  C29 UNL     1      14.377   7.739   3.412  1.00  0.00     0.139 C 
ENDROOT
BRANCH  20  24
HETATM   24  C23 UNL     1      17.257   7.198   4.880  1.00  0.00     0.040 C 
HETATM   25  C24 UNL     1      16.883   5.792   4.494  1.00  0.00     0.011 C 
HETATM   26  C25 UNL     1      18.186   5.018   4.213  1.00  0.00     0.001 C 
HETATM   27  C26 UNL     1      18.869   4.668   5.512  1.00  0.00     0.000 C 
HETATM   28  C27 UNL     1      18.308   5.611   6.554  1.00  0.00     0.001 C 
HETATM   29  C28 UNL     1      18.284   6.992   6.004  1.00  0.00     0.011 C 
ENDBRANCH  20  24
BRANCH  19  30
HETATM   30  O4  UNL     1      15.349  10.025   6.091  1.00  0.00    -0.345 OA
ATOM     31  H4  UNL     1      14.493   9.650   5.922  1.00  0.00     0.219 HD
ENDBRANCH  19  30
BRANCH  23  32
HETATM   32  O5  UNL     1      13.689   6.652   3.225  1.00  0.00    -0.348 OA
ATOM     33  H5  UNL     1      13.306   6.321   4.029  1.00  0.00     0.219 HD
ENDBRANCH  23  32
BRANCH  16  34
HETATM   34  C17 UNL     1      18.646  11.908   6.622  1.00  0.00     0.038 C 
BRANCH  34  35
HETATM   35  C18 UNL     1      18.125  11.804   8.005  1.00  0.00    -0.020 C 
HETATM   36  C19 UNL     1      18.581  12.914   8.912  1.00  0.00     0.009 C 
HETATM   37  C20 UNL     1      18.574  10.480   8.642  1.00  0.00     0.009 C 
ENDBRANCH  34  35
ENDBRANCH  16  34
BRANCH   1  38
HETATM   38  C3  UNL     1      14.290  10.032   2.393  1.00  0.00     0.012 C 
HETATM   39  C4  UNL     1      13.941  10.719   1.084  1.00  0.00     0.012 C 
BRANCH  38  40
HETATM   40  C2  UNL     1      13.011  10.262   3.206  1.00  0.00     0.002 C 
HETATM   41  C1  UNL     1      12.369  11.587   2.798  1.00  0.00     0.005 C 
ENDBRANCH  38  40
ENDBRANCH   1  38
BRANCH  11  42
HETATM   42  C13 UNL     1      21.057  12.391   2.763  1.00  0.00     0.110 C 
HETATM   43  C14 UNL     1      22.356  11.728   3.165  1.00  0.00     0.029 C 
HETATM   44 CL1  UNL     1      20.828  13.834   3.674  1.00  0.00    -0.123 Cl
ENDBRANCH  11  42
BRANCH   6  45
HETATM   45  C8  UNL     1      17.245  10.119  -0.679  1.00  0.00     0.009 C 
HETATM   46  C9  UNL     1      17.283  11.573  -0.954  1.00  0.00     0.012 C 
HETATM   47  C10 UNL     1      18.365   9.471  -1.489  1.00  0.00     0.012 C 
ENDBRANCH   6  45
TORSDOF 9
ENDMDL
MODEL 3
REMARK VINA RESULT: -5.959772099      3.048      5.691
REMARK  9 active torsions:
REMARK  status: ('A' for Active; 'I' for Inactive)
REMARK    1  A    between atoms: C2_2  and  C3_3 
REMARK    2  A    between atoms: C3_3  and  C5_5 
REMARK    3  A    between atoms: C7_10  and  C8_11 
REMARK    4  A    between atoms: C12_18  and  C13_19 
REMARK    5  A    between atoms: C16_26  and  C17_27 
REMARK    6  A    between atoms: C17_27  and  C18_28 
REMARK    7  A    between atoms: C21_33  and  O4_34 
REMARK    8  A    between atoms: C22_36  and  C23_37 
REMARK    9  A    between atoms: C29_45  and  O5_46 
ROOT
HETATM    1  C5  UNL     1      19.484   8.068  -0.946  1.00  0.00     0.163 C 
HETATM    2  N1  UNL     1      18.886   9.350  -0.949  1.00  0.00    -0.347 N 
ATOM      3  H1  UNL     1      19.404   9.996  -1.545  1.00  0.00     0.163 HD
HETATM    4  C6  UNL     1      17.799   9.969  -0.370  1.00  0.00     0.241 C 
HETATM    5  O1  UNL     1      18.033  11.112   0.187  1.00  0.00    -0.271 OA
HETATM    6  C7  UNL     1      16.379   9.561  -0.265  1.00  0.00     0.180 C 
HETATM    7  N2  UNL     1      15.655  10.355   0.709  1.00  0.00    -0.346 N 
ATOM      8  H2  UNL     1      15.937  11.335   0.748  1.00  0.00     0.163 HD
HETATM    9  C11 UNL     1      14.644  10.013   1.599  1.00  0.00     0.242 C 
HETATM   10  O2  UNL     1      13.490  10.582   1.458  1.00  0.00    -0.271 OA
HETATM   11  C12 UNL     1      14.697   9.038   2.749  1.00  0.00     0.194 C 
HETATM   12  N3  UNL     1      15.666   9.452   3.731  1.00  0.00    -0.345 N 
ATOM     13  H3  UNL     1      15.881  10.448   3.687  1.00  0.00     0.163 HD
HETATM   14  C15 UNL     1      16.361   8.792   4.714  1.00  0.00     0.241 C 
HETATM   15  O3  UNL     1      16.233   9.304   5.902  1.00  0.00    -0.271 OA
HETATM   16  C16 UNL     1      17.236   7.596   4.649  1.00  0.00     0.176 C 
HETATM   17  N4  UNL     1      17.829   7.356   3.354  1.00  0.00    -0.356 N 
ATOM     18  H4  UNL     1      17.144   7.350   2.599  1.00  0.00     0.162 HD
HETATM   19  C21 UNL     1      19.120   7.132   2.909  1.00  0.00     0.160 C 
HETATM   20  C22 UNL     1      20.233   8.051   2.559  1.00  0.00     0.066 C 
HETATM   21  N5  UNL     1      20.797   7.666   1.300  1.00  0.00    -0.338 N 
ATOM     22  H5  UNL     1      21.487   6.923   1.405  1.00  0.00     0.167 HD
HETATM   23  C29 UNL     1      20.647   8.042  -0.017  1.00  0.00     0.139 C 
ENDROOT
BRANCH  20  24
HETATM   24  C23 UNL     1      20.049   9.476   2.869  1.00  0.00     0.040 C 
HETATM   25  C24 UNL     1      21.042  10.400   2.217  1.00  0.00     0.011 C 
HETATM   26  C25 UNL     1      20.796  11.819   2.767  1.00  0.00     0.001 C 
HETATM   27  C26 UNL     1      21.344  11.933   4.167  1.00  0.00     0.000 C 
HETATM   28  C27 UNL     1      21.475  10.518   4.688  1.00  0.00     0.001 C 
HETATM   29  C28 UNL     1      20.236   9.761   4.368  1.00  0.00     0.011 C 
ENDBRANCH  20  24
BRANCH  19  30
HETATM   30  O4  UNL     1      19.538   5.896   2.725  1.00  0.00    -0.345 OA
ATOM     31  H4  UNL     1      19.650   5.324   3.475  1.00  0.00     0.219 HD
ENDBRANCH  19  30
BRANCH  23  32
HETATM   32  O5  UNL     1      21.742   8.462  -0.577  1.00  0.00    -0.348 OA
ATOM     33  H5  UNL     1      21.669   9.355  -0.895  1.00  0.00     0.219 HD
ENDBRANCH  23  32
BRANCH  16  34
HETATM   34  C17 UNL     1      16.564   6.315   5.107  1.00  0.00     0.038 C 
BRANCH  34  35
HETATM   35  C18 UNL     1      17.169   5.816   6.364  1.00  0.00    -0.020 C 
HETATM   36  C19 UNL     1      16.329   6.070   7.586  1.00  0.00     0.009 C 
HETATM   37  C20 UNL     1      18.531   6.486   6.599  1.00  0.00     0.009 C 
ENDBRANCH  34  35
ENDBRANCH  16  34
BRANCH   1  38
HETATM   38  C3  UNL     1      18.612   6.855  -0.884  1.00  0.00     0.012 C 
HETATM   39  C4  UNL     1      17.742   6.762  -2.126  1.00  0.00     0.012 C 
BRANCH  38  40
HETATM   40  C2  UNL     1      19.476   5.597  -1.025  1.00  0.00     0.002 C 
HETATM   41  C1  UNL     1      19.115   4.862  -2.314  1.00  0.00     0.005 C 
ENDBRANCH  38  40
ENDBRANCH   1  38
BRANCH  11  42
HETATM   42  C13 UNL     1      13.311   9.057   3.423  1.00  0.00     0.110 C 
HETATM   43  C14 UNL     1      13.243  10.096   4.520  1.00  0.00     0.029 C 
HETATM   44 CL1  UNL     1      12.753   7.541   4.016  1.00  0.00    -0.123 Cl
ENDBRANCH  11  42
BRANCH   6  45
HETATM   45  C8  UNL     1      15.667   9.850  -1.614  1.00  0.00     0.009 C 
HETATM   46  C9  UNL     1      14.550   8.912  -1.865  1.00  0.00     0.012 C 
HETATM   47  C10 UNL     1      15.078  11.258  -1.556  1.00  0.00     0.012 C 
ENDBRANCH   6  45
TORSDOF 9
ENDMDL
MODEL 4
REMARK VINA RESULT: -5.907035039      2.840      6.314
REMARK  9 active torsions:
REMARK  status: ('A' for Active; 'I' for Inactive)
REMARK    1  A    between atoms: C2_2  and  C3_3 
REMARK    2  A    between atoms: C3_3  and  C5_5 
REMARK    3  A    between atoms: C7_10  and  C8_11 
REMARK    4  A    between atoms: C12_18  and  C13_19 
REMARK    5  A    between atoms: C16_26  and  C17_27 
REMARK    6  A    between atoms: C17_27  and  C18_28 
REMARK    7  A    between atoms: C21_33  and  O4_34 
REMARK    8  A    between atoms: C22_36  and  C23_37 
REMARK    9  A    between atoms: C29_45  and  O5_46 
ROOT
HETATM    1  C5  UNL     1      20.260   9.502   3.431  1.00  0.00     0.163 C 
HETATM    2  N1  UNL     1      19.373   8.438   3.716  1.00  0.00    -0.347 N 
ATOM      3  H1  UNL     1      19.875   7.628   4.080  1.00  0.00     0.163 HD
HETATM    4  C6  UNL     1      18.019   8.192   3.638  1.00  0.00     0.241 C 
HETATM    5  O1  UNL     1      17.681   7.079   3.076  1.00  0.00    -0.271 OA
HETATM    6  C7  UNL     1      16.851   8.981   4.093  1.00  0.00     0.180 C 
HETATM    7  N2  UNL     1      15.610   8.500   3.515  1.00  0.00    -0.346 N 
ATOM      8  H2  UNL     1      15.563   7.487   3.401  1.00  0.00     0.163 HD
HETATM    9  C11 UNL     1      14.475   9.179   3.090  1.00  0.00     0.242 C 
HETATM   10  O2  UNL     1      13.358   8.938   3.697  1.00  0.00    -0.271 OA
HETATM   11  C12 UNL     1      14.350  10.193   1.979  1.00  0.00     0.194 C 
HETATM   12  N3  UNL     1      14.697   9.611   0.708  1.00  0.00    -0.345 N 
ATOM     13  H3  UNL     1      14.620   8.594   0.698  1.00  0.00     0.163 HD
HETATM   14  C15 UNL     1      15.110  10.134  -0.492  1.00  0.00     0.241 C 
HETATM   15  O3  UNL     1      14.388   9.776  -1.512  1.00  0.00    -0.271 OA
HETATM   16  C16 UNL     1      16.242  11.033  -0.822  1.00  0.00     0.176 C 
HETATM   17  N4  UNL     1      17.335  10.994   0.121  1.00  0.00    -0.356 N 
ATOM     18  H4  UNL     1      17.031  11.125   1.086  1.00  0.00     0.162 HD
HETATM   19  C21 UNL     1      18.702  10.817   0.008  1.00  0.00     0.160 C 
HETATM   20  C22 UNL     1      19.552   9.602  -0.081  1.00  0.00     0.066 C 
HETATM   21  N5  UNL     1      20.647   9.712   0.836  1.00  0.00    -0.338 N 
ATOM     22  H5  UNL     1      21.422  10.243   0.439  1.00  0.00     0.167 HD
HETATM   23  C29 UNL     1      20.923   9.285   2.115  1.00  0.00     0.139 C 
ENDROOT
BRANCH  20  24
HETATM   24  C23 UNL     1      18.865   8.313  -0.243  1.00  0.00     0.040 C 
HETATM   25  C24 UNL     1      19.705   7.103   0.064  1.00  0.00     0.011 C 
HETATM   26  C25 UNL     1      18.881   5.853  -0.300  1.00  0.00     0.001 C 
HETATM   27  C26 UNL     1      18.852   5.671  -1.797  1.00  0.00     0.000 C 
HETATM   28  C27 UNL     1      19.203   7.017  -2.395  1.00  0.00     0.001 C 
HETATM   29  C28 UNL     1      18.430   8.079  -1.698  1.00  0.00     0.011 C 
ENDBRANCH  20  24
BRANCH  19  30
HETATM   30  O4  UNL     1      19.492  11.871  -0.032  1.00  0.00    -0.345 OA
ATOM     31  H4  UNL     1      19.482  12.434  -0.798  1.00  0.00     0.219 HD
ENDBRANCH  19  30
BRANCH  23  32
HETATM   32  O5  UNL     1      21.981   8.535   2.208  1.00  0.00    -0.348 OA
ATOM     33  H5  UNL     1      22.029   8.074   3.038  1.00  0.00     0.219 HD
ENDBRANCH  23  32
BRANCH  16  34
HETATM   34  C17 UNL     1      15.839  12.483  -1.020  1.00  0.00     0.038 C 
BRANCH  34  35
HETATM   35  C18 UNL     1      15.993  12.890  -2.436  1.00  0.00    -0.020 C 
HETATM   36  C19 UNL     1      14.701  12.918  -3.205  1.00  0.00     0.009 C 
HETATM   37  C20 UNL     1      16.937  11.923  -3.166  1.00  0.00     0.009 C 
ENDBRANCH  34  35
ENDBRANCH  16  34
BRANCH   1  38
HETATM   38  C3  UNL     1      19.818  10.909   3.678  1.00  0.00     0.012 C 
HETATM   39  C4  UNL     1      19.639  11.155   5.167  1.00  0.00     0.012 C 
BRANCH  38  40
HETATM   40  C2  UNL     1      20.964  11.870   3.347  1.00  0.00     0.002 C 
HETATM   41  C1  UNL     1      20.604  13.283   3.802  1.00  0.00     0.005 C 
ENDBRANCH  38  40
ENDBRANCH   1  38
BRANCH  11  42
HETATM   42  C13 UNL     1      12.868  10.611   1.913  1.00  0.00     0.110 C 
HETATM   43  C14 UNL     1      12.618  11.583   0.781  1.00  0.00     0.029 C 
HETATM   44 CL1  UNL     1      12.206  11.231   3.376  1.00  0.00    -0.123 Cl
ENDBRANCH  11  42
BRANCH   6  45
HETATM   45  C8  UNL     1      16.671   8.788   5.622  1.00  0.00     0.009 C 
HETATM   46  C9  UNL     1      15.902   9.894   6.236  1.00  0.00     0.012 C 
HETATM   47  C10 UNL     1      15.887   7.499   5.857  1.00  0.00     0.012 C 
ENDBRANCH   6  45
TORSDOF 9
ENDMDL
MODEL 5
REMARK VINA RESULT: -5.901519895      1.927      6.053
REMARK  9 active torsions:
REMARK  status: ('A' for Active; 'I' for Inactive)
REMARK    1  A    between atoms: C2_2  and  C3_3 
REMARK    2  A    between atoms: C3_3  and  C5_5 
REMARK    3  A    between atoms: C7_10  and  C8_11 
REMARK    4  A    between atoms: C12_18  and  C13_19 
REMARK    5  A    between atoms: C16_26  and  C17_27 
REMARK    6  A    between atoms: C17_27  and  C18_28 
REMARK    7  A    between atoms: C21_33  and  O4_34 
REMARK    8  A    between atoms: C22_36  and  C23_37 
REMARK    9  A    between atoms: C29_45  and  O5_46 
ROOT
HETATM    1  C5  UNL     1      18.518   7.647   2.722  1.00  0.00     0.163 C 
HETATM    2  N1  UNL     1      17.387   7.075   2.097  1.00  0.00    -0.347 N 
ATOM      3  H1  UNL     1      17.199   6.140   2.461  1.00  0.00     0.163 HD
HETATM    4  C6  UNL     1      16.467   7.428   1.132  1.00  0.00     0.241 C 
HETATM    5  O1  UNL     1      16.253   6.548   0.210  1.00  0.00    -0.271 OA
HETATM    6  C7  UNL     1      15.658   8.655   0.952  1.00  0.00     0.180 C 
HETATM    7  N2  UNL     1      15.073   8.731  -0.373  1.00  0.00    -0.346 N 
ATOM      8  H2  UNL     1      14.779   7.833  -0.757  1.00  0.00     0.163 HD
HETATM    9  C11 UNL     1      14.843   9.816  -1.211  1.00  0.00     0.242 C 
HETATM   10  O2  UNL     1      13.619  10.096  -1.522  1.00  0.00    -0.271 OA
HETATM   11  C12 UNL     1      15.851  10.749  -1.836  1.00  0.00     0.194 C 
HETATM   12  N3  UNL     1      16.743  10.033  -2.711  1.00  0.00    -0.345 N 
ATOM     13  H3  UNL     1      16.358   9.146  -3.039  1.00  0.00     0.163 HD
HETATM   14  C15 UNL     1      18.001  10.288  -3.199  1.00  0.00     0.241 C 
HETATM   15  O3  UNL     1      18.096  10.240  -4.494  1.00  0.00    -0.271 OA
HETATM   16  C16 UNL     1      19.268  10.607  -2.498  1.00  0.00     0.176 C 
HETATM   17  N4  UNL     1      19.335  10.135  -1.134  1.00  0.00    -0.356 N 
ATOM     18  H4  UNL     1      18.528  10.415  -0.578  1.00  0.00     0.162 HD
HETATM   19  C21 UNL     1      20.250   9.387  -0.415  1.00  0.00     0.160 C 
HETATM   20  C22 UNL     1      20.460   7.924  -0.277  1.00  0.00     0.066 C 
HETATM   21  N5  UNL     1      20.596   7.585   1.108  1.00  0.00    -0.338 N 
ATOM     22  H5  UNL     1      21.551   7.721   1.439  1.00  0.00     0.167 HD
HETATM   23  C29 UNL     1      19.770   7.124   2.108  1.00  0.00     0.139 C 
ENDROOT
BRANCH  20  24
HETATM   24  C23 UNL     1      19.686   7.047  -1.167  1.00  0.00     0.040 C 
HETATM   25  C24 UNL     1      19.855   5.574  -0.912  1.00  0.00     0.011 C 
HETATM   26  C25 UNL     1      19.100   4.814  -2.020  1.00  0.00     0.001 C 
HETATM   27  C26 UNL     1      19.887   4.861  -3.306  1.00  0.00     0.000 C 
HETATM   28  C27 UNL     1      20.847   6.023  -3.175  1.00  0.00     0.001 C 
HETATM   29  C28 UNL     1      20.119   7.201  -2.634  1.00  0.00     0.011 C 
ENDBRANCH  20  24
BRANCH  19  30
HETATM   30  O4  UNL     1      21.149  10.001   0.328  1.00  0.00    -0.345 OA
ATOM     31  H4  UNL     1      21.901  10.407  -0.088  1.00  0.00     0.219 HD
ENDBRANCH  19  30
BRANCH  23  32
HETATM   32  O5  UNL     1      20.150   5.997   2.634  1.00  0.00    -0.348 OA
ATOM     33  H5  UNL     1      20.770   5.530   2.086  1.00  0.00     0.219 HD
ENDBRANCH  23  32
BRANCH  16  34
HETATM   34  C17 UNL     1      19.624  12.082  -2.507  1.00  0.00     0.038 C 
BRANCH  34  35
HETATM   35  C18 UNL     1      20.875  12.324  -3.262  1.00  0.00    -0.020 C 
HETATM   36  C19 UNL     1      20.819  11.870  -4.695  1.00  0.00     0.009 C 
HETATM   37  C20 UNL     1      22.047  11.588  -2.595  1.00  0.00     0.009 C 
ENDBRANCH  34  35
ENDBRANCH  16  34
BRANCH   1  38
HETATM   38  C3  UNL     1      18.533   9.116   3.005  1.00  0.00     0.012 C 
HETATM   39  C4  UNL     1      17.578   9.447   4.140  1.00  0.00     0.012 C 
BRANCH  38  40
HETATM   40  C2  UNL     1      19.881   9.504   3.621  1.00  0.00     0.002 C 
HETATM   41  C1  UNL     1      19.760   9.558   5.143  1.00  0.00     0.005 C 
ENDBRANCH  38  40
ENDBRANCH   1  38
BRANCH  11  42
HETATM   42  C13 UNL     1      15.063  11.758  -2.694  1.00  0.00     0.110 C 
HETATM   43  C14 UNL     1      15.136  11.409  -4.164  1.00  0.00     0.029 C 
HETATM   44 CL1  UNL     1      15.478  13.412  -2.463  1.00  0.00    -0.123 Cl
ENDBRANCH  11  42
BRANCH   6  45
HETATM   45  C8  UNL     1      14.442   8.608   1.915  1.00  0.00     0.009 C 
HETATM   46  C9  UNL     1      14.669   7.688   3.052  1.00  0.00     0.012 C 
HETATM   47  C10 UNL     1      14.230  10.006   2.492  1.00  0.00     0.012 C 
ENDBRANCH   6  45
TORSDOF 9
ENDMDL
