MODEL 1
REMARK VINA RESULT: -7.562841985      0.000      0.000
REMARK  7 active torsions:
REMARK  status: ('A' for Active; 'I' for Inactive)
REMARK    1  A    between atoms: C2_2  and  C3_3 
REMARK    2  A    between atoms: C3_3  and  C5_5 
REMARK    3  A    between atoms: C7_10  and  C8_11 
REMARK    4  A    between atoms: C12_17  and  C13_18 
REMARK    5  A    between atoms: C13_18  and  C14_19 
REMARK    6  A    between atoms: C18_27  and  C19_28 
REMARK    7  A    between atoms: C19_28  and  C20_29 
ROOT
HETATM    1  C5  UNL     1      19.571   7.314  -1.844  1.00  0.00     0.084 C 
HETATM    2  N1  UNL     1      19.994   8.557  -2.413  1.00  0.00    -0.323 N 
ATOM      3  H1  UNL     1      20.972   8.544  -2.705  1.00  0.00     0.169 HD
HETATM    4  C6  UNL     1      19.376   9.774  -2.657  1.00  0.00     0.252 C 
HETATM    5  O1  UNL     1      19.718  10.805  -1.957  1.00  0.00    -0.270 OA
HETATM    6  C7  UNL     1      18.321  10.156  -3.639  1.00  0.00     0.227 C 
HETATM    7  O2  UNL     1      17.305  10.780  -2.994  1.00  0.00    -0.304 OA
HETATM    8  C11 UNL     1      16.674  11.900  -2.755  1.00  0.00     0.282 C 
HETATM    9  O3  UNL     1      17.122  12.841  -2.043  1.00  0.00    -0.263 OA
HETATM   10  C12 UNL     1      15.320  12.188  -3.312  1.00  0.00     0.185 C 
HETATM   11  N2  UNL     1      14.542  12.879  -2.273  1.00  0.00    -0.347 N 
ATOM     12  H2  UNL     1      14.047  13.725  -2.554  1.00  0.00     0.163 HD
HETATM   13  C15 UNL     1      14.416  12.488  -0.941  1.00  0.00     0.218 C 
HETATM   14  O4  UNL     1      14.033  13.353  -0.076  1.00  0.00    -0.274 OA
HETATM   15  C16 UNL     1      14.669  11.156  -0.346  1.00  0.00     0.105 C 
HETATM   16  C17 UNL     1      15.070  11.233   1.109  1.00  0.00     0.034 C 
HETATM   17  C18 UNL     1      15.817   9.972   1.543  1.00  0.00     0.085 C 
HETATM   18  N3  UNL     1      17.078   9.853   0.864  1.00  0.00    -0.355 N 
ATOM     19  H3  UNL     1      17.166  10.424   0.023  1.00  0.00     0.162 HD
HETATM   20  C23 UNL     1      18.208   9.079   1.168  1.00  0.00     0.240 C 
HETATM   21  O5  UNL     1      19.296   9.722   1.406  1.00  0.00    -0.271 OA
HETATM   22  C24 UNL     1      18.322   7.608   1.249  1.00  0.00     0.172 C 
HETATM   23  C25 UNL     1      19.716   7.165   1.641  1.00  0.00     0.042 C 
HETATM   24  N4  UNL     1      17.855   6.939   0.051  1.00  0.00    -0.343 N 
ATOM     25  H4  UNL     1      17.178   6.188   0.185  1.00  0.00     0.163 HD
HETATM   26  C26 UNL     1      18.236   7.213  -1.281  1.00  0.00     0.265 C 
HETATM   27  O6  UNL     1      17.258   7.395  -2.099  1.00  0.00    -0.266 OA
ENDROOT
BRANCH   1  28
HETATM   28  C3  UNL     1      19.997   6.135  -2.662  1.00  0.00     0.037 C 
HETATM   29  C4  UNL     1      19.551   4.831  -2.040  1.00  0.00     0.016 C 
BRANCH  28  30
HETATM   30  C2  UNL     1      21.404   5.985  -3.060  1.00  0.00     0.006 C 
HETATM   31  C1  UNL     1      21.688   5.644  -4.482  1.00  0.00     0.006 C 
ENDBRANCH  28  30
ENDBRANCH   1  28
BRANCH   6  32
HETATM   32  C8  UNL     1      18.980  10.945  -4.782  1.00  0.00     0.016 C 
HETATM   33  C9  UNL     1      20.369  10.500  -5.080  1.00  0.00     0.012 C 
HETATM   34  C10 UNL     1      18.121  11.083  -5.987  1.00  0.00     0.012 C 
ENDBRANCH   6  32
BRANCH  10  35
HETATM   35  C13 UNL     1      14.618  10.966  -3.821  1.00  0.00     0.046 C 
BRANCH  35  36
HETATM   36  C14 UNL     1      14.323  11.084  -5.324  1.00  0.00     0.088 C 
HETATM   37 BR1  UNL     1      14.564  12.874  -5.952  1.00  0.00    -0.096 Br
ENDBRANCH  35  36
ENDBRANCH  10  35
BRANCH  17  38
HETATM   38  C19 UNL     1      14.982   8.751   1.272  1.00  0.00     0.029 C 
BRANCH  38  39
HETATM   39  C20 UNL     1      14.607   8.029   2.554  1.00  0.00    -0.021 C 
HETATM   40  C21 UNL     1      15.058   6.591   2.410  1.00  0.00     0.009 C 
HETATM   41  C22 UNL     1      15.327   8.608   3.753  1.00  0.00     0.009 C 
ENDBRANCH  38  39
ENDBRANCH  17  38
TORSDOF 7
ENDMDL
MODEL 2
REMARK VINA RESULT: -7.290566317      2.827      6.182
REMARK  7 active torsions:
REMARK  status: ('A' for Active; 'I' for Inactive)
REMARK    1  A    between atoms: C2_2  and  C3_3 
REMARK    2  A    between atoms: C3_3  and  C5_5 
REMARK    3  A    between atoms: C7_10  and  C8_11 
REMARK    4  A    between atoms: C12_17  and  C13_18 
REMARK    5  A    between atoms: C13_18  and  C14_19 
REMARK    6  A    between atoms: C18_27  and  C19_28 
REMARK    7  A    between atoms: C19_28  and  C20_29 
ROOT
HETATM    1  C5  UNL     1      17.910  10.242  -3.203  1.00  0.00     0.084 C 
HETATM    2  N1  UNL     1      17.912   8.845  -2.899  1.00  0.00    -0.323 N 
ATOM      3  H1  UNL     1      18.238   8.272  -3.677  1.00  0.00     0.169 HD
HETATM    4  C6  UNL     1      17.569   8.092  -1.785  1.00  0.00     0.252 C 
HETATM    5  O1  UNL     1      16.515   7.347  -1.829  1.00  0.00    -0.270 OA
HETATM    6  C7  UNL     1      18.225   7.964  -0.452  1.00  0.00     0.227 C 
HETATM    7  O2  UNL     1      17.315   8.190   0.526  1.00  0.00    -0.304 OA
HETATM    8  C11 UNL     1      16.579   7.692   1.485  1.00  0.00     0.282 C 
HETATM    9  O3  UNL     1      15.559   6.970   1.308  1.00  0.00    -0.263 OA
HETATM   10  C12 UNL     1      16.876   7.932   2.927  1.00  0.00     0.185 C 
HETATM   11  N2  UNL     1      15.597   8.128   3.625  1.00  0.00    -0.347 N 
ATOM     12  H2  UNL     1      15.455   7.598   4.485  1.00  0.00     0.163 HD
HETATM   13  C15 UNL     1      14.559   8.968   3.224  1.00  0.00     0.218 C 
HETATM   14  O4  UNL     1      13.384   8.768   3.697  1.00  0.00    -0.274 OA
HETATM   15  C16 UNL     1      14.613  10.114   2.287  1.00  0.00     0.105 C 
HETATM   16  C17 UNL     1      13.293  10.363   1.594  1.00  0.00     0.034 C 
HETATM   17  C18 UNL     1      13.492  11.153   0.301  1.00  0.00     0.085 C 
HETATM   18  N3  UNL     1      14.229  10.391  -0.669  1.00  0.00    -0.355 N 
ATOM     19  H3  UNL     1      14.745   9.598  -0.286  1.00  0.00     0.162 HD
HETATM   20  C23 UNL     1      14.356  10.559  -2.056  1.00  0.00     0.240 C 
HETATM   21  O5  UNL     1      13.929   9.594  -2.791  1.00  0.00    -0.271 OA
HETATM   22  C24 UNL     1      14.925  11.705  -2.796  1.00  0.00     0.172 C 
HETATM   23  C25 UNL     1      14.847  11.509  -4.297  1.00  0.00     0.042 C 
HETATM   24  N4  UNL     1      16.264  12.049  -2.363  1.00  0.00    -0.343 N 
ATOM     25  H4  UNL     1      16.428  13.027  -2.126  1.00  0.00     0.163 HD
HETATM   26  C26 UNL     1      17.368  11.177  -2.232  1.00  0.00     0.265 C 
HETATM   27  O6  UNL     1      17.968  11.226  -1.093  1.00  0.00    -0.266 OA
ENDROOT
BRANCH   1  28
HETATM   28  C3  UNL     1      19.180  10.688  -3.858  1.00  0.00     0.037 C 
HETATM   29  C4  UNL     1      19.719  11.955  -3.234  1.00  0.00     0.016 C 
BRANCH  28  30
HETATM   30  C2  UNL     1      19.238  10.846  -5.319  1.00  0.00     0.006 C 
HETATM   31  C1  UNL     1      17.949  10.848  -6.065  1.00  0.00     0.006 C 
ENDBRANCH  28  30
ENDBRANCH   1  28
BRANCH   6  32
HETATM   32  C8  UNL     1      18.953   6.610  -0.395  1.00  0.00     0.016 C 
HETATM   33  C9  UNL     1      19.565   6.216  -1.693  1.00  0.00     0.012 C 
HETATM   34  C10 UNL     1      19.868   6.471   0.767  1.00  0.00     0.012 C 
ENDBRANCH   6  32
BRANCH  10  35
HETATM   35  C13 UNL     1      17.820   9.075   3.153  1.00  0.00     0.046 C 
BRANCH  35  36
HETATM   36  C14 UNL     1      19.161   8.579   3.716  1.00  0.00     0.088 C 
HETATM   37 BR1  UNL     1      20.633   9.583   3.022  1.00  0.00    -0.096 Br
ENDBRANCH  35  36
ENDBRANCH  10  35
BRANCH  17  38
HETATM   38  C19 UNL     1      14.212  12.443   0.581  1.00  0.00     0.029 C 
BRANCH  38  39
HETATM   39  C20 UNL     1      13.687  13.581  -0.276  1.00  0.00    -0.021 C 
HETATM   40  C21 UNL     1      12.540  14.220   0.475  1.00  0.00     0.009 C 
HETATM   41  C22 UNL     1      14.738  14.650  -0.489  1.00  0.00     0.009 C 
ENDBRANCH  38  39
ENDBRANCH  17  38
TORSDOF 7
ENDMDL
MODEL 3
REMARK VINA RESULT: -7.250967396      3.004      6.160
REMARK  7 active torsions:
REMARK  status: ('A' for Active; 'I' for Inactive)
REMARK    1  A    between atoms: C2_2  and  C3_3 
REMARK    2  A    between atoms: C3_3  and  C5_5 
REMARK    3  A    between atoms: C7_10  and  C8_11 
REMARK    4  A    between atoms: C12_17  and  C13_18 
REMARK    5  A    between atoms: C13_18  and  C14_19 
REMARK    6  A    between atoms: C18_27  and  C19_28 
REMARK    7  A    between atoms: C19_28  and  C20_29 
ROOT
HETATM    1  C5  UNL     1      17.977  10.140  -3.233  1.00  0.00     0.084 C 
HETATM    2  N1  UNL     1      17.976   8.744  -2.920  1.00  0.00    -0.323 N 
ATOM      3  H1  UNL     1      18.298   8.165  -3.696  1.00  0.00     0.169 HD
HETATM    4  C6  UNL     1      17.635   7.999  -1.800  1.00  0.00     0.252 C 
HETATM    5  O1  UNL     1      16.578   7.257  -1.836  1.00  0.00    -0.270 OA
HETATM    6  C7  UNL     1      18.295   7.877  -0.469  1.00  0.00     0.227 C 
HETATM    7  O2  UNL     1      17.389   8.113   0.511  1.00  0.00    -0.304 OA
HETATM    8  C11 UNL     1      16.655   7.622   1.475  1.00  0.00     0.282 C 
HETATM    9  O3  UNL     1      15.632   6.902   1.306  1.00  0.00    -0.263 OA
HETATM   10  C12 UNL     1      16.958   7.871   2.915  1.00  0.00     0.185 C 
HETATM   11  N2  UNL     1      15.681   8.075   3.616  1.00  0.00    -0.347 N 
ATOM     12  H2  UNL     1      15.541   7.551   4.479  1.00  0.00     0.163 HD
HETATM   13  C15 UNL     1      14.644   8.915   3.213  1.00  0.00     0.218 C 
HETATM   14  O4  UNL     1      13.471   8.722   3.691  1.00  0.00    -0.274 OA
HETATM   15  C16 UNL     1      14.698  10.055   2.269  1.00  0.00     0.105 C 
HETATM   16  C17 UNL     1      13.377  10.304   1.579  1.00  0.00     0.034 C 
HETATM   17  C18 UNL     1      13.573  11.085   0.280  1.00  0.00     0.085 C 
HETATM   18  N3  UNL     1      14.305  10.315  -0.688  1.00  0.00    -0.355 N 
ATOM     19  H3  UNL     1      14.820   9.523  -0.301  1.00  0.00     0.162 HD
HETATM   20  C23 UNL     1      14.428  10.473  -2.076  1.00  0.00     0.240 C 
HETATM   21  O5  UNL     1      13.996   9.506  -2.804  1.00  0.00    -0.271 OA
HETATM   22  C24 UNL     1      14.997  11.613  -2.826  1.00  0.00     0.172 C 
HETATM   23  C25 UNL     1      14.914  11.408  -4.324  1.00  0.00     0.042 C 
HETATM   24  N4  UNL     1      16.339  11.956  -2.398  1.00  0.00    -0.343 N 
ATOM     25  H4  UNL     1      16.507  12.935  -2.168  1.00  0.00     0.163 HD
HETATM   26  C26 UNL     1      17.441  11.081  -2.266  1.00  0.00     0.265 C 
HETATM   27  O6  UNL     1      18.045  11.137  -1.129  1.00  0.00    -0.266 OA
ENDROOT
BRANCH   1  28
HETATM   28  C3  UNL     1      19.246  10.577  -3.895  1.00  0.00     0.037 C 
HETATM   29  C4  UNL     1      19.038  10.887  -5.359  1.00  0.00     0.016 C 
BRANCH  28  30
HETATM   30  C2  UNL     1      20.459   9.754  -3.777  1.00  0.00     0.006 C 
HETATM   31  C1  UNL     1      21.242   9.854  -2.514  1.00  0.00     0.006 C 
ENDBRANCH  28  30
ENDBRANCH   1  28
BRANCH   6  32
HETATM   32  C8  UNL     1      19.019   6.522  -0.406  1.00  0.00     0.016 C 
HETATM   33  C9  UNL     1      19.632   6.121  -1.702  1.00  0.00     0.012 C 
HETATM   34  C10 UNL     1      19.932   6.385   0.758  1.00  0.00     0.012 C 
ENDBRANCH   6  32
BRANCH  10  35
HETATM   35  C13 UNL     1      17.905   9.012   3.130  1.00  0.00     0.046 C 
BRANCH  35  36
HETATM   36  C14 UNL     1      19.229   8.522   3.740  1.00  0.00     0.088 C 
HETATM   37 BR1  UNL     1      19.054   6.775   4.497  1.00  0.00    -0.096 Br
ENDBRANCH  35  36
ENDBRANCH  10  35
BRANCH  17  38
HETATM   38  C19 UNL     1      14.299  12.375   0.550  1.00  0.00     0.029 C 
BRANCH  38  39
HETATM   39  C20 UNL     1      13.719  13.527  -0.251  1.00  0.00    -0.021 C 
HETATM   40  C21 UNL     1      12.637  14.164   0.594  1.00  0.00     0.009 C 
HETATM   41  C22 UNL     1      14.758  14.591  -0.531  1.00  0.00     0.009 C 
ENDBRANCH  38  39
ENDBRANCH  17  38
TORSDOF 7
ENDMDL
MODEL 4
REMARK VINA RESULT: -7.182397469      1.071      1.376
REMARK  7 active torsions:
REMARK  status: ('A' for Active; 'I' for Inactive)
REMARK    1  A    between atoms: C2_2  and  C3_3 
REMARK    2  A    between atoms: C3_3  and  C5_5 
REMARK    3  A    between atoms: C7_10  and  C8_11 
REMARK    4  A    between atoms: C12_17  and  C13_18 
REMARK    5  A    between atoms: C13_18  and  C14_19 
REMARK    6  A    between atoms: C18_27  and  C19_28 
REMARK    7  A    between atoms: C19_28  and  C20_29 
ROOT
HETATM    1  C5  UNL     1      20.350   7.497  -0.793  1.00  0.00     0.084 C 
HETATM    2  N1  UNL     1      20.780   8.719  -1.401  1.00  0.00    -0.323 N 
ATOM      3  H1  UNL     1      21.794   8.781  -1.487  1.00  0.00     0.169 HD
HETATM    4  C6  UNL     1      20.128   9.837  -1.900  1.00  0.00     0.252 C 
HETATM    5  O1  UNL     1      20.228  10.958  -1.266  1.00  0.00    -0.270 OA
HETATM    6  C7  UNL     1      19.277  10.014  -3.111  1.00  0.00     0.227 C 
HETATM    7  O2  UNL     1      18.099  10.587  -2.758  1.00  0.00    -0.304 OA
HETATM    8  C11 UNL     1      17.342  11.652  -2.778  1.00  0.00     0.282 C 
HETATM    9  O3  UNL     1      17.550  12.697  -2.101  1.00  0.00    -0.263 OA
HETATM   10  C12 UNL     1      16.117  11.745  -3.626  1.00  0.00     0.185 C 
HETATM   11  N2  UNL     1      15.083  12.444  -2.849  1.00  0.00    -0.347 N 
ATOM     12  H2  UNL     1      14.590  13.205  -3.317  1.00  0.00     0.163 HD
HETATM   13  C15 UNL     1      14.711  12.168  -1.534  1.00  0.00     0.218 C 
HETATM   14  O4  UNL     1      14.084  13.065  -0.867  1.00  0.00    -0.274 OA
HETATM   15  C16 UNL     1      14.942  10.930  -0.754  1.00  0.00     0.105 C 
HETATM   16  C17 UNL     1      15.019  11.184   0.733  1.00  0.00     0.034 C 
HETATM   17  C18 UNL     1      15.759  10.053   1.447  1.00  0.00     0.085 C 
HETATM   18  N3  UNL     1      17.140  10.003   1.054  1.00  0.00    -0.355 N 
ATOM     19  H3  UNL     1      17.356  10.500   0.190  1.00  0.00     0.162 HD
HETATM   20  C23 UNL     1      18.240   9.383   1.665  1.00  0.00     0.240 C 
HETATM   21  O5  UNL     1      19.196  10.155   2.044  1.00  0.00    -0.271 OA
HETATM   22  C24 UNL     1      18.455   7.945   1.932  1.00  0.00     0.172 C 
HETATM   23  C25 UNL     1      19.767   7.688   2.644  1.00  0.00     0.042 C 
HETATM   24  N4  UNL     1      18.309   7.123   0.748  1.00  0.00    -0.343 N 
ATOM     25  H4  UNL     1      17.683   6.321   0.826  1.00  0.00     0.163 HD
HETATM   26  C26 UNL     1      18.939   7.310  -0.503  1.00  0.00     0.265 C 
HETATM   27  O6  UNL     1      18.143   7.313  -1.516  1.00  0.00    -0.266 OA
ENDROOT
BRANCH   1  28
HETATM   28  C3  UNL     1      21.034   6.297  -1.370  1.00  0.00     0.037 C 
HETATM   29  C4  UNL     1      21.016   6.313  -2.881  1.00  0.00     0.016 C 
BRANCH  28  30
HETATM   30  C2  UNL     1      20.648   4.948  -0.929  1.00  0.00     0.006 C 
HETATM   31  C1  UNL     1      21.239   4.441   0.340  1.00  0.00     0.006 C 
ENDBRANCH  28  30
ENDBRANCH   1  28
BRANCH   6  32
HETATM   32  C8  UNL     1      20.095  10.758  -4.179  1.00  0.00     0.016 C 
HETATM   33  C9  UNL     1      21.465  10.207  -4.360  1.00  0.00     0.012 C 
HETATM   34  C10 UNL     1      19.361  10.974  -5.453  1.00  0.00     0.012 C 
ENDBRANCH   6  32
BRANCH  10  35
HETATM   35  C13 UNL     1      15.642  10.414  -4.124  1.00  0.00     0.046 C 
BRANCH  35  36
HETATM   36  C14 UNL     1      16.062  10.190  -5.586  1.00  0.00     0.088 C 
HETATM   37 BR1  UNL     1      15.639  11.699  -6.681  1.00  0.00    -0.096 Br
ENDBRANCH  35  36
ENDBRANCH  10  35
BRANCH  17  38
HETATM   38  C19 UNL     1      15.103   8.732   1.154  1.00  0.00     0.029 C 
BRANCH  38  39
HETATM   39  C20 UNL     1      14.574   8.072   2.414  1.00  0.00    -0.021 C 
HETATM   40  C21 UNL     1      15.100   6.653   2.435  1.00  0.00     0.009 C 
HETATM   41  C22 UNL     1      15.085   8.760   3.661  1.00  0.00     0.009 C 
ENDBRANCH  38  39
ENDBRANCH  17  38
TORSDOF 7
ENDMDL
MODEL 5
REMARK VINA RESULT: -7.166501938      3.656      7.169
REMARK  7 active torsions:
REMARK  status: ('A' for Active; 'I' for Inactive)
REMARK    1  A    between atoms: C2_2  and  C3_3 
REMARK    2  A    between atoms: C3_3  and  C5_5 
REMARK    3  A    between atoms: C7_10  and  C8_11 
REMARK    4  A    between atoms: C12_17  and  C13_18 
REMARK    5  A    between atoms: C13_18  and  C14_19 
REMARK    6  A    between atoms: C18_27  and  C19_28 
REMARK    7  A    between atoms: C19_28  and  C20_29 
ROOT
HETATM    1  C5  UNL     1      18.100   8.616   0.492  1.00  0.00     0.084 C 
HETATM    2  N1  UNL     1      17.528   7.462   1.114  1.00  0.00    -0.323 N 
ATOM      3  H1  UNL     1      17.996   6.596   0.845  1.00  0.00     0.169 HD
HETATM    4  C6  UNL     1      16.482   7.254   2.001  1.00  0.00     0.252 C 
HETATM    5  O1  UNL     1      15.409   6.670   1.582  1.00  0.00    -0.270 OA
HETATM    6  C7  UNL     1      16.343   7.594   3.446  1.00  0.00     0.227 C 
HETATM    7  O2  UNL     1      15.193   8.286   3.640  1.00  0.00    -0.304 OA
HETATM    8  C11 UNL     1      13.976   8.290   4.116  1.00  0.00     0.282 C 
HETATM    9  O3  UNL     1      13.001   7.670   3.605  1.00  0.00    -0.263 OA
HETATM   10  C12 UNL     1      13.600   9.049   5.345  1.00  0.00     0.185 C 
HETATM   11  N2  UNL     1      12.273   9.641   5.122  1.00  0.00    -0.347 N 
ATOM     12  H2  UNL     1      11.582   9.513   5.861  1.00  0.00     0.163 HD
HETATM   13  C15 UNL     1      11.868  10.359   3.998  1.00  0.00     0.218 C 
HETATM   14  O4  UNL     1      10.615  10.490   3.766  1.00  0.00    -0.274 OA
HETATM   15  C16 UNL     1      12.712  11.027   2.980  1.00  0.00     0.105 C 
HETATM   16  C17 UNL     1      12.036  11.121   1.632  1.00  0.00     0.034 C 
HETATM   17  C18 UNL     1      13.061  11.308   0.514  1.00  0.00     0.085 C 
HETATM   18  N3  UNL     1      13.901  10.149   0.376  1.00  0.00    -0.355 N 
ATOM     19  H3  UNL     1      13.899   9.523   1.182  1.00  0.00     0.162 HD
HETATM   20  C23 UNL     1      14.723   9.739  -0.684  1.00  0.00     0.240 C 
HETATM   21  O5  UNL     1      14.430   8.614  -1.233  1.00  0.00    -0.271 OA
HETATM   22  C24 UNL     1      15.895  10.430  -1.260  1.00  0.00     0.172 C 
HETATM   23  C25 UNL     1      16.492   9.666  -2.424  1.00  0.00     0.042 C 
HETATM   24  N4  UNL     1      16.894  10.772  -0.267  1.00  0.00    -0.343 N 
ATOM     25  H4  UNL     1      17.213  11.741  -0.258  1.00  0.00     0.163 HD
HETATM   26  C26 UNL     1      17.472   9.911   0.692  1.00  0.00     0.265 C 
HETATM   27  O6  UNL     1      17.434  10.343   1.905  1.00  0.00    -0.266 OA
ENDROOT
BRANCH   1  28
HETATM   28  C3  UNL     1      19.595   8.627   0.567  1.00  0.00     0.037 C 
HETATM   29  C4  UNL     1      20.226   8.219  -0.744  1.00  0.00     0.016 C 
BRANCH  28  30
HETATM   30  C2  UNL     1      20.282   7.899   1.643  1.00  0.00     0.006 C 
HETATM   31  C1  UNL     1      20.329   8.536   2.989  1.00  0.00     0.006 C 
ENDBRANCH  28  30
ENDBRANCH   1  28
BRANCH   6  32
HETATM   32  C8  UNL     1      16.500   6.305   4.269  1.00  0.00     0.016 C 
HETATM   33  C9  UNL     1      17.803   5.621   4.046  1.00  0.00     0.012 C 
HETATM   34  C10 UNL     1      16.142   6.462   5.702  1.00  0.00     0.012 C 
ENDBRANCH   6  32
BRANCH  10  35
HETATM   35  C13 UNL     1      14.616  10.080   5.735  1.00  0.00     0.046 C 
BRANCH  35  36
HETATM   36  C14 UNL     1      15.557   9.541   6.825  1.00  0.00     0.088 C 
HETATM   37 BR1  UNL     1      17.382   9.980   6.463  1.00  0.00    -0.096 Br
ENDBRANCH  35  36
ENDBRANCH  10  35
BRANCH  17  38
HETATM   38  C19 UNL     1      13.913  12.518   0.782  1.00  0.00     0.029 C 
BRANCH  38  39
HETATM   39  C20 UNL     1      13.800  13.545  -0.330  1.00  0.00    -0.021 C 
HETATM   40  C21 UNL     1      12.758  14.557   0.094  1.00  0.00     0.009 C 
HETATM   41  C22 UNL     1      15.100  14.294  -0.533  1.00  0.00     0.009 C 
ENDBRANCH  38  39
ENDBRANCH  17  38
TORSDOF 7
ENDMDL
