MODEL 1
REMARK VINA RESULT: -8.101663941      0.000      0.000
REMARK  8 active torsions:
REMARK  status: ('A' for Active; 'I' for Inactive)
REMARK    1  A    between atoms: C2_2  and  C3_3 
REMARK    2  A    between atoms: C3_3  and  C4_4 
REMARK    3  A    between atoms: C4_4  and  C5_5 
REMARK    4  A    between atoms: C6_8  and  O1_9 
REMARK    5  A    between atoms: C8_13  and  C9_14 
REMARK    6  A    between atoms: C13_21  and  C14_22 
REMARK    7  A    between atoms: C14_22  and  C15_23 
REMARK    8  A    between atoms: C19_30  and  C20_31 
ROOT
HETATM    1  C5  UNL     1      14.624  11.769   0.426  1.00  0.00     0.175 C 
HETATM    2  N1  UNL     1      15.744  12.435  -0.137  1.00  0.00    -0.355 N 
ATOM      3  H1  UNL     1      16.534  12.548   0.498  1.00  0.00     0.162 HD
HETATM    4  C6  UNL     1      15.948  12.970  -1.437  1.00  0.00     0.185 C 
HETATM    5  C7  UNL     1      15.933  12.276  -2.707  1.00  0.00     0.222 C 
HETATM    6  O2  UNL     1      15.013  12.670  -3.520  1.00  0.00    -0.286 OA
HETATM    7  C8  UNL     1      16.815  11.192  -3.194  1.00  0.00     0.166 C 
HETATM    8  N2  UNL     1      18.213  11.550  -3.238  1.00  0.00    -0.347 N 
ATOM      9  H2  UNL     1      18.450  12.248  -3.944  1.00  0.00     0.163 HD
HETATM   10  C12 UNL     1      19.289  11.105  -2.485  1.00  0.00     0.241 C 
HETATM   11  O3  UNL     1      19.881  11.998  -1.763  1.00  0.00    -0.271 OA
HETATM   12  C13 UNL     1      19.847   9.735  -2.403  1.00  0.00     0.177 C 
HETATM   13  N3  UNL     1      20.416   9.469  -1.089  1.00  0.00    -0.346 N 
ATOM     14  H3  UNL     1      20.809  10.275  -0.604  1.00  0.00     0.163 HD
HETATM   15  C18 UNL     1      20.494   8.245  -0.404  1.00  0.00     0.241 C 
HETATM   16  O4  UNL     1      21.647   7.828  -0.016  1.00  0.00    -0.271 OA
HETATM   17  C19 UNL     1      19.351   7.340  -0.061  1.00  0.00     0.180 C 
HETATM   18  N4  UNL     1      18.988   7.444   1.322  1.00  0.00    -0.346 N 
ATOM     19  H4  UNL     1      19.584   8.066   1.869  1.00  0.00     0.163 HD
HETATM   20  C23 UNL     1      17.970   6.849   2.042  1.00  0.00     0.237 C 
HETATM   21  O5  UNL     1      18.283   6.205   3.121  1.00  0.00    -0.272 OA
HETATM   22  C24 UNL     1      16.511   6.836   1.756  1.00  0.00     0.179 C 
HETATM   23 CL1  UNL     1      16.105   6.980   0.057  1.00  0.00    -0.115 Cl
HETATM   24  C25 UNL     1      15.729   7.722   2.671  1.00  0.00     0.031 C 
HETATM   25  C26 UNL     1      14.382   7.104   2.979  1.00  0.00     0.014 C 
HETATM   26  C27 UNL     1      15.508   9.136   2.220  1.00  0.00     0.086 C 
HETATM   27  C28 UNL     1      16.754   9.933   2.094  1.00  0.00     0.032 C 
HETATM   28  N5  UNL     1      14.643   9.253   1.093  1.00  0.00    -0.355 N 
ATOM     29  H5  UNL     1      14.025   8.458   0.931  1.00  0.00     0.162 HD
HETATM   30  C29 UNL     1      14.519  10.311   0.173  1.00  0.00     0.240 C 
HETATM   31  O6  UNL     1      14.287   9.956  -1.017  1.00  0.00    -0.271 OA
ENDROOT
BRANCH   1  32
HETATM   32  C4  UNL     1      13.269  12.311  -0.003  1.00  0.00     0.035 C 
BRANCH  32  33
HETATM   33  C3  UNL     1      12.134  12.032   0.892  1.00  0.00     0.002 C 
BRANCH  33  34
HETATM   34  C2  UNL     1      12.462  12.413   2.312  1.00  0.00    -0.004 C 
HETATM   35  C1  UNL     1      12.277  11.183   3.196  1.00  0.00     0.005 C 
ENDBRANCH  33  34
ENDBRANCH  32  33
ENDBRANCH   1  32
BRANCH   4  36
HETATM   36  O1  UNL     1      16.181  14.260  -1.512  1.00  0.00    -0.344 OA
ATOM     37  H1  UNL     1      15.422  14.831  -1.511  1.00  0.00     0.219 HD
ENDBRANCH   4  36
BRANCH   7  38
HETATM   38  C9  UNL     1      16.306  10.770  -4.563  1.00  0.00     0.008 C 
HETATM   39  C10 UNL     1      15.638   9.390  -4.474  1.00  0.00     0.012 C 
HETATM   40  C11 UNL     1      17.386  10.752  -5.618  1.00  0.00     0.012 C 
ENDBRANCH   7  38
BRANCH  12  41
HETATM   41  C14 UNL     1      20.773   9.408  -3.503  1.00  0.00     0.038 C 
BRANCH  41  42
HETATM   42  C15 UNL     1      21.421  10.438  -4.317  1.00  0.00    -0.020 C 
HETATM   43  C16 UNL     1      21.743  10.144  -5.732  1.00  0.00     0.009 C 
HETATM   44  C17 UNL     1      22.781  10.680  -3.614  1.00  0.00     0.009 C 
ENDBRANCH  41  42
ENDBRANCH  12  41
BRANCH  17  45
HETATM   45  C20 UNL     1      19.645   5.900  -0.461  1.00  0.00     0.009 C 
HETATM   46  C21 UNL     1      20.669   5.246   0.444  1.00  0.00     0.012 C 
HETATM   47  C22 UNL     1      19.988   5.792  -1.912  1.00  0.00     0.012 C 
ENDBRANCH  17  45
TORSDOF 8
ENDMDL
MODEL 2
REMARK VINA RESULT: -7.471091080      2.037      6.665
REMARK  8 active torsions:
REMARK  status: ('A' for Active; 'I' for Inactive)
REMARK    1  A    between atoms: C2_2  and  C3_3 
REMARK    2  A    between atoms: C3_3  and  C4_4 
REMARK    3  A    between atoms: C4_4  and  C5_5 
REMARK    4  A    between atoms: C6_8  and  O1_9 
REMARK    5  A    between atoms: C8_13  and  C9_14 
REMARK    6  A    between atoms: C13_21  and  C14_22 
REMARK    7  A    between atoms: C14_22  and  C15_23 
REMARK    8  A    between atoms: C19_30  and  C20_31 
ROOT
HETATM    1  C5  UNL     1      17.487  10.091  -4.376  1.00  0.00     0.175 C 
HETATM    2  N1  UNL     1      16.393   9.346  -3.864  1.00  0.00    -0.355 N 
ATOM      3  H1  UNL     1      16.591   8.359  -3.701  1.00  0.00     0.162 HD
HETATM    4  C6  UNL     1      15.068   9.745  -3.542  1.00  0.00     0.185 C 
HETATM    5  C7  UNL     1      14.638  10.728  -2.569  1.00  0.00     0.222 C 
HETATM    6  O2  UNL     1      14.003  11.731  -3.071  1.00  0.00    -0.286 OA
HETATM    7  C8  UNL     1      14.824  10.738  -1.101  1.00  0.00     0.166 C 
HETATM    8  N2  UNL     1      14.241   9.601  -0.428  1.00  0.00    -0.347 N 
ATOM      9  H2  UNL     1      13.222   9.579  -0.439  1.00  0.00     0.163 HD
HETATM   10  C12 UNL     1      14.833   8.533   0.229  1.00  0.00     0.241 C 
HETATM   11  O3  UNL     1      14.614   7.365  -0.278  1.00  0.00    -0.271 OA
HETATM   12  C13 UNL     1      15.686   8.562   1.441  1.00  0.00     0.177 C 
HETATM   13  N3  UNL     1      16.668   7.486   1.427  1.00  0.00    -0.346 N 
ATOM     14  H3  UNL     1      16.383   6.631   0.949  1.00  0.00     0.163 HD
HETATM   15  C18 UNL     1      17.955   7.473   1.987  1.00  0.00     0.241 C 
HETATM   16  O4  UNL     1      18.254   6.548   2.828  1.00  0.00    -0.271 OA
HETATM   17  C19 UNL     1      19.060   8.447   1.708  1.00  0.00     0.180 C 
HETATM   18  N4  UNL     1      20.049   7.890   0.834  1.00  0.00    -0.346 N 
ATOM     19  H4  UNL     1      19.887   6.915   0.579  1.00  0.00     0.163 HD
HETATM   20  C23 UNL     1      21.185   8.445   0.275  1.00  0.00     0.237 C 
HETATM   21  O5  UNL     1      22.310   7.828   0.443  1.00  0.00    -0.272 OA
HETATM   22  C24 UNL     1      21.315   9.693  -0.523  1.00  0.00     0.179 C 
HETATM   23 CL1  UNL     1      20.106  10.911  -0.166  1.00  0.00    -0.115 Cl
HETATM   24  C25 UNL     1      21.544   9.435  -1.977  1.00  0.00     0.031 C 
HETATM   25  C26 UNL     1      22.475  10.477  -2.557  1.00  0.00     0.014 C 
HETATM   26  C27 UNL     1      20.325   9.352  -2.850  1.00  0.00     0.086 C 
HETATM   27  C28 UNL     1      19.424   8.218  -2.525  1.00  0.00     0.032 C 
HETATM   28  N5  UNL     1      19.642  10.593  -3.005  1.00  0.00    -0.355 N 
ATOM     29  H5  UNL     1      20.197  11.426  -2.811  1.00  0.00     0.162 HD
HETATM   30  C29 UNL     1      18.309  10.832  -3.388  1.00  0.00     0.240 C 
HETATM   31  O6  UNL     1      17.755  11.809  -2.808  1.00  0.00    -0.271 OA
ENDROOT
BRANCH   1  32
HETATM   32  C4  UNL     1      17.121  11.146  -5.409  1.00  0.00     0.035 C 
BRANCH  32  33
HETATM   33  C3  UNL     1      16.864  10.666  -6.777  1.00  0.00     0.002 C 
BRANCH  33  34
HETATM   34  C2  UNL     1      15.935  11.598  -7.510  1.00  0.00    -0.004 C 
HETATM   35  C1  UNL     1      14.791  11.973  -6.571  1.00  0.00     0.005 C 
ENDBRANCH  33  34
ENDBRANCH  32  33
ENDBRANCH   1  32
BRANCH   4  36
HETATM   36  O1  UNL     1      14.099   9.156  -4.202  1.00  0.00    -0.344 OA
ATOM     37  H1  UNL     1      13.279   9.630  -4.267  1.00  0.00     0.219 HD
ENDBRANCH   4  36
BRANCH   7  38
HETATM   38  C9  UNL     1      14.251  12.046  -0.579  1.00  0.00     0.008 C 
HETATM   39  C10 UNL     1      15.313  13.152  -0.651  1.00  0.00     0.012 C 
HETATM   40  C11 UNL     1      13.715  11.938   0.829  1.00  0.00     0.012 C 
ENDBRANCH   7  38
BRANCH  12  41
HETATM   41  C14 UNL     1      14.920   8.619   2.700  1.00  0.00     0.038 C 
BRANCH  41  42
HETATM   42  C15 UNL     1      14.335   7.428   3.319  1.00  0.00    -0.020 C 
HETATM   43  C16 UNL     1      12.931   7.472   3.786  1.00  0.00     0.009 C 
HETATM   44  C17 UNL     1      15.196   7.196   4.586  1.00  0.00     0.009 C 
ENDBRANCH  41  42
ENDBRANCH  12  41
BRANCH  17  45
HETATM   45  C20 UNL     1      19.676   8.970   2.999  1.00  0.00     0.009 C 
HETATM   46  C21 UNL     1      20.552   7.939   3.681  1.00  0.00     0.012 C 
HETATM   47  C22 UNL     1      18.641   9.554   3.905  1.00  0.00     0.012 C 
ENDBRANCH  17  45
TORSDOF 8
ENDMDL
MODEL 3
REMARK VINA RESULT: -7.259448088      2.033      2.926
REMARK  8 active torsions:
REMARK  status: ('A' for Active; 'I' for Inactive)
REMARK    1  A    between atoms: C2_2  and  C3_3 
REMARK    2  A    between atoms: C3_3  and  C4_4 
REMARK    3  A    between atoms: C4_4  and  C5_5 
REMARK    4  A    between atoms: C6_8  and  O1_9 
REMARK    5  A    between atoms: C8_13  and  C9_14 
REMARK    6  A    between atoms: C13_21  and  C14_22 
REMARK    7  A    between atoms: C14_22  and  C15_23 
REMARK    8  A    between atoms: C19_30  and  C20_31 
ROOT
HETATM    1  C5  UNL     1      15.212   9.777   2.298  1.00  0.00     0.175 C 
HETATM    2  N1  UNL     1      15.399  10.963   1.541  1.00  0.00    -0.355 N 
ATOM      3  H1  UNL     1      16.127  11.583   1.896  1.00  0.00     0.162 HD
HETATM    4  C6  UNL     1      14.742  11.431   0.372  1.00  0.00     0.185 C 
HETATM    5  C7  UNL     1      14.678  10.807  -0.933  1.00  0.00     0.222 C 
HETATM    6  O2  UNL     1      13.489  10.489  -1.315  1.00  0.00    -0.286 OA
HETATM    7  C8  UNL     1      15.775  10.489  -1.875  1.00  0.00     0.166 C 
HETATM    8  N2  UNL     1      16.536  11.640  -2.300  1.00  0.00    -0.347 N 
ATOM      9  H2  UNL     1      16.024  12.289  -2.897  1.00  0.00     0.163 HD
HETATM   10  C12 UNL     1      17.844  12.013  -2.032  1.00  0.00     0.241 C 
HETATM   11  O3  UNL     1      17.995  13.120  -1.384  1.00  0.00    -0.271 OA
HETATM   12  C13 UNL     1      19.092  11.302  -2.397  1.00  0.00     0.177 C 
HETATM   13  N3  UNL     1      20.142  11.530  -1.412  1.00  0.00    -0.346 N 
ATOM     14  H3  UNL     1      20.116  12.432  -0.936  1.00  0.00     0.163 HD
HETATM   15  C18 UNL     1      21.184  10.669  -1.035  1.00  0.00     0.241 C 
HETATM   16  O4  UNL     1      22.396  11.089  -1.126  1.00  0.00    -0.271 OA
HETATM   17  C19 UNL     1      21.043   9.268  -0.519  1.00  0.00     0.180 C 
HETATM   18  N4  UNL     1      21.234   9.204   0.899  1.00  0.00    -0.346 N 
ATOM     19  H4  UNL     1      21.487  10.093   1.333  1.00  0.00     0.163 HD
HETATM   20  C23 UNL     1      21.136   8.145   1.783  1.00  0.00     0.237 C 
HETATM   21  O5  UNL     1      22.143   7.904   2.560  1.00  0.00    -0.272 OA
HETATM   22  C24 UNL     1      20.002   7.204   1.985  1.00  0.00     0.179 C 
HETATM   23 CL1  UNL     1      19.000   6.962   0.569  1.00  0.00    -0.115 Cl
HETATM   24  C25 UNL     1      19.255   7.457   3.255  1.00  0.00     0.031 C 
HETATM   25  C26 UNL     1      18.784   6.150   3.857  1.00  0.00     0.014 C 
HETATM   26  C27 UNL     1      18.083   8.391   3.177  1.00  0.00     0.086 C 
HETATM   27  C28 UNL     1      18.442   9.783   2.809  1.00  0.00     0.032 C 
HETATM   28  N5  UNL     1      16.982   7.873   2.433  1.00  0.00    -0.355 N 
ATOM     29  H5  UNL     1      16.961   6.859   2.331  1.00  0.00     0.162 HD
HETATM   30  C29 UNL     1      15.919   8.563   1.820  1.00  0.00     0.240 C 
HETATM   31  O6  UNL     1      15.527   8.072   0.724  1.00  0.00    -0.271 OA
ENDROOT
BRANCH   1  32
HETATM   32  C4  UNL     1      13.767   9.324   2.440  1.00  0.00     0.035 C 
BRANCH  32  33
HETATM   33  C3  UNL     1      13.022   9.853   3.595  1.00  0.00     0.002 C 
BRANCH  33  34
HETATM   34  C2  UNL     1      12.070  10.939   3.169  1.00  0.00    -0.004 C 
HETATM   35  C1  UNL     1      10.656  10.522   3.565  1.00  0.00     0.005 C 
ENDBRANCH  33  34
ENDBRANCH  32  33
ENDBRANCH   1  32
BRANCH   4  36
HETATM   36  O1  UNL     1      14.106  12.574   0.472  1.00  0.00    -0.344 OA
ATOM     37  H1  UNL     1      14.628  13.362   0.381  1.00  0.00     0.219 HD
ENDBRANCH   4  36
BRANCH   7  38
HETATM   38  C9  UNL     1      15.160   9.761  -3.060  1.00  0.00     0.008 C 
HETATM   39  C10 UNL     1      15.743   8.344  -3.168  1.00  0.00     0.012 C 
HETATM   40  C11 UNL     1      15.346  10.494  -4.368  1.00  0.00     0.012 C 
ENDBRANCH   7  38
BRANCH  12  41
HETATM   41  C14 UNL     1      19.539  11.564  -3.777  1.00  0.00     0.038 C 
BRANCH  41  42
HETATM   42  C15 UNL     1      19.648  10.506  -4.782  1.00  0.00    -0.020 C 
HETATM   43  C16 UNL     1      20.897  10.381  -5.569  1.00  0.00     0.009 C 
HETATM   44  C17 UNL     1      18.533  10.837  -5.807  1.00  0.00     0.009 C 
ENDBRANCH  41  42
ENDBRANCH  12  41
BRANCH  17  45
HETATM   45  C20 UNL     1      21.968   8.310  -1.259  1.00  0.00     0.009 C 
HETATM   46  C21 UNL     1      23.432   8.599  -0.994  1.00  0.00     0.012 C 
HETATM   47  C22 UNL     1      21.637   8.240  -2.714  1.00  0.00     0.012 C 
ENDBRANCH  17  45
TORSDOF 8
ENDMDL
MODEL 4
REMARK VINA RESULT: -7.139649588      2.164      6.786
REMARK  8 active torsions:
REMARK  status: ('A' for Active; 'I' for Inactive)
REMARK    1  A    between atoms: C2_2  and  C3_3 
REMARK    2  A    between atoms: C3_3  and  C4_4 
REMARK    3  A    between atoms: C4_4  and  C5_5 
REMARK    4  A    between atoms: C6_8  and  O1_9 
REMARK    5  A    between atoms: C8_13  and  C9_14 
REMARK    6  A    between atoms: C13_21  and  C14_22 
REMARK    7  A    between atoms: C14_22  and  C15_23 
REMARK    8  A    between atoms: C19_30  and  C20_31 
ROOT
HETATM    1  C5  UNL     1      18.100  10.094  -3.483  1.00  0.00     0.175 C 
HETATM    2  N1  UNL     1      17.020   9.207  -3.236  1.00  0.00    -0.355 N 
ATOM      3  H1  UNL     1      17.294   8.235  -3.089  1.00  0.00     0.162 HD
HETATM    4  C6  UNL     1      15.622   9.445  -3.160  1.00  0.00     0.185 C 
HETATM    5  C7  UNL     1      14.905  10.306  -2.242  1.00  0.00     0.222 C 
HETATM    6  O2  UNL     1      14.267  11.273  -2.807  1.00  0.00    -0.286 OA
HETATM    7  C8  UNL     1      14.806  10.228  -0.768  1.00  0.00     0.166 C 
HETATM    8  N2  UNL     1      14.239   8.991  -0.283  1.00  0.00    -0.347 N 
ATOM      9  H2  UNL     1      13.249   8.867  -0.495  1.00  0.00     0.163 HD
HETATM   10  C12 UNL     1      14.813   7.944   0.422  1.00  0.00     0.241 C 
HETATM   11  O3  UNL     1      14.828   6.800  -0.178  1.00  0.00    -0.271 OA
HETATM   12  C13 UNL     1      15.411   7.971   1.778  1.00  0.00     0.177 C 
HETATM   13  N3  UNL     1      16.493   7.004   1.902  1.00  0.00    -0.346 N 
ATOM     14  H3  UNL     1      16.403   6.161   1.334  1.00  0.00     0.163 HD
HETATM   15  C18 UNL     1      17.643   7.081   2.704  1.00  0.00     0.241 C 
HETATM   16  O4  UNL     1      17.879   6.132   3.538  1.00  0.00    -0.271 OA
HETATM   17  C19 UNL     1      18.663   8.179   2.698  1.00  0.00     0.180 C 
HETATM   18  N4  UNL     1      19.857   7.791   2.008  1.00  0.00    -0.346 N 
ATOM     19  H4  UNL     1      19.858   6.826   1.676  1.00  0.00     0.163 HD
HETATM   20  C23 UNL     1      21.008   8.497   1.714  1.00  0.00     0.237 C 
HETATM   21  O5  UNL     1      22.144   7.987   2.068  1.00  0.00    -0.272 OA
HETATM   22  C24 UNL     1      21.145   9.807   1.023  1.00  0.00     0.179 C 
HETATM   23 CL1  UNL     1      19.760  10.867   1.197  1.00  0.00    -0.115 Cl
HETATM   24  C25 UNL     1      21.674   9.679  -0.369  1.00  0.00     0.031 C 
HETATM   25  C26 UNL     1      22.574  10.850  -0.700  1.00  0.00     0.014 C 
HETATM   26  C27 UNL     1      20.661   9.537  -1.468  1.00  0.00     0.086 C 
HETATM   27  C28 UNL     1      19.849   8.297  -1.387  1.00  0.00     0.032 C 
HETATM   28  N5  UNL     1      19.883  10.711  -1.690  1.00  0.00    -0.355 N 
ATOM     29  H5  UNL     1      20.293  11.579  -1.348  1.00  0.00     0.162 HD
HETATM   30  C29 UNL     1      18.629  10.841  -2.316  1.00  0.00     0.240 C 
HETATM   31  O6  UNL     1      17.868  11.712  -1.806  1.00  0.00    -0.271 OA
ENDROOT
BRANCH   1  32
HETATM   32  C4  UNL     1      17.819  11.179  -4.512  1.00  0.00     0.035 C 
BRANCH  32  33
HETATM   33  C3  UNL     1      18.116  10.847  -5.916  1.00  0.00     0.002 C 
BRANCH  33  34
HETATM   34  C2  UNL     1      16.865  10.438  -6.649  1.00  0.00    -0.004 C 
HETATM   35  C1  UNL     1      16.430  11.597  -7.541  1.00  0.00     0.005 C 
ENDBRANCH  33  34
ENDBRANCH  32  33
ENDBRANCH   1  32
BRANCH   4  36
HETATM   36  O1  UNL     1      14.869   8.810  -4.028  1.00  0.00    -0.344 OA
ATOM     37  H1  UNL     1      14.686   9.261  -4.844  1.00  0.00     0.219 HD
ENDBRANCH   4  36
BRANCH   7  38
HETATM   38  C9  UNL     1      13.999  11.429  -0.302  1.00  0.00     0.008 C 
HETATM   39  C10 UNL     1      14.887  12.681  -0.275  1.00  0.00     0.012 C 
HETATM   40  C11 UNL     1      13.358  11.225   1.050  1.00  0.00     0.012 C 
ENDBRANCH   7  38
BRANCH  12  41
HETATM   41  C14 UNL     1      14.418   7.858   2.863  1.00  0.00     0.038 C 
BRANCH  41  42
HETATM   42  C15 UNL     1      14.642   8.422   4.195  1.00  0.00    -0.020 C 
HETATM   43  C16 UNL     1      14.579   7.532   5.377  1.00  0.00     0.009 C 
HETATM   44  C17 UNL     1      13.494   9.447   4.374  1.00  0.00     0.009 C 
ENDBRANCH  41  42
ENDBRANCH  12  41
BRANCH  17  45
HETATM   45  C20 UNL     1      18.959   8.667   4.110  1.00  0.00     0.009 C 
HETATM   46  C21 UNL     1      19.519   7.571   4.996  1.00  0.00     0.012 C 
HETATM   47  C22 UNL     1      17.780   9.363   4.710  1.00  0.00     0.012 C 
ENDBRANCH  17  45
TORSDOF 8
ENDMDL
MODEL 5
REMARK VINA RESULT: -7.138439153      2.104      3.140
REMARK  8 active torsions:
REMARK  status: ('A' for Active; 'I' for Inactive)
REMARK    1  A    between atoms: C2_2  and  C3_3 
REMARK    2  A    between atoms: C3_3  and  C4_4 
REMARK    3  A    between atoms: C4_4  and  C5_5 
REMARK    4  A    between atoms: C6_8  and  O1_9 
REMARK    5  A    between atoms: C8_13  and  C9_14 
REMARK    6  A    between atoms: C13_21  and  C14_22 
REMARK    7  A    between atoms: C14_22  and  C15_23 
REMARK    8  A    between atoms: C19_30  and  C20_31 
ROOT
HETATM    1  C5  UNL     1      15.204   9.699   2.285  1.00  0.00     0.175 C 
HETATM    2  N1  UNL     1      15.386  10.891   1.536  1.00  0.00    -0.355 N 
ATOM      3  H1  UNL     1      16.103  11.517   1.902  1.00  0.00     0.162 HD
HETATM    4  C6  UNL     1      14.736  11.358   0.362  1.00  0.00     0.185 C 
HETATM    5  C7  UNL     1      14.694  10.740  -0.947  1.00  0.00     0.222 C 
HETATM    6  O2  UNL     1      13.512  10.412  -1.343  1.00  0.00    -0.286 OA
HETATM    7  C8  UNL     1      15.803  10.439  -1.878  1.00  0.00     0.166 C 
HETATM    8  N2  UNL     1      16.556  11.601  -2.288  1.00  0.00    -0.347 N 
ATOM      9  H2  UNL     1      16.044  12.248  -2.888  1.00  0.00     0.163 HD
HETATM   10  C12 UNL     1      17.857  11.987  -2.005  1.00  0.00     0.241 C 
HETATM   11  O3  UNL     1      17.989  13.092  -1.349  1.00  0.00    -0.271 OA
HETATM   12  C13 UNL     1      19.118  11.292  -2.360  1.00  0.00     0.177 C 
HETATM   13  N3  UNL     1      20.154  11.525  -1.363  1.00  0.00    -0.346 N 
ATOM     14  H3  UNL     1      20.113  12.424  -0.882  1.00  0.00     0.163 HD
HETATM   15  C18 UNL     1      21.202  10.673  -0.978  1.00  0.00     0.241 C 
HETATM   16  O4  UNL     1      22.409  11.107  -1.054  1.00  0.00    -0.271 OA
HETATM   17  C19 UNL     1      21.070   9.269  -0.472  1.00  0.00     0.180 C 
HETATM   18  N4  UNL     1      21.247   9.199   0.948  1.00  0.00    -0.346 N 
ATOM     19  H4  UNL     1      21.485  10.088   1.389  1.00  0.00     0.163 HD
HETATM   20  C23 UNL     1      21.150   8.135   1.825  1.00  0.00     0.237 C 
HETATM   21  O5  UNL     1      22.151   7.901   2.612  1.00  0.00    -0.272 OA
HETATM   22  C24 UNL     1      20.025   7.180   2.011  1.00  0.00     0.179 C 
HETATM   23 CL1  UNL     1      19.040   6.935   0.582  1.00  0.00    -0.115 Cl
HETATM   24  C25 UNL     1      19.261   7.418   3.273  1.00  0.00     0.031 C 
HETATM   25  C26 UNL     1      18.798   6.103   3.864  1.00  0.00     0.014 C 
HETATM   26  C27 UNL     1      18.080   8.339   3.187  1.00  0.00     0.086 C 
HETATM   27  C28 UNL     1      18.427   9.738   2.830  1.00  0.00     0.032 C 
HETATM   28  N5  UNL     1      16.993   7.813   2.429  1.00  0.00    -0.355 N 
ATOM     29  H5  UNL     1      16.984   6.800   2.321  1.00  0.00     0.162 HD
HETATM   30  C29 UNL     1      15.929   8.496   1.808  1.00  0.00     0.240 C 
HETATM   31  O6  UNL     1      15.555   8.006   0.706  1.00  0.00    -0.271 OA
ENDROOT
BRANCH   1  32
HETATM   32  C4  UNL     1      13.762   9.230   2.409  1.00  0.00     0.035 C 
BRANCH  32  33
HETATM   33  C3  UNL     1      13.261   8.995   3.773  1.00  0.00     0.002 C 
BRANCH  33  34
HETATM   34  C2  UNL     1      13.095   7.522   4.040  1.00  0.00    -0.004 C 
HETATM   35  C1  UNL     1      14.260   7.056   4.909  1.00  0.00     0.005 C 
ENDBRANCH  33  34
ENDBRANCH  32  33
ENDBRANCH   1  32
BRANCH   4  36
HETATM   36  O1  UNL     1      14.086  12.494   0.461  1.00  0.00    -0.344 OA
ATOM     37  H1  UNL     1      14.279  13.153  -0.194  1.00  0.00     0.219 HD
ENDBRANCH   4  36
BRANCH   7  38
HETATM   38  C9  UNL     1      15.210   9.711  -3.074  1.00  0.00     0.008 C 
HETATM   39  C10 UNL     1      15.765   8.281  -3.149  1.00  0.00     0.012 C 
HETATM   40  C11 UNL     1      15.451  10.425  -4.383  1.00  0.00     0.012 C 
ENDBRANCH   7  38
BRANCH  12  41
HETATM   41  C14 UNL     1      19.576  11.566  -3.734  1.00  0.00     0.038 C 
BRANCH  41  42
HETATM   42  C15 UNL     1      19.687  10.517  -4.750  1.00  0.00    -0.020 C 
HETATM   43  C16 UNL     1      20.937  10.400  -5.535  1.00  0.00     0.009 C 
HETATM   44  C17 UNL     1      18.574  10.859  -5.773  1.00  0.00     0.009 C 
ENDBRANCH  41  42
ENDBRANCH  12  41
BRANCH  17  45
HETATM   45  C20 UNL     1      22.013   8.325  -1.206  1.00  0.00     0.009 C 
HETATM   46  C21 UNL     1      23.463   8.543  -0.824  1.00  0.00     0.012 C 
HETATM   47  C22 UNL     1      21.783   8.357  -2.682  1.00  0.00     0.012 C 
ENDBRANCH  17  45
TORSDOF 8
ENDMDL
