MODEL 1
REMARK VINA RESULT: -8.476109848      0.000      0.000
REMARK  10 active torsions:
REMARK  status: ('A' for Active; 'I' for Inactive)
REMARK    1  A    between atoms: C2_2  and  C3_3 
REMARK    2  A    between atoms: C3_3  and  C5_5 
REMARK    3  A    between atoms: C12_18  and  C13_19 
REMARK    4  A    between atoms: C16_24  and  O2_25 
REMARK    5  A    between atoms: C17_27  and  C18_28 
REMARK    6  A    between atoms: C18_28  and  C19_29 
REMARK    7  A    between atoms: C19_29  and  C20_30 
REMARK    8  A    between atoms: C20_30  and  C21_31 
REMARK    9  A    between atoms: C21_31  and  N4_32 
REMARK   10  A    between atoms: C26_43  and  O5_44 
ROOT
HETATM    1  C5  UNL     1      19.781   7.327  -1.422  1.00  0.00     0.163 C 
HETATM    2  N1  UNL     1      20.323   7.880  -0.213  1.00  0.00    -0.343 N 
ATOM      3  H1  UNL     1      21.221   8.340  -0.364  1.00  0.00     0.163 HD
HETATM    4  C6  UNL     1      19.917   7.936   1.107  1.00  0.00     0.269 C 
HETATM    5  O1  UNL     1      20.869   7.887   1.986  1.00  0.00    -0.266 OA
HETATM    6  C7  UNL     1      18.530   8.045   1.684  1.00  0.00     0.108 A 
HETATM    7  N2  UNL     1      17.482   8.724   1.220  1.00  0.00    -0.352 N 
ATOM      8  H2  UNL     1      17.505   9.381   0.441  1.00  0.00     0.166 HD
HETATM    9  C8  UNL     1      16.393   8.409   1.936  1.00  0.00     0.051 A 
HETATM   10  C9  UNL     1      16.783   7.501   2.909  1.00  0.00     0.044 A 
HETATM   11 BR1  UNL     1      15.730   6.672   4.265  1.00  0.00    -0.048 Br
HETATM   12  C10 UNL     1      18.113   7.259   2.771  1.00  0.00    -0.010 A 
HETATM   13  C11 UNL     1      18.962   6.343   3.629  1.00  0.00     0.052 C 
HETATM   14  C12 UNL     1      14.987   8.788   1.664  1.00  0.00     0.138 C 
HETATM   15  N3  UNL     1      14.473   8.066   0.480  1.00  0.00    -0.362 N 
ATOM     16  H3  UNL     1      13.472   8.175   0.314  1.00  0.00     0.162 HD
HETATM   17  C16 UNL     1      15.130   7.265  -0.441  1.00  0.00     0.135 C 
HETATM   18  C17 UNL     1      16.141   7.556  -1.491  1.00  0.00     0.158 C 
HETATM   19  N6  UNL     1      17.234   6.621  -1.583  1.00  0.00    -0.361 N 
ATOM     20  H6  UNL     1      16.969   5.765  -2.072  1.00  0.00     0.162 HD
HETATM   21  C26 UNL     1      18.553   6.597  -1.173  1.00  0.00     0.135 C 
ENDROOT
BRANCH  18  22
HETATM   22  C18 UNL     1      15.400   7.499  -2.877  1.00  0.00     0.033 C 
BRANCH  22  23
HETATM   23  C19 UNL     1      15.080   8.915  -3.296  1.00  0.00     0.004 C 
BRANCH  23  24
HETATM   24  C20 UNL     1      16.121   9.872  -2.875  1.00  0.00     0.020 C 
BRANCH  24  25
HETATM   25  C21 UNL     1      16.064  11.266  -3.389  1.00  0.00     0.137 C 
BRANCH  25  26
HETATM   26  N4  UNL     1      16.093  11.429  -4.799  1.00  0.00    -0.270 N 
HETATM   27  C22 UNL     1      17.135  10.942  -5.622  1.00  0.00     0.229 C 
HETATM   28  O3  UNL     1      18.327  10.903  -5.279  1.00  0.00    -0.273 OA
HETATM   29  C23 UNL     1      16.756  10.456  -6.976  1.00  0.00     0.123 C 
HETATM   30  C24 UNL     1      15.958  11.431  -7.774  1.00  0.00     0.133 C 
HETATM   31  N5  UNL     1      15.090  12.211  -6.926  1.00  0.00    -0.342 N 
HETATM   32  C25 UNL     1      15.025  12.094  -5.510  1.00  0.00     0.325 C 
ATOM     33  H5  UNL     1      14.480  12.894  -7.374  1.00  0.00     0.164 HD
HETATM   34  O4  UNL     1      14.038  12.576  -4.917  1.00  0.00    -0.247 OA
ENDBRANCH  25  26
ENDBRANCH  24  25
ENDBRANCH  23  24
ENDBRANCH  22  23
ENDBRANCH  18  22
BRANCH  17  35
HETATM   35  O2  UNL     1      14.817   6.003  -0.409  1.00  0.00    -0.348 OA
ATOM     36  H2  UNL     1      14.919   5.536  -1.229  1.00  0.00     0.219 HD
ENDBRANCH  17  35
BRANCH  21  37
HETATM   37  O5  UNL     1      18.804   5.640  -0.302  1.00  0.00    -0.348 OA
ATOM     38  H5  UNL     1      19.019   4.847  -0.779  1.00  0.00     0.219 HD
ENDBRANCH  21  37
BRANCH  14  39
HETATM   39  C13 UNL     1      14.504  10.142   1.636  1.00  0.00     0.006 C 
HETATM   40  C14 UNL     1      14.311  10.757   0.259  1.00  0.00     0.012 C 
HETATM   41  C15 UNL     1      13.354  10.489   2.565  1.00  0.00     0.012 C 
ENDBRANCH  14  39
BRANCH   1  42
HETATM   42  C3  UNL     1      19.834   8.249  -2.593  1.00  0.00     0.012 C 
HETATM   43  C4  UNL     1      19.595   9.675  -2.206  1.00  0.00     0.012 C 
BRANCH  42  44
HETATM   44  C2  UNL     1      21.147   8.177  -3.323  1.00  0.00     0.002 C 
HETATM   45  C1  UNL     1      21.476   6.689  -3.509  1.00  0.00     0.005 C 
ENDBRANCH  42  44
ENDBRANCH   1  42
TORSDOF 10
ENDMDL
MODEL 2
REMARK VINA RESULT: -8.136307632      3.234      6.299
REMARK  10 active torsions:
REMARK  status: ('A' for Active; 'I' for Inactive)
REMARK    1  A    between atoms: C2_2  and  C3_3 
REMARK    2  A    between atoms: C3_3  and  C5_5 
REMARK    3  A    between atoms: C12_18  and  C13_19 
REMARK    4  A    between atoms: C16_24  and  O2_25 
REMARK    5  A    between atoms: C17_27  and  C18_28 
REMARK    6  A    between atoms: C18_28  and  C19_29 
REMARK    7  A    between atoms: C19_29  and  C20_30 
REMARK    8  A    between atoms: C20_30  and  C21_31 
REMARK    9  A    between atoms: C21_31  and  N4_32 
REMARK   10  A    between atoms: C26_43  and  O5_44 
ROOT
HETATM    1  C5  UNL     1      17.228   7.239  -0.423  1.00  0.00     0.163 C 
HETATM    2  N1  UNL     1      17.807   6.172  -1.188  1.00  0.00    -0.343 N 
ATOM      3  H1  UNL     1      17.129   5.444  -1.416  1.00  0.00     0.163 HD
HETATM    4  C6  UNL     1      19.066   5.895  -1.689  1.00  0.00     0.269 C 
HETATM    5  O1  UNL     1      19.390   4.640  -1.719  1.00  0.00    -0.266 OA
HETATM    6  C7  UNL     1      20.123   6.834  -2.205  1.00  0.00     0.108 A 
HETATM    7  N2  UNL     1      19.975   7.959  -2.902  1.00  0.00    -0.352 N 
ATOM      8  H2  UNL     1      19.096   8.296  -3.296  1.00  0.00     0.166 HD
HETATM    9  C8  UNL     1      21.158   8.581  -3.006  1.00  0.00     0.051 A 
HETATM   10  C9  UNL     1      22.099   7.796  -2.356  1.00  0.00     0.044 A 
HETATM   11 BR1  UNL     1      23.971   8.092  -2.151  1.00  0.00    -0.048 Br
HETATM   12  C10 UNL     1      21.475   6.700  -1.849  1.00  0.00    -0.010 A 
HETATM   13  C11 UNL     1      22.119   5.567  -1.076  1.00  0.00     0.052 C 
HETATM   14  C12 UNL     1      21.428   9.937  -3.540  1.00  0.00     0.138 C 
HETATM   15  N3  UNL     1      20.914  10.972  -2.617  1.00  0.00    -0.362 N 
ATOM     16  H3  UNL     1      21.183  11.927  -2.853  1.00  0.00     0.162 HD
HETATM   17  C16 UNL     1      20.126  10.854  -1.483  1.00  0.00     0.135 C 
HETATM   18  C17 UNL     1      18.707  10.461  -1.276  1.00  0.00     0.158 C 
HETATM   19  N6  UNL     1      18.460   9.569  -0.172  1.00  0.00    -0.361 N 
ATOM     20  H6  UNL     1      18.458  10.056   0.725  1.00  0.00     0.162 HD
HETATM   21  C26 UNL     1      18.224   8.216  -0.027  1.00  0.00     0.135 C 
ENDROOT
BRANCH  18  22
HETATM   22  C18 UNL     1      17.903  11.776  -0.963  1.00  0.00     0.033 C 
BRANCH  22  23
HETATM   23  C19 UNL     1      17.630  12.481  -2.272  1.00  0.00     0.004 C 
BRANCH  23  24
HETATM   24  C20 UNL     1      16.418  11.971  -2.940  1.00  0.00     0.020 C 
BRANCH  24  25
HETATM   25  C21 UNL     1      15.145  12.723  -2.787  1.00  0.00     0.137 C 
BRANCH  25  26
HETATM   26  N4  UNL     1      14.620  12.831  -1.472  1.00  0.00    -0.270 N 
HETATM   27  C22 UNL     1      14.624  14.031  -0.724  1.00  0.00     0.229 C 
HETATM   28  O3  UNL     1      15.529  14.879  -0.779  1.00  0.00    -0.273 OA
HETATM   29  C23 UNL     1      13.464  14.269   0.178  1.00  0.00     0.123 C 
HETATM   30  C24 UNL     1      13.179  13.145   1.115  1.00  0.00     0.133 C 
HETATM   31  N5  UNL     1      13.478  11.872   0.508  1.00  0.00    -0.342 N 
HETATM   32  C25 UNL     1      14.010  11.705  -0.802  1.00  0.00     0.325 C 
ATOM     33  H5  UNL     1      13.296  11.031   1.055  1.00  0.00     0.164 HD
HETATM   34  O4  UNL     1      13.935  10.580  -1.337  1.00  0.00    -0.247 OA
ENDBRANCH  25  26
ENDBRANCH  24  25
ENDBRANCH  23  24
ENDBRANCH  22  23
ENDBRANCH  18  22
BRANCH  17  35
HETATM   35  O2  UNL     1      20.715  11.145  -0.359  1.00  0.00    -0.348 OA
ATOM     36  H2  UNL     1      20.251  11.756   0.199  1.00  0.00     0.219 HD
ENDBRANCH  17  35
BRANCH  21  37
HETATM   37  O5  UNL     1      19.158   7.602   0.672  1.00  0.00    -0.348 OA
ATOM     38  H5  UNL     1      20.000   7.772   0.266  1.00  0.00     0.219 HD
ENDBRANCH  21  37
BRANCH  14  39
HETATM   39  C13 UNL     1      21.165  10.341  -4.894  1.00  0.00     0.006 C 
HETATM   40  C14 UNL     1      19.771  10.881  -5.174  1.00  0.00     0.012 C 
HETATM   41  C15 UNL     1      22.231  11.167  -5.593  1.00  0.00     0.012 C 
ENDBRANCH  14  39
BRANCH   1  42
HETATM   42  C3  UNL     1      15.922   7.729  -0.949  1.00  0.00     0.012 C 
HETATM   43  C4  UNL     1      15.834   7.625  -2.440  1.00  0.00     0.012 C 
BRANCH  42  44
HETATM   44  C2  UNL     1      14.751   6.993  -0.359  1.00  0.00     0.002 C 
HETATM   45  C1  UNL     1      15.070   6.756   1.124  1.00  0.00     0.005 C 
ENDBRANCH  42  44
ENDBRANCH   1  42
TORSDOF 10
ENDMDL
MODEL 3
REMARK VINA RESULT: -8.027760970      2.922      6.397
REMARK  10 active torsions:
REMARK  status: ('A' for Active; 'I' for Inactive)
REMARK    1  A    between atoms: C2_2  and  C3_3 
REMARK    2  A    between atoms: C3_3  and  C5_5 
REMARK    3  A    between atoms: C12_18  and  C13_19 
REMARK    4  A    between atoms: C16_24  and  O2_25 
REMARK    5  A    between atoms: C17_27  and  C18_28 
REMARK    6  A    between atoms: C18_28  and  C19_29 
REMARK    7  A    between atoms: C19_29  and  C20_30 
REMARK    8  A    between atoms: C20_30  and  C21_31 
REMARK    9  A    between atoms: C21_31  and  N4_32 
REMARK   10  A    between atoms: C26_43  and  O5_44 
ROOT
HETATM    1  C5  UNL     1      11.976   9.368   4.359  1.00  0.00     0.163 C 
HETATM    2  N1  UNL     1      12.288   8.012   4.709  1.00  0.00    -0.343 N 
ATOM      3  H1  UNL     1      11.478   7.507   5.070  1.00  0.00     0.163 HD
HETATM    4  C6  UNL     1      13.425   7.226   4.672  1.00  0.00     0.269 C 
HETATM    5  O1  UNL     1      13.530   6.353   5.626  1.00  0.00    -0.266 OA
HETATM    6  C7  UNL     1      14.567   7.232   3.691  1.00  0.00     0.108 A 
HETATM    7  N2  UNL     1      14.539   7.441   2.377  1.00  0.00    -0.352 N 
ATOM      8  H2  UNL     1      13.694   7.518   1.810  1.00  0.00     0.166 HD
HETATM    9  C8  UNL     1      15.793   7.535   1.912  1.00  0.00     0.051 A 
HETATM   10  C9  UNL     1      16.650   7.357   2.988  1.00  0.00     0.044 A 
HETATM   11 BR1  UNL     1      18.557   7.351   3.013  1.00  0.00    -0.048 Br
HETATM   12  C10 UNL     1      15.907   7.165   4.109  1.00  0.00    -0.010 A 
HETATM   13  C11 UNL     1      16.426   6.916   5.510  1.00  0.00     0.052 C 
HETATM   14  C12 UNL     1      16.231   7.935   0.554  1.00  0.00     0.138 C 
HETATM   15  N3  UNL     1      15.994   9.378   0.335  1.00  0.00    -0.362 N 
ATOM     16  H3  UNL     1      16.394   9.751  -0.527  1.00  0.00     0.162 HD
HETATM   17  C16 UNL     1      15.316  10.306   1.110  1.00  0.00     0.135 C 
HETATM   18  C17 UNL     1      13.880  10.478   1.453  1.00  0.00     0.158 C 
HETATM   19  N6  UNL     1      13.599  10.796   2.831  1.00  0.00    -0.361 N 
ATOM     20  H6  UNL     1      13.770  11.779   3.042  1.00  0.00     0.162 HD
HETATM   21  C26 UNL     1      13.156  10.096   3.936  1.00  0.00     0.135 C 
ENDROOT
BRANCH  18  22
HETATM   22  C18 UNL     1      13.343  11.691   0.608  1.00  0.00     0.033 C 
BRANCH  22  23
HETATM   23  C19 UNL     1      13.971  11.620  -0.765  1.00  0.00     0.004 C 
BRANCH  23  24
HETATM   24  C20 UNL     1      14.504  12.923  -1.206  1.00  0.00     0.020 C 
BRANCH  24  25
HETATM   25  C21 UNL     1      15.698  12.947  -2.090  1.00  0.00     0.137 C 
BRANCH  25  26
HETATM   26  N4  UNL     1      15.778  11.938  -3.085  1.00  0.00    -0.270 N 
HETATM   27  C22 UNL     1      15.047  11.971  -4.295  1.00  0.00     0.229 C 
HETATM   28  O3  UNL     1      13.900  12.434  -4.398  1.00  0.00    -0.273 OA
HETATM   29  C23 UNL     1      15.712  11.413  -5.503  1.00  0.00     0.123 C 
HETATM   30  C24 UNL     1      16.241  10.030  -5.324  1.00  0.00     0.133 C 
HETATM   31  N5  UNL     1      16.711   9.822  -3.976  1.00  0.00    -0.342 N 
HETATM   32  C25 UNL     1      16.650  10.794  -2.939  1.00  0.00     0.325 C 
ATOM     33  H5  UNL     1      17.117   8.914  -3.751  1.00  0.00     0.164 HD
HETATM   34  O4  UNL     1      17.356  10.628  -1.924  1.00  0.00    -0.247 OA
ENDBRANCH  25  26
ENDBRANCH  24  25
ENDBRANCH  23  24
ENDBRANCH  22  23
ENDBRANCH  18  22
BRANCH  17  35
HETATM   35  O2  UNL     1      16.056  11.228   1.654  1.00  0.00    -0.348 OA
ATOM     36  H2  UNL     1      16.642  11.684   1.062  1.00  0.00     0.219 HD
ENDBRANCH  17  35
BRANCH  21  37
HETATM   37  O5  UNL     1      14.040  10.065   4.914  1.00  0.00    -0.348 OA
ATOM     38  H5  UNL     1      14.602   9.309   4.789  1.00  0.00     0.219 HD
ENDBRANCH  21  37
BRANCH  14  39
HETATM   39  C13 UNL     1      15.903   7.216  -0.647  1.00  0.00     0.006 C 
HETATM   40  C14 UNL     1      14.702   7.726  -1.427  1.00  0.00     0.012 C 
HETATM   41  C15 UNL     1      17.051   6.849  -1.573  1.00  0.00     0.012 C 
ENDBRANCH  14  39
BRANCH   1  42
HETATM   42  C3  UNL     1      10.724   9.522   3.564  1.00  0.00     0.012 C 
HETATM   43  C4  UNL     1       9.924   8.257   3.512  1.00  0.00     0.012 C 
BRANCH  42  44
HETATM   44  C2  UNL     1       9.837  10.615   4.093  1.00  0.00     0.002 C 
HETATM   45  C1  UNL     1       8.775   9.943   4.976  1.00  0.00     0.005 C 
ENDBRANCH  42  44
ENDBRANCH   1  42
TORSDOF 10
ENDMDL
MODEL 4
REMARK VINA RESULT: -8.018582202      4.688      8.225
REMARK  10 active torsions:
REMARK  status: ('A' for Active; 'I' for Inactive)
REMARK    1  A    between atoms: C2_2  and  C3_3 
REMARK    2  A    between atoms: C3_3  and  C5_5 
REMARK    3  A    between atoms: C12_18  and  C13_19 
REMARK    4  A    between atoms: C16_24  and  O2_25 
REMARK    5  A    between atoms: C17_27  and  C18_28 
REMARK    6  A    between atoms: C18_28  and  C19_29 
REMARK    7  A    between atoms: C19_29  and  C20_30 
REMARK    8  A    between atoms: C20_30  and  C21_31 
REMARK    9  A    between atoms: C21_31  and  N4_32 
REMARK   10  A    between atoms: C26_43  and  O5_44 
ROOT
HETATM    1  C5  UNL     1      15.168   7.889   1.631  1.00  0.00     0.163 C 
HETATM    2  N1  UNL     1      16.572   7.591   1.640  1.00  0.00    -0.343 N 
ATOM      3  H1  UNL     1      17.033   7.862   0.771  1.00  0.00     0.163 HD
HETATM    4  C6  UNL     1      17.448   7.024   2.546  1.00  0.00     0.269 C 
HETATM    5  O1  UNL     1      18.406   6.319   2.029  1.00  0.00    -0.266 OA
HETATM    6  C7  UNL     1      17.458   7.097   4.050  1.00  0.00     0.108 A 
HETATM    7  N2  UNL     1      17.134   8.119   4.840  1.00  0.00    -0.352 N 
ATOM      8  H2  UNL     1      16.934   9.067   4.523  1.00  0.00     0.166 HD
HETATM    9  C8  UNL     1      17.111   7.708   6.116  1.00  0.00     0.051 A 
HETATM   10  C9  UNL     1      17.457   6.366   6.127  1.00  0.00     0.044 A 
HETATM   11 BR1  UNL     1      17.632   5.185   7.615  1.00  0.00    -0.048 Br
HETATM   12  C10 UNL     1      17.679   5.962   4.849  1.00  0.00    -0.010 A 
HETATM   13  C11 UNL     1      18.093   4.578   4.393  1.00  0.00     0.052 C 
HETATM   14  C12 UNL     1      16.635   8.458   7.303  1.00  0.00     0.138 C 
HETATM   15  N3  UNL     1      15.163   8.597   7.274  1.00  0.00    -0.362 N 
ATOM     16  H3  UNL     1      14.753   8.983   8.125  1.00  0.00     0.162 HD
HETATM   17  C16 UNL     1      14.249   8.289   6.278  1.00  0.00     0.135 C 
HETATM   18  C17 UNL     1      13.983   8.873   4.937  1.00  0.00     0.158 C 
HETATM   19  N6  UNL     1      13.762   7.924   3.874  1.00  0.00    -0.361 N 
ATOM     20  H6  UNL     1      12.819   7.535   3.895  1.00  0.00     0.162 HD
HETATM   21  C26 UNL     1      14.513   7.413   2.834  1.00  0.00     0.135 C 
ENDROOT
BRANCH  18  22
HETATM   22  C18 UNL     1      12.658   9.714   5.053  1.00  0.00     0.033 C 
BRANCH  22  23
HETATM   23  C19 UNL     1      12.181  10.030   3.655  1.00  0.00     0.004 C 
BRANCH  23  24
HETATM   24  C20 UNL     1      10.712  10.154   3.579  1.00  0.00     0.020 C 
BRANCH  24  25
HETATM   25  C21 UNL     1       9.885   8.920   3.619  1.00  0.00     0.137 C 
BRANCH  25  26
HETATM   26  N4  UNL     1       8.476   9.095   3.641  1.00  0.00    -0.270 N 
HETATM   27  C22 UNL     1       7.717   9.183   4.830  1.00  0.00     0.229 C 
HETATM   28  O3  UNL     1       7.978   8.552   5.867  1.00  0.00    -0.273 OA
HETATM   29  C23 UNL     1       6.538  10.090   4.814  1.00  0.00     0.123 C 
HETATM   30  C24 UNL     1       5.595   9.846   3.684  1.00  0.00     0.133 C 
HETATM   31  N5  UNL     1       6.301   9.420   2.500  1.00  0.00    -0.342 N 
HETATM   32  C25 UNL     1       7.708   9.223   2.424  1.00  0.00     0.325 C 
ATOM     33  H5  UNL     1       5.752   9.248   1.658  1.00  0.00     0.164 HD
HETATM   34  O4  UNL     1       8.241   9.164   1.297  1.00  0.00    -0.247 OA
ENDBRANCH  25  26
ENDBRANCH  24  25
ENDBRANCH  23  24
ENDBRANCH  22  23
ENDBRANCH  18  22
BRANCH  17  35
HETATM   35  O2  UNL     1      13.447   7.298   6.542  1.00  0.00    -0.348 OA
ATOM     36  H2  UNL     1      12.683   7.519   7.060  1.00  0.00     0.219 HD
ENDBRANCH  17  35
BRANCH  21  37
HETATM   37  O5  UNL     1      14.706   6.112   2.930  1.00  0.00    -0.348 OA
ATOM     38  H5  UNL     1      15.479   5.885   2.427  1.00  0.00     0.219 HD
ENDBRANCH  21  37
BRANCH  14  39
HETATM   39  C13 UNL     1      17.216   9.686   7.771  1.00  0.00     0.006 C 
HETATM   40  C14 UNL     1      16.753  10.955   7.072  1.00  0.00     0.012 C 
HETATM   41  C15 UNL     1      17.309   9.883   9.274  1.00  0.00     0.012 C 
ENDBRANCH  14  39
BRANCH   1  42
HETATM   42  C3  UNL     1      14.836   9.256   1.136  1.00  0.00     0.012 C 
HETATM   43  C4  UNL     1      15.830  10.281   1.586  1.00  0.00     0.012 C 
BRANCH  42  44
HETATM   44  C2  UNL     1      14.748   9.318  -0.364  1.00  0.00     0.002 C 
HETATM   45  C1  UNL     1      14.130  10.677  -0.722  1.00  0.00     0.005 C 
ENDBRANCH  42  44
ENDBRANCH   1  42
TORSDOF 10
ENDMDL
MODEL 5
REMARK VINA RESULT: -7.967945502      3.194      6.254
REMARK  10 active torsions:
REMARK  status: ('A' for Active; 'I' for Inactive)
REMARK    1  A    between atoms: C2_2  and  C3_3 
REMARK    2  A    between atoms: C3_3  and  C5_5 
REMARK    3  A    between atoms: C12_18  and  C13_19 
REMARK    4  A    between atoms: C16_24  and  O2_25 
REMARK    5  A    between atoms: C17_27  and  C18_28 
REMARK    6  A    between atoms: C18_28  and  C19_29 
REMARK    7  A    between atoms: C19_29  and  C20_30 
REMARK    8  A    between atoms: C20_30  and  C21_31 
REMARK    9  A    between atoms: C21_31  and  N4_32 
REMARK   10  A    between atoms: C26_43  and  O5_44 
ROOT
HETATM    1  C5  UNL     1      17.270   7.222  -0.465  1.00  0.00     0.163 C 
HETATM    2  N1  UNL     1      17.808   6.153  -1.257  1.00  0.00    -0.343 N 
ATOM      3  H1  UNL     1      17.099   5.469  -1.520  1.00  0.00     0.163 HD
HETATM    4  C6  UNL     1      19.060   5.831  -1.748  1.00  0.00     0.269 C 
HETATM    5  O1  UNL     1      19.322   4.562  -1.815  1.00  0.00    -0.266 OA
HETATM    6  C7  UNL     1      20.172   6.732  -2.216  1.00  0.00     0.108 A 
HETATM    7  N2  UNL     1      20.091   7.885  -2.876  1.00  0.00    -0.352 N 
ATOM      8  H2  UNL     1      19.237   8.279  -3.272  1.00  0.00     0.166 HD
HETATM    9  C8  UNL     1      21.306   8.449  -2.941  1.00  0.00     0.051 A 
HETATM   10  C9  UNL     1      22.195   7.597  -2.304  1.00  0.00     0.044 A 
HETATM   11 BR1  UNL     1      24.076   7.792  -2.060  1.00  0.00    -0.048 Br
HETATM   12  C10 UNL     1      21.509   6.517  -1.844  1.00  0.00    -0.010 A 
HETATM   13  C11 UNL     1      22.083   5.328  -1.100  1.00  0.00     0.052 C 
HETATM   14  C12 UNL     1      21.652   9.807  -3.424  1.00  0.00     0.138 C 
HETATM   15  N3  UNL     1      21.175  10.835  -2.475  1.00  0.00    -0.362 N 
ATOM     16  H3  UNL     1      21.495  11.783  -2.674  1.00  0.00     0.162 HD
HETATM   17  C16 UNL     1      20.363  10.720  -1.357  1.00  0.00     0.135 C 
HETATM   18  C17 UNL     1      18.923  10.393  -1.186  1.00  0.00     0.158 C 
HETATM   19  N6  UNL     1      18.613   9.478  -0.116  1.00  0.00    -0.361 N 
ATOM     20  H6  UNL     1      18.620   9.935   0.796  1.00  0.00     0.162 HD
HETATM   21  C26 UNL     1      18.307   8.134  -0.021  1.00  0.00     0.135 C 
ENDROOT
BRANCH  18  22
HETATM   22  C18 UNL     1      18.180  11.736  -0.840  1.00  0.00     0.033 C 
BRANCH  22  23
HETATM   23  C19 UNL     1      17.961  12.494  -2.129  1.00  0.00     0.004 C 
BRANCH  23  24
HETATM   24  C20 UNL     1      16.774  12.019  -2.864  1.00  0.00     0.020 C 
BRANCH  24  25
HETATM   25  C21 UNL     1      15.488  12.744  -2.694  1.00  0.00     0.137 C 
BRANCH  25  26
HETATM   26  N4  UNL     1      14.771  12.501  -1.493  1.00  0.00    -0.270 N 
HETATM   27  C22 UNL     1      14.248  11.237  -1.135  1.00  0.00     0.229 C 
HETATM   28  O3  UNL     1      13.792  10.419  -1.951  1.00  0.00    -0.273 OA
HETATM   29  C23 UNL     1      14.252  10.888   0.311  1.00  0.00     0.123 C 
HETATM   30  C24 UNL     1      13.615  11.913   1.188  1.00  0.00     0.133 C 
HETATM   31  N5  UNL     1      13.839  13.244   0.680  1.00  0.00    -0.342 N 
HETATM   32  C25 UNL     1      14.543  13.545  -0.520  1.00  0.00     0.325 C 
ATOM     33  H5  UNL     1      13.465  14.025   1.219  1.00  0.00     0.164 HD
HETATM   34  O4  UNL     1      14.945  14.712  -0.697  1.00  0.00    -0.247 OA
ENDBRANCH  25  26
ENDBRANCH  24  25
ENDBRANCH  23  24
ENDBRANCH  22  23
ENDBRANCH  18  22
BRANCH  17  35
HETATM   35  O2  UNL     1      20.946  10.943  -0.216  1.00  0.00    -0.348 OA
ATOM     36  H2  UNL     1      20.381  10.908   0.546  1.00  0.00     0.219 HD
ENDBRANCH  17  35
BRANCH  21  37
HETATM   37  O5  UNL     1      19.198   7.452   0.671  1.00  0.00    -0.348 OA
ATOM     38  H5  UNL     1      19.038   6.525   0.536  1.00  0.00     0.219 HD
ENDBRANCH  21  37
BRANCH  14  39
HETATM   39  C13 UNL     1      21.432  10.268  -4.768  1.00  0.00     0.006 C 
HETATM   40  C14 UNL     1      21.955   9.372  -5.879  1.00  0.00     0.012 C 
HETATM   41  C15 UNL     1      20.053  10.815  -5.098  1.00  0.00     0.012 C 
ENDBRANCH  14  39
BRANCH   1  42
HETATM   42  C3  UNL     1      16.000   7.795  -0.994  1.00  0.00     0.012 C 
HETATM   43  C4  UNL     1      15.923   7.728  -2.488  1.00  0.00     0.012 C 
BRANCH  42  44
HETATM   44  C2  UNL     1      14.783   7.112  -0.433  1.00  0.00     0.002 C 
HETATM   45  C1  UNL     1      14.959   7.060   1.091  1.00  0.00     0.005 C 
ENDBRANCH  42  44
ENDBRANCH   1  42
TORSDOF 10
ENDMDL
