MODEL 1
REMARK VINA RESULT: -7.326885552      0.000      0.000
REMARK  7 active torsions:
REMARK  status: ('A' for Active; 'I' for Inactive)
REMARK    1  A    between atoms: C2_2  and  C3_3 
REMARK    2  A    between atoms: C3_3  and  C4_4 
REMARK    3  A    between atoms: C6_9  and  C7_10 
REMARK    4  A    between atoms: C11_17  and  C12_18 
REMARK    5  A    between atoms: C12_18  and  C13_19 
REMARK    6  A    between atoms: C21_31  and  C22_32 
REMARK    7  A    between atoms: C22_32  and  C23_33 
ROOT
HETATM    1  C4  UNL     1       8.529  38.001  19.521  1.00  0.00     0.176 C 
HETATM    2  N1  UNL     1       7.590  38.429  20.539  1.00  0.00    -0.346 N 
ATOM      3  H1  UNL     1       6.899  39.105  20.212  1.00  0.00     0.163 HD
HETATM    4  C5  UNL     1       7.459  38.090  21.872  1.00  0.00     0.241 C 
HETATM    5  O1  UNL     1       7.560  39.061  22.717  1.00  0.00    -0.271 OA
HETATM    6  C6  UNL     1       7.218  36.776  22.511  1.00  0.00     0.180 C 
HETATM    7  N2  UNL     1       6.653  35.778  21.651  1.00  0.00    -0.346 N 
ATOM      8  H2  UNL     1       5.877  36.049  21.046  1.00  0.00     0.163 HD
HETATM    9  C10 UNL     1       7.117  34.409  21.588  1.00  0.00     0.241 C 
HETATM   10  O2  UNL     1       6.846  33.875  20.454  1.00  0.00    -0.271 OA
HETATM   11  C11 UNL     1       7.806  33.729  22.676  1.00  0.00     0.177 C 
HETATM   12  N3  UNL     1       9.254  33.704  22.463  1.00  0.00    -0.347 N 
ATOM     13  H3  UNL     1       9.772  34.491  22.853  1.00  0.00     0.163 HD
HETATM   14  C16 UNL     1      10.016  32.752  21.800  1.00  0.00     0.224 C 
HETATM   15  O3  UNL     1      11.063  32.351  22.437  1.00  0.00    -0.273 OA
HETATM   16  C17 UNL     1       9.800  32.140  20.482  1.00  0.00     0.101 C 
HETATM   17  C18 UNL     1      10.828  31.131  20.088  1.00  0.00     0.089 C 
HETATM   18  S1  UNL     1      10.640  31.547  18.340  1.00  0.00    -0.162 SA
HETATM   19  C19 UNL     1      10.158  32.971  19.319  1.00  0.00     0.063 C 
HETATM   20  C20 UNL     1      11.194  34.035  19.530  1.00  0.00     0.041 C 
HETATM   21  C21 UNL     1      10.718  35.385  19.002  1.00  0.00     0.092 C 
HETATM   22  N4  UNL     1      10.411  36.290  20.086  1.00  0.00    -0.354 N 
ATOM     23  H4  UNL     1      10.687  35.958  21.011  1.00  0.00     0.162 HD
HETATM   24  C25 UNL     1       9.806  37.526  20.076  1.00  0.00     0.240 C 
HETATM   25  O5  UNL     1      10.471  38.474  20.665  1.00  0.00    -0.271 OA
ENDROOT
BRANCH  11  26
HETATM   26  C12 UNL     1       7.314  32.432  23.157  1.00  0.00     0.038 C 
BRANCH  26  27
HETATM   27  C13 UNL     1       6.540  32.344  24.410  1.00  0.00    -0.020 C 
HETATM   28  C14 UNL     1       6.427  30.861  24.861  1.00  0.00     0.009 C 
HETATM   29  C15 UNL     1       5.091  32.727  24.155  1.00  0.00     0.009 C 
ENDBRANCH  26  27
ENDBRANCH  11  26
BRANCH   6  30
HETATM   30  C7  UNL     1       6.192  36.922  23.640  1.00  0.00     0.009 C 
HETATM   31  C8  UNL     1       4.852  36.362  23.315  1.00  0.00     0.012 C 
HETATM   32  C9  UNL     1       6.728  36.126  24.844  1.00  0.00     0.012 C 
ENDBRANCH   6  30
BRANCH   1  33
HETATM   33  C3  UNL     1       7.913  37.142  18.462  1.00  0.00     0.034 C 
BRANCH  33  34
HETATM   34  C2  UNL     1       8.185  37.848  17.120  1.00  0.00    -0.002 C 
HETATM   35  C1  UNL     1       7.081  38.846  16.825  1.00  0.00     0.005 C 
ENDBRANCH  33  34
ENDBRANCH   1  33
BRANCH  21  36
HETATM   36  C22 UNL     1      11.616  35.975  17.978  1.00  0.00     0.103 C 
BRANCH  36  37
HETATM   37  C23 UNL     1      12.898  35.346  17.727  1.00  0.00     0.125 C 
HETATM   38  C24 UNL     1      13.125  34.220  16.798  1.00  0.00     0.091 C 
HETATM   39  O4  UNL     1      13.872  35.801  18.351  1.00  0.00    -0.298 OA
ENDBRANCH  36  37
ENDBRANCH  21  36
TORSDOF 7
ENDMDL
MODEL 2
REMARK VINA RESULT: -7.273596343      2.312      5.972
REMARK  7 active torsions:
REMARK  status: ('A' for Active; 'I' for Inactive)
REMARK    1  A    between atoms: C2_2  and  C3_3 
REMARK    2  A    between atoms: C3_3  and  C4_4 
REMARK    3  A    between atoms: C6_9  and  C7_10 
REMARK    4  A    between atoms: C11_17  and  C12_18 
REMARK    5  A    between atoms: C12_18  and  C13_19 
REMARK    6  A    between atoms: C21_31  and  C22_32 
REMARK    7  A    between atoms: C22_32  and  C23_33 
ROOT
HETATM    1  C4  UNL     1       8.819  33.562  22.480  1.00  0.00     0.176 C 
HETATM    2  N1  UNL     1       8.306  34.582  23.374  1.00  0.00    -0.346 N 
ATOM      3  H1  UNL     1       8.633  34.497  24.336  1.00  0.00     0.163 HD
HETATM    4  C5  UNL     1       7.454  35.648  23.160  1.00  0.00     0.241 C 
HETATM    5  O1  UNL     1       6.365  35.651  23.854  1.00  0.00    -0.271 OA
HETATM    6  C6  UNL     1       7.579  36.813  22.255  1.00  0.00     0.180 C 
HETATM    7  N2  UNL     1       8.914  37.106  21.824  1.00  0.00    -0.346 N 
ATOM      8  H2  UNL     1       9.658  37.093  22.523  1.00  0.00     0.163 HD
HETATM    9  C10 UNL     1       9.272  37.419  20.457  1.00  0.00     0.241 C 
HETATM   10  O2  UNL     1      10.501  37.138  20.220  1.00  0.00    -0.271 OA
HETATM   11  C11 UNL     1       8.350  37.978  19.478  1.00  0.00     0.177 C 
HETATM   12  N3  UNL     1       7.829  36.946  18.580  1.00  0.00    -0.347 N 
ATOM     13  H3  UNL     1       6.967  36.492  18.881  1.00  0.00     0.163 HD
HETATM   14  C16 UNL     1       8.352  36.504  17.372  1.00  0.00     0.224 C 
HETATM   15  O3  UNL     1       7.503  36.428  16.406  1.00  0.00    -0.273 OA
HETATM   16  C17 UNL     1       9.729  36.113  17.043  1.00  0.00     0.101 C 
HETATM   17  C18 UNL     1       9.936  35.696  15.624  1.00  0.00     0.089 C 
HETATM   18  S1  UNL     1      11.237  34.537  16.100  1.00  0.00    -0.162 SA
HETATM   19  C19 UNL     1      10.147  34.777  17.504  1.00  0.00     0.063 C 
HETATM   20  C20 UNL     1       9.069  33.755  17.712  1.00  0.00     0.041 C 
HETATM   21  C21 UNL     1       9.189  33.093  19.081  1.00  0.00     0.092 C 
HETATM   22  N4  UNL     1       8.133  33.532  19.967  1.00  0.00    -0.354 N 
ATOM     23  H4  UNL     1       7.403  34.086  19.518  1.00  0.00     0.162 HD
HETATM   24  C25 UNL     1       7.953  33.325  21.315  1.00  0.00     0.240 C 
HETATM   25  O5  UNL     1       6.802  32.825  21.650  1.00  0.00    -0.271 OA
ENDROOT
BRANCH  11  26
HETATM   26  C12 UNL     1       8.713  39.195  18.742  1.00  0.00     0.038 C 
BRANCH  26  27
HETATM   27  C13 UNL     1       7.680  40.183  18.374  1.00  0.00    -0.020 C 
HETATM   28  C14 UNL     1       7.417  40.131  16.844  1.00  0.00     0.009 C 
HETATM   29  C15 UNL     1       8.212  41.592  18.575  1.00  0.00     0.009 C 
ENDBRANCH  26  27
ENDBRANCH  11  26
BRANCH   6  30
HETATM   30  C7  UNL     1       7.130  38.089  22.976  1.00  0.00     0.009 C 
HETATM   31  C8  UNL     1       8.222  39.077  23.193  1.00  0.00     0.012 C 
HETATM   32  C9  UNL     1       6.084  38.773  22.076  1.00  0.00     0.012 C 
ENDBRANCH   6  30
BRANCH   1  33
HETATM   33  C3  UNL     1      10.282  33.699  22.194  1.00  0.00     0.034 C 
BRANCH  33  34
HETATM   34  C2  UNL     1      10.994  32.655  23.075  1.00  0.00    -0.002 C 
HETATM   35  C1  UNL     1      11.645  33.336  24.264  1.00  0.00     0.005 C 
ENDBRANCH  33  34
ENDBRANCH   1  33
BRANCH  21  36
HETATM   36  C22 UNL     1       9.331  31.617  19.020  1.00  0.00     0.103 C 
BRANCH  36  37
HETATM   37  C23 UNL     1      10.658  31.046  18.902  1.00  0.00     0.125 C 
HETATM   38  C24 UNL     1      11.371  30.811  17.629  1.00  0.00     0.091 C 
HETATM   39  O4  UNL     1      11.226  30.735  19.962  1.00  0.00    -0.298 OA
ENDBRANCH  36  37
ENDBRANCH  21  36
TORSDOF 7
ENDMDL
MODEL 3
REMARK VINA RESULT: -7.161932662      2.730      7.454
REMARK  7 active torsions:
REMARK  status: ('A' for Active; 'I' for Inactive)
REMARK    1  A    between atoms: C2_2  and  C3_3 
REMARK    2  A    between atoms: C3_3  and  C4_4 
REMARK    3  A    between atoms: C6_9  and  C7_10 
REMARK    4  A    between atoms: C11_17  and  C12_18 
REMARK    5  A    between atoms: C12_18  and  C13_19 
REMARK    6  A    between atoms: C21_31  and  C22_32 
REMARK    7  A    between atoms: C22_32  and  C23_33 
ROOT
HETATM    1  C4  UNL     1      12.504  34.450  17.150  1.00  0.00     0.176 C 
HETATM    2  N1  UNL     1      12.896  35.308  16.049  1.00  0.00    -0.346 N 
ATOM      3  H1  UNL     1      13.304  34.810  15.257  1.00  0.00     0.163 HD
HETATM    4  C5  UNL     1      12.817  36.676  15.875  1.00  0.00     0.241 C 
HETATM    5  O1  UNL     1      13.937  37.287  15.677  1.00  0.00    -0.271 OA
HETATM    6  C6  UNL     1      11.645  37.580  15.876  1.00  0.00     0.180 C 
HETATM    7  N2  UNL     1      10.385  36.940  15.631  1.00  0.00    -0.346 N 
ATOM      8  H2  UNL     1      10.332  36.259  14.873  1.00  0.00     0.163 HD
HETATM    9  C10 UNL     1       9.184  37.202  16.394  1.00  0.00     0.241 C 
HETATM   10  O2  UNL     1       8.379  36.205  16.356  1.00  0.00    -0.271 OA
HETATM   11  C11 UNL     1       8.928  38.442  17.115  1.00  0.00     0.177 C 
HETATM   12  N3  UNL     1       9.206  38.300  18.545  1.00  0.00    -0.347 N 
ATOM     13  H3  UNL     1      10.157  38.526  18.834  1.00  0.00     0.163 HD
HETATM   14  C16 UNL     1       8.348  37.897  19.559  1.00  0.00     0.224 C 
HETATM   15  O3  UNL     1       8.349  38.650  20.605  1.00  0.00    -0.273 OA
HETATM   16  C17 UNL     1       7.444  36.740  19.608  1.00  0.00     0.101 C 
HETATM   17  C18 UNL     1       6.650  36.623  20.868  1.00  0.00     0.089 C 
HETATM   18  S1  UNL     1       6.641  34.820  20.754  1.00  0.00    -0.162 SA
HETATM   19  C19 UNL     1       8.078  35.438  19.876  1.00  0.00     0.063 C 
HETATM   20  C20 UNL     1       9.379  35.449  20.624  1.00  0.00     0.041 C 
HETATM   21  C21 UNL     1      10.437  34.616  19.908  1.00  0.00     0.092 C 
HETATM   22  N4  UNL     1      11.446  35.458  19.307  1.00  0.00    -0.354 N 
ATOM     23  H4  UNL     1      11.388  36.444  19.564  1.00  0.00     0.162 HD
HETATM   24  C25 UNL     1      12.473  35.149  18.444  1.00  0.00     0.240 C 
HETATM   25  O5  UNL     1      13.652  35.540  18.822  1.00  0.00    -0.271 OA
ENDROOT
BRANCH  11  26
HETATM   26  C12 UNL     1       7.679  39.178  16.884  1.00  0.00     0.038 C 
BRANCH  26  27
HETATM   27  C13 UNL     1       7.648  40.650  16.989  1.00  0.00    -0.020 C 
HETATM   28  C14 UNL     1       6.491  41.090  17.929  1.00  0.00     0.009 C 
HETATM   29  C15 UNL     1       7.245  41.259  15.656  1.00  0.00     0.009 C 
ENDBRANCH  26  27
ENDBRANCH  11  26
BRANCH   6  30
HETATM   30  C7  UNL     1      11.770  38.605  14.744  1.00  0.00     0.009 C 
HETATM   31  C8  UNL     1      10.902  39.802  14.912  1.00  0.00     0.012 C 
HETATM   32  C9  UNL     1      13.226  39.106  14.747  1.00  0.00     0.012 C 
ENDBRANCH   6  30
BRANCH   1  33
HETATM   33  C3  UNL     1      11.323  33.583  16.842  1.00  0.00     0.034 C 
BRANCH  33  34
HETATM   34  C2  UNL     1      11.850  32.137  16.792  1.00  0.00    -0.002 C 
HETATM   35  C1  UNL     1      11.219  31.314  17.899  1.00  0.00     0.005 C 
ENDBRANCH  33  34
ENDBRANCH   1  33
BRANCH  21  36
HETATM   36  C22 UNL     1      11.001  33.525  20.742  1.00  0.00     0.103 C 
BRANCH  36  37
HETATM   37  C23 UNL     1      10.097  32.705  21.525  1.00  0.00     0.125 C 
HETATM   38  C24 UNL     1       9.148  31.718  20.969  1.00  0.00     0.091 C 
HETATM   39  O4  UNL     1      10.134  32.858  22.758  1.00  0.00    -0.298 OA
ENDBRANCH  36  37
ENDBRANCH  21  36
TORSDOF 7
ENDMDL
MODEL 4
REMARK VINA RESULT: -7.054474294      2.367      6.149
REMARK  7 active torsions:
REMARK  status: ('A' for Active; 'I' for Inactive)
REMARK    1  A    between atoms: C2_2  and  C3_3 
REMARK    2  A    between atoms: C3_3  and  C4_4 
REMARK    3  A    between atoms: C6_9  and  C7_10 
REMARK    4  A    between atoms: C11_17  and  C12_18 
REMARK    5  A    between atoms: C12_18  and  C13_19 
REMARK    6  A    between atoms: C21_31  and  C22_32 
REMARK    7  A    between atoms: C22_32  and  C23_33 
ROOT
HETATM    1  C4  UNL     1       6.905  38.274  20.018  1.00  0.00     0.176 C 
HETATM    2  N1  UNL     1       7.196  38.395  18.603  1.00  0.00    -0.346 N 
ATOM      3  H1  UNL     1       7.245  39.357  18.267  1.00  0.00     0.163 HD
HETATM    4  C5  UNL     1       7.418  37.444  17.625  1.00  0.00     0.241 C 
HETATM    5  O1  UNL     1       6.603  37.460  16.623  1.00  0.00    -0.271 OA
HETATM    6  C6  UNL     1       8.453  36.391  17.525  1.00  0.00     0.180 C 
HETATM    7  N2  UNL     1       9.620  36.608  18.329  1.00  0.00    -0.346 N 
ATOM      8  H2  UNL     1      10.034  37.541  18.331  1.00  0.00     0.163 HD
HETATM    9  C10 UNL     1      10.246  35.585  19.138  1.00  0.00     0.241 C 
HETATM   10  O2  UNL     1      10.902  36.097  20.114  1.00  0.00    -0.271 OA
HETATM   11  C11 UNL     1      10.140  34.156  18.875  1.00  0.00     0.177 C 
HETATM   12  N3  UNL     1       9.141  33.524  19.737  1.00  0.00    -0.347 N 
ATOM     13  H3  UNL     1       8.193  33.491  19.364  1.00  0.00     0.163 HD
HETATM   14  C16 UNL     1       9.313  32.963  20.996  1.00  0.00     0.224 C 
HETATM   15  O3  UNL     1       8.793  31.793  21.146  1.00  0.00    -0.273 OA
HETATM   16  C17 UNL     1       9.998  33.512  22.173  1.00  0.00     0.101 C 
HETATM   17  C18 UNL     1       9.999  32.616  23.368  1.00  0.00     0.089 C 
HETATM   18  S1  UNL     1       9.983  34.030  24.492  1.00  0.00    -0.162 SA
HETATM   19  C19 UNL     1       9.258  34.536  22.931  1.00  0.00     0.063 C 
HETATM   20  C20 UNL     1       7.761  34.511  22.835  1.00  0.00     0.041 C 
HETATM   21  C21 UNL     1       7.204  35.890  22.494  1.00  0.00     0.092 C 
HETATM   22  N4  UNL     1       6.707  35.930  21.137  1.00  0.00    -0.354 N 
ATOM     23  H4  UNL     1       6.666  35.023  20.670  1.00  0.00     0.162 HD
HETATM   24  C25 UNL     1       6.279  36.990  20.372  1.00  0.00     0.240 C 
HETATM   25  O5  UNL     1       5.098  36.856  19.849  1.00  0.00    -0.271 OA
ENDROOT
BRANCH  11  26
HETATM   26  C12 UNL     1      11.355  33.338  18.775  1.00  0.00     0.038 C 
BRANCH  26  27
HETATM   27  C13 UNL     1      11.509  32.359  17.682  1.00  0.00    -0.020 C 
HETATM   28  C14 UNL     1      11.627  30.924  18.268  1.00  0.00     0.009 C 
HETATM   29  C15 UNL     1      12.851  32.551  16.995  1.00  0.00     0.009 C 
ENDBRANCH  26  27
ENDBRANCH  11  26
BRANCH   6  30
HETATM   30  C7  UNL     1       8.994  36.319  16.093  1.00  0.00     0.009 C 
HETATM   31  C8  UNL     1      10.402  36.780  15.954  1.00  0.00     0.012 C 
HETATM   32  C9  UNL     1       8.967  34.838  15.673  1.00  0.00     0.012 C 
ENDBRANCH   6  30
BRANCH   1  33
HETATM   33  C3  UNL     1       8.028  38.723  20.900  1.00  0.00     0.034 C 
BRANCH  33  34
HETATM   34  C2  UNL     1       7.764  40.208  21.212  1.00  0.00    -0.002 C 
HETATM   35  C1  UNL     1       6.304  40.412  21.572  1.00  0.00     0.005 C 
ENDBRANCH  33  34
ENDBRANCH   1  33
BRANCH  21  36
HETATM   36  C22 UNL     1       6.235  36.405  23.493  1.00  0.00     0.103 C 
BRANCH  36  37
HETATM   37  C23 UNL     1       6.522  37.656  24.166  1.00  0.00     0.125 C 
HETATM   38  C24 UNL     1       7.865  38.102  24.592  1.00  0.00     0.091 C 
HETATM   39  O4  UNL     1       5.553  38.399  24.396  1.00  0.00    -0.298 OA
ENDBRANCH  36  37
ENDBRANCH  21  36
TORSDOF 7
ENDMDL
MODEL 5
REMARK VINA RESULT: -7.049587793      2.318      4.988
REMARK  7 active torsions:
REMARK  status: ('A' for Active; 'I' for Inactive)
REMARK    1  A    between atoms: C2_2  and  C3_3 
REMARK    2  A    between atoms: C3_3  and  C4_4 
REMARK    3  A    between atoms: C6_9  and  C7_10 
REMARK    4  A    between atoms: C11_17  and  C12_18 
REMARK    5  A    between atoms: C12_18  and  C13_19 
REMARK    6  A    between atoms: C21_31  and  C22_32 
REMARK    7  A    between atoms: C22_32  and  C23_33 
ROOT
HETATM    1  C4  UNL     1      10.214  34.837  17.941  1.00  0.00     0.176 C 
HETATM    2  N1  UNL     1       9.947  36.103  17.287  1.00  0.00    -0.346 N 
ATOM      3  H1  UNL     1      10.015  36.070  16.270  1.00  0.00     0.163 HD
HETATM    4  C5  UNL     1       9.617  37.347  17.790  1.00  0.00     0.241 C 
HETATM    5  O1  UNL     1      10.434  38.307  17.508  1.00  0.00    -0.271 OA
HETATM    6  C6  UNL     1       8.464  37.777  18.612  1.00  0.00     0.180 C 
HETATM    7  N2  UNL     1       7.328  36.905  18.567  1.00  0.00    -0.346 N 
ATOM      8  H2  UNL     1       7.028  36.553  17.657  1.00  0.00     0.163 HD
HETATM    9  C10 UNL     1       6.579  36.493  19.735  1.00  0.00     0.241 C 
HETATM   10  O2  UNL     1       5.984  35.373  19.538  1.00  0.00    -0.271 OA
HETATM   11  C11 UNL     1       6.515  37.253  20.975  1.00  0.00     0.177 C 
HETATM   12  N3  UNL     1       7.426  36.713  21.985  1.00  0.00    -0.347 N 
ATOM     13  H3  UNL     1       8.366  37.109  21.989  1.00  0.00     0.163 HD
HETATM   14  C16 UNL     1       7.182  35.733  22.938  1.00  0.00     0.224 C 
HETATM   15  O3  UNL     1       7.557  36.031  24.134  1.00  0.00    -0.273 OA
HETATM   16  C17 UNL     1       6.561  34.412  22.775  1.00  0.00     0.101 C 
HETATM   17  C18 UNL     1       6.447  33.618  24.035  1.00  0.00     0.089 C 
HETATM   18  S1  UNL     1       6.627  32.064  23.132  1.00  0.00    -0.162 SA
HETATM   19  C19 UNL     1       7.415  33.367  22.184  1.00  0.00     0.063 C 
HETATM   20  C20 UNL     1       8.899  33.522  22.342  1.00  0.00     0.041 C 
HETATM   21  C21 UNL     1       9.618  33.369  21.006  1.00  0.00     0.092 C 
HETATM   22  N4  UNL     1      10.124  34.640  20.537  1.00  0.00    -0.354 N 
ATOM     23  H4  UNL     1      10.058  35.401  21.213  1.00  0.00     0.162 HD
HETATM   24  C25 UNL     1      10.679  34.990  19.328  1.00  0.00     0.240 C 
HETATM   25  O5  UNL     1      11.839  35.572  19.398  1.00  0.00    -0.271 OA
ENDROOT
BRANCH  11  26
HETATM   26  C12 UNL     1       5.211  37.593  21.559  1.00  0.00     0.038 C 
BRANCH  26  27
HETATM   27  C13 UNL     1       5.111  38.605  22.628  1.00  0.00    -0.020 C 
HETATM   28  C14 UNL     1       4.239  38.061  23.793  1.00  0.00     0.009 C 
HETATM   29  C15 UNL     1       4.311  39.801  22.141  1.00  0.00     0.009 C 
ENDBRANCH  26  27
ENDBRANCH  11  26
BRANCH   6  30
HETATM   30  C7  UNL     1       7.926  39.119  18.102  1.00  0.00     0.009 C 
HETATM   31  C8  UNL     1       6.786  38.992  17.154  1.00  0.00     0.012 C 
HETATM   32  C9  UNL     1       7.404  39.892  19.326  1.00  0.00     0.012 C 
ENDBRANCH   6  30
BRANCH   1  33
HETATM   33  C3  UNL     1       9.149  33.810  17.715  1.00  0.00     0.034 C 
BRANCH  33  34
HETATM   34  C2  UNL     1       8.425  34.218  16.418  1.00  0.00    -0.002 C 
HETATM   35  C1  UNL     1       6.948  33.885  16.520  1.00  0.00     0.005 C 
ENDBRANCH  33  34
ENDBRANCH   1  33
BRANCH  21  36
HETATM   36  C22 UNL     1      10.637  32.290  20.999  1.00  0.00     0.103 C 
BRANCH  36  37
HETATM   37  C23 UNL     1      10.490  31.195  20.060  1.00  0.00     0.125 C 
HETATM   38  C24 UNL     1      11.442  30.871  18.977  1.00  0.00     0.091 C 
HETATM   39  O4  UNL     1       9.479  30.485  20.188  1.00  0.00    -0.298 OA
ENDBRANCH  36  37
ENDBRANCH  21  36
TORSDOF 7
ENDMDL
