MODEL 1
REMARK VINA RESULT: -7.946915271      0.000      0.000
REMARK  9 active torsions:
REMARK  status: ('A' for Active; 'I' for Inactive)
REMARK    1  A    between atoms: C2_2  and  C4_4 
REMARK    2  A    between atoms: C12_16  and  C13_17 
REMARK    3  A    between atoms: C13_17  and  C14_18 
REMARK    4  A    between atoms: C14_18  and  C15_19 
REMARK    5  A    between atoms: C15_19  and  C16_20 
REMARK    6  A    between atoms: C16_20  and  C17_21 
REMARK    7  A    between atoms: C17_21  and  C18_22 
REMARK    8  A    between atoms: C18_22  and  S1_24 
REMARK    9  A    between atoms: C23_36  and  O6_37 
ROOT
HETATM    1  C4  UNL     1       7.245  36.841  20.777  1.00  0.00     0.017 C 
HETATM    2  C5  UNL     1       7.963  36.258  21.737  1.00  0.00     0.044 C 
HETATM    3  N1  UNL     1       8.579  37.171  22.694  1.00  0.00    -0.105 NA
HETATM    4  C6  UNL     1       8.199  34.841  21.998  1.00  0.00     0.009 C 
HETATM    5  C7  UNL     1       7.064  33.928  21.761  1.00  0.00     0.023 C 
HETATM    6  C8  UNL     1       8.463  34.750  23.533  1.00  0.00     0.023 C 
HETATM    7  C9  UNL     1       9.463  34.325  21.335  1.00  0.00     0.137 C 
HETATM    8  N2  UNL     1       9.628  32.900  21.401  1.00  0.00    -0.360 N 
ATOM      9  H2  UNL     1      10.121  32.570  22.230  1.00  0.00     0.162 HD
HETATM   10  C10 UNL     1       9.230  31.895  20.529  1.00  0.00     0.219 C 
HETATM   11  O1  UNL     1       8.874  30.787  21.098  1.00  0.00    -0.274 OA
HETATM   12  C11 UNL     1       9.153  31.906  19.053  1.00  0.00     0.128 C 
HETATM   13  C12 UNL     1      10.202  32.683  18.349  1.00  0.00     0.093 C 
HETATM   14  N3  UNL     1       9.737  33.540  17.282  1.00  0.00    -0.354 N 
ATOM     15  H3  UNL     1      10.374  33.571  16.486  1.00  0.00     0.162 HD
HETATM   16  C20 UNL     1       8.618  34.320  17.112  1.00  0.00     0.240 C 
HETATM   17  O5  UNL     1       7.805  33.990  16.161  1.00  0.00    -0.271 OA
HETATM   18  C21 UNL     1       8.087  35.518  17.792  1.00  0.00     0.171 C 
HETATM   19  C22 UNL     1       7.547  36.473  16.712  1.00  0.00     0.042 C 
HETATM   20  N4  UNL     1       7.030  35.300  18.708  1.00  0.00    -0.358 N 
ATOM     21  H4  UNL     1       6.569  34.393  18.637  1.00  0.00     0.162 HD
HETATM   22  C23 UNL     1       6.523  36.167  19.710  1.00  0.00     0.144 C 
ENDROOT
BRANCH  13  23
HETATM   23  C13 UNL     1      11.332  31.741  17.838  1.00  0.00     0.026 C 
BRANCH  23  24
HETATM   24  C14 UNL     1      11.935  32.324  16.621  1.00  0.00     0.002 C 
BRANCH  24  25
HETATM   25  C15 UNL     1      13.290  32.926  16.953  1.00  0.00     0.001 C 
BRANCH  25  26
HETATM   26  C16 UNL     1      13.338  34.330  16.437  1.00  0.00     0.008 C 
BRANCH  26  27
HETATM   27  C17 UNL     1      13.365  35.392  17.500  1.00  0.00     0.096 C 
BRANCH  27  28
HETATM   28  C18 UNL     1      12.089  36.076  17.670  1.00  0.00     0.242 C 
HETATM   29  O2  UNL     1      11.469  36.018  18.699  1.00  0.00    -0.281 OA
BRANCH  28  30
HETATM   30  S1  UNL     1      11.471  37.004  16.294  1.00  0.00     0.205 S 
HETATM   31  C19 UNL     1      12.877  37.769  15.510  1.00  0.00     0.170 C 
HETATM   32  O3  UNL     1      10.749  36.109  15.331  1.00  0.00    -0.220 OA
HETATM   33  O4  UNL     1      10.548  38.054  16.812  1.00  0.00    -0.220 OA
ENDBRANCH  28  30
ENDBRANCH  27  28
ENDBRANCH  26  27
ENDBRANCH  25  26
ENDBRANCH  24  25
ENDBRANCH  23  24
ENDBRANCH  13  23
BRANCH  22  34
HETATM   34  O6  UNL     1       5.237  36.423  19.714  1.00  0.00    -0.346 OA
ATOM     35  H6  UNL     1       4.759  35.926  20.368  1.00  0.00     0.219 HD
ENDBRANCH  22  34
BRANCH   1  36
HETATM   36  C2  UNL     1       7.154  38.365  20.802  1.00  0.00     0.016 C 
HETATM   37  C1  UNL     1       5.836  38.764  21.491  1.00  0.00     0.015 C 
HETATM   38  C3  UNL     1       7.162  39.020  19.482  1.00  0.00     0.015 C 
ENDBRANCH   1  36
TORSDOF 9
ENDMDL
MODEL 2
REMARK VINA RESULT: -7.629673210      1.276      1.764
REMARK  9 active torsions:
REMARK  status: ('A' for Active; 'I' for Inactive)
REMARK    1  A    between atoms: C2_2  and  C4_4 
REMARK    2  A    between atoms: C12_16  and  C13_17 
REMARK    3  A    between atoms: C13_17  and  C14_18 
REMARK    4  A    between atoms: C14_18  and  C15_19 
REMARK    5  A    between atoms: C15_19  and  C16_20 
REMARK    6  A    between atoms: C16_20  and  C17_21 
REMARK    7  A    between atoms: C17_21  and  C18_22 
REMARK    8  A    between atoms: C18_22  and  S1_24 
REMARK    9  A    between atoms: C23_36  and  O6_37 
ROOT
HETATM    1  C4  UNL     1       6.111  36.368  21.762  1.00  0.00     0.017 C 
HETATM    2  C5  UNL     1       6.667  35.663  22.746  1.00  0.00     0.044 C 
HETATM    3  N1  UNL     1       6.925  36.405  23.974  1.00  0.00    -0.105 NA
HETATM    4  C6  UNL     1       7.028  34.248  22.794  1.00  0.00     0.009 C 
HETATM    5  C7  UNL     1       6.109  33.310  22.122  1.00  0.00     0.023 C 
HETATM    6  C8  UNL     1       6.951  33.861  24.302  1.00  0.00     0.023 C 
HETATM    7  C9  UNL     1       8.466  33.995  22.379  1.00  0.00     0.137 C 
HETATM    8  N2  UNL     1       8.802  32.608  22.223  1.00  0.00    -0.360 N 
ATOM      9  H2  UNL     1       9.137  32.156  23.073  1.00  0.00     0.162 HD
HETATM   10  C10 UNL     1       8.749  31.777  21.111  1.00  0.00     0.219 C 
HETATM   11  O1  UNL     1       8.427  30.548  21.363  1.00  0.00    -0.274 OA
HETATM   12  C11 UNL     1       9.003  32.090  19.690  1.00  0.00     0.128 C 
HETATM   13  C12 UNL     1      10.070  33.086  19.420  1.00  0.00     0.093 C 
HETATM   14  N3  UNL     1       9.744  34.103  18.446  1.00  0.00    -0.354 N 
ATOM     15  H3  UNL     1      10.532  34.356  17.851  1.00  0.00     0.162 HD
HETATM   16  C20 UNL     1       8.596  34.800  18.150  1.00  0.00     0.240 C 
HETATM   17  O5  UNL     1       8.069  34.607  16.985  1.00  0.00    -0.271 OA
HETATM   18  C21 UNL     1       7.771  35.778  18.886  1.00  0.00     0.171 C 
HETATM   19  C22 UNL     1       7.362  36.887  17.898  1.00  0.00     0.042 C 
HETATM   20  N4  UNL     1       6.575  35.281  19.457  1.00  0.00    -0.358 N 
ATOM     21  H4  UNL     1       6.268  34.372  19.111  1.00  0.00     0.162 HD
HETATM   22  C23 UNL     1       5.744  35.872  20.445  1.00  0.00     0.144 C 
ENDROOT
BRANCH  13  23
HETATM   23  C13 UNL     1      11.401  32.374  19.039  1.00  0.00     0.026 C 
BRANCH  23  24
HETATM   24  C14 UNL     1      11.126  31.346  18.015  1.00  0.00     0.002 C 
BRANCH  24  25
HETATM   25  C15 UNL     1      12.057  31.536  16.828  1.00  0.00     0.001 C 
BRANCH  25  26
HETATM   26  C16 UNL     1      13.075  32.578  17.170  1.00  0.00     0.008 C 
BRANCH  26  27
HETATM   27  C17 UNL     1      13.246  33.655  16.136  1.00  0.00     0.096 C 
BRANCH  27  28
HETATM   28  C18 UNL     1      12.255  34.720  16.236  1.00  0.00     0.242 C 
HETATM   29  O2  UNL     1      11.167  34.626  15.732  1.00  0.00    -0.281 OA
BRANCH  28  30
HETATM   30  S1  UNL     1      12.712  36.177  17.135  1.00  0.00     0.205 S 
HETATM   31  C19 UNL     1      13.136  37.418  15.930  1.00  0.00     0.170 C 
HETATM   32  O3  UNL     1      11.579  36.643  18.001  1.00  0.00    -0.220 OA
HETATM   33  O4  UNL     1      13.902  35.859  17.974  1.00  0.00    -0.220 OA
ENDBRANCH  28  30
ENDBRANCH  27  28
ENDBRANCH  26  27
ENDBRANCH  25  26
ENDBRANCH  24  25
ENDBRANCH  23  24
ENDBRANCH  13  23
BRANCH  22  34
HETATM   34  O6  UNL     1       4.467  36.008  20.179  1.00  0.00    -0.346 OA
ATOM     35  H6  UNL     1       4.113  35.291  19.666  1.00  0.00     0.219 HD
ENDBRANCH  22  34
BRANCH   1  36
HETATM   36  C2  UNL     1       5.811  37.839  22.041  1.00  0.00     0.016 C 
HETATM   37  C1  UNL     1       4.303  37.988  22.309  1.00  0.00     0.015 C 
HETATM   38  C3  UNL     1       6.147  38.770  20.949  1.00  0.00     0.015 C 
ENDBRANCH   1  36
TORSDOF 9
ENDMDL
MODEL 3
REMARK VINA RESULT: -7.523578334      3.271      5.292
REMARK  9 active torsions:
REMARK  status: ('A' for Active; 'I' for Inactive)
REMARK    1  A    between atoms: C2_2  and  C4_4 
REMARK    2  A    between atoms: C12_16  and  C13_17 
REMARK    3  A    between atoms: C13_17  and  C14_18 
REMARK    4  A    between atoms: C14_18  and  C15_19 
REMARK    5  A    between atoms: C15_19  and  C16_20 
REMARK    6  A    between atoms: C16_20  and  C17_21 
REMARK    7  A    between atoms: C17_21  and  C18_22 
REMARK    8  A    between atoms: C18_22  and  S1_24 
REMARK    9  A    between atoms: C23_36  and  O6_37 
ROOT
HETATM    1  C4  UNL     1       7.377  34.500  20.477  1.00  0.00     0.017 C 
HETATM    2  C5  UNL     1       8.277  33.590  20.103  1.00  0.00     0.044 C 
HETATM    3  N1  UNL     1       8.804  32.757  21.178  1.00  0.00    -0.105 NA
HETATM    4  C6  UNL     1       8.791  33.277  18.773  1.00  0.00     0.009 C 
HETATM    5  C7  UNL     1       7.826  33.341  17.659  1.00  0.00     0.023 C 
HETATM    6  C8  UNL     1       9.211  31.776  18.843  1.00  0.00     0.023 C 
HETATM    7  C9  UNL     1      10.060  34.041  18.439  1.00  0.00     0.137 C 
HETATM    8  N2  UNL     1      10.488  33.912  17.075  1.00  0.00    -0.360 N 
ATOM      9  H2  UNL     1      11.109  33.123  16.899  1.00  0.00     0.162 HD
HETATM   10  C10 UNL     1      10.200  34.680  15.953  1.00  0.00     0.219 C 
HETATM   11  O1  UNL     1      10.108  34.015  14.846  1.00  0.00    -0.274 OA
HETATM   12  C11 UNL     1       9.983  36.137  15.841  1.00  0.00     0.128 C 
HETATM   13  C12 UNL     1      10.802  36.991  16.736  1.00  0.00     0.093 C 
HETATM   14  N3  UNL     1      10.089  38.049  17.415  1.00  0.00    -0.354 N 
ATOM     15  H3  UNL     1      10.632  38.909  17.500  1.00  0.00     0.162 HD
HETATM   16  C20 UNL     1       8.836  38.143  17.972  1.00  0.00     0.240 C 
HETATM   17  O5  UNL     1       8.011  38.982  17.434  1.00  0.00    -0.271 OA
HETATM   18  C21 UNL     1       8.162  37.479  19.105  1.00  0.00     0.171 C 
HETATM   19  C22 UNL     1       7.356  38.548  19.866  1.00  0.00     0.042 C 
HETATM   20  N4  UNL     1       7.254  36.445  18.772  1.00  0.00    -0.358 N 
ATOM     21  H4  UNL     1       6.961  36.415  17.796  1.00  0.00     0.162 HD
HETATM   22  C23 UNL     1       6.693  35.445  19.609  1.00  0.00     0.144 C 
ENDROOT
BRANCH  13  23
HETATM   23  C13 UNL     1      12.032  37.566  15.973  1.00  0.00     0.026 C 
BRANCH  23  24
HETATM   24  C14 UNL     1      11.565  38.547  14.971  1.00  0.00     0.002 C 
BRANCH  24  25
HETATM   25  C15 UNL     1      12.722  39.432  14.536  1.00  0.00     0.001 C 
BRANCH  25  26
HETATM   26  C16 UNL     1      12.175  40.707  13.976  1.00  0.00     0.008 C 
BRANCH  26  27
HETATM   27  C17 UNL     1      10.682  40.844  14.062  1.00  0.00     0.096 C 
BRANCH  27  28
HETATM   28  C18 UNL     1      10.162  42.000  13.342  1.00  0.00     0.242 C 
HETATM   29  O2  UNL     1       9.930  43.043  13.896  1.00  0.00    -0.281 OA
BRANCH  28  30
HETATM   30  S1  UNL     1       9.876  41.818  11.604  1.00  0.00     0.205 S 
HETATM   31  C19 UNL     1      10.889  43.030  10.780  1.00  0.00     0.170 C 
HETATM   32  O3  UNL     1      10.231  40.433  11.150  1.00  0.00    -0.220 OA
HETATM   33  O4  UNL     1       8.437  42.094  11.332  1.00  0.00    -0.220 OA
ENDBRANCH  28  30
ENDBRANCH  27  28
ENDBRANCH  26  27
ENDBRANCH  25  26
ENDBRANCH  24  25
ENDBRANCH  23  24
ENDBRANCH  13  23
BRANCH  22  34
HETATM   34  O6  UNL     1       5.388  35.319  19.634  1.00  0.00    -0.346 OA
ATOM     35  H6  UNL     1       4.932  36.077  19.288  1.00  0.00     0.219 HD
ENDBRANCH  22  34
BRANCH   1  36
HETATM   36  C2  UNL     1       7.012  34.551  21.959  1.00  0.00     0.016 C 
HETATM   37  C1  UNL     1       5.713  33.753  22.168  1.00  0.00     0.015 C 
HETATM   38  C3  UNL     1       6.780  35.899  22.506  1.00  0.00     0.015 C 
ENDBRANCH   1  36
TORSDOF 9
ENDMDL
MODEL 4
REMARK VINA RESULT: -7.469351166      1.554      2.054
REMARK  9 active torsions:
REMARK  status: ('A' for Active; 'I' for Inactive)
REMARK    1  A    between atoms: C2_2  and  C4_4 
REMARK    2  A    between atoms: C12_16  and  C13_17 
REMARK    3  A    between atoms: C13_17  and  C14_18 
REMARK    4  A    between atoms: C14_18  and  C15_19 
REMARK    5  A    between atoms: C15_19  and  C16_20 
REMARK    6  A    between atoms: C16_20  and  C17_21 
REMARK    7  A    between atoms: C17_21  and  C18_22 
REMARK    8  A    between atoms: C18_22  and  S1_24 
REMARK    9  A    between atoms: C23_36  and  O6_37 
ROOT
HETATM    1  C4  UNL     1       8.033  35.390  22.750  1.00  0.00     0.017 C 
HETATM    2  C5  UNL     1       9.065  34.633  23.119  1.00  0.00     0.044 C 
HETATM    3  N1  UNL     1       9.921  35.207  24.150  1.00  0.00    -0.105 NA
HETATM    4  C6  UNL     1       9.452  33.298  22.672  1.00  0.00     0.009 C 
HETATM    5  C7  UNL     1       8.355  32.347  22.406  1.00  0.00     0.023 C 
HETATM    6  C8  UNL     1      10.228  32.676  23.873  1.00  0.00     0.023 C 
HETATM    7  C9  UNL     1      10.439  33.327  21.519  1.00  0.00     0.137 C 
HETATM    8  N2  UNL     1      10.693  32.047  20.922  1.00  0.00    -0.360 N 
ATOM      9  H2  UNL     1      11.457  31.524  21.351  1.00  0.00     0.162 HD
HETATM   10  C10 UNL     1      10.076  31.398  19.860  1.00  0.00     0.219 C 
HETATM   11  O1  UNL     1       9.996  30.111  19.980  1.00  0.00    -0.274 OA
HETATM   12  C11 UNL     1       9.500  31.960  18.621  1.00  0.00     0.128 C 
HETATM   13  C12 UNL     1      10.203  33.133  18.046  1.00  0.00     0.093 C 
HETATM   14  N3  UNL     1       9.356  34.227  17.629  1.00  0.00    -0.354 N 
ATOM     15  H3  UNL     1       9.680  34.683  16.776  1.00  0.00     0.162 HD
HETATM   16  C20 UNL     1       8.206  34.783  18.137  1.00  0.00     0.240 C 
HETATM   17  O5  UNL     1       7.137  34.695  17.414  1.00  0.00    -0.271 OA
HETATM   18  C21 UNL     1       7.876  35.503  19.383  1.00  0.00     0.171 C 
HETATM   19  C22 UNL     1       6.948  36.677  19.018  1.00  0.00     0.042 C 
HETATM   20  N4  UNL     1       7.208  34.752  20.380  1.00  0.00    -0.358 N 
ATOM     21  H4  UNL     1       6.800  33.871  20.066  1.00  0.00     0.162 HD
HETATM   22  C23 UNL     1       7.027  35.053  21.755  1.00  0.00     0.144 C 
ENDROOT
BRANCH  13  23
HETATM   23  C13 UNL     1      11.139  32.695  16.882  1.00  0.00     0.026 C 
BRANCH  23  24
HETATM   24  C14 UNL     1      12.542  32.741  17.343  1.00  0.00     0.002 C 
BRANCH  24  25
HETATM   25  C15 UNL     1      13.302  33.814  16.580  1.00  0.00     0.001 C 
BRANCH  25  26
HETATM   26  C16 UNL     1      13.675  34.912  17.526  1.00  0.00     0.008 C 
BRANCH  26  27
HETATM   27  C17 UNL     1      13.243  36.286  17.097  1.00  0.00     0.096 C 
BRANCH  27  28
HETATM   28  C18 UNL     1      11.841  36.569  17.381  1.00  0.00     0.242 C 
HETATM   29  O2  UNL     1      11.385  36.474  18.490  1.00  0.00    -0.281 OA
BRANCH  28  30
HETATM   30  S1  UNL     1      10.817  37.061  16.022  1.00  0.00     0.205 S 
HETATM   31  C19 UNL     1       9.521  38.083  16.692  1.00  0.00     0.170 C 
HETATM   32  O3  UNL     1      11.615  37.817  15.002  1.00  0.00    -0.220 OA
HETATM   33  O4  UNL     1      10.229  35.836  15.409  1.00  0.00    -0.220 OA
ENDBRANCH  28  30
ENDBRANCH  27  28
ENDBRANCH  26  27
ENDBRANCH  25  26
ENDBRANCH  24  25
ENDBRANCH  23  24
ENDBRANCH  13  23
BRANCH  22  34
HETATM   34  O6  UNL     1       5.808  35.037  22.237  1.00  0.00    -0.346 OA
ATOM     35  H6  UNL     1       5.514  34.168  22.483  1.00  0.00     0.219 HD
ENDBRANCH  22  34
BRANCH   1  36
HETATM   36  C2  UNL     1       7.874  36.740  23.446  1.00  0.00     0.016 C 
HETATM   37  C1  UNL     1       6.813  36.596  24.552  1.00  0.00     0.015 C 
HETATM   38  C3  UNL     1       7.442  37.850  22.580  1.00  0.00     0.015 C 
ENDBRANCH   1  36
TORSDOF 9
ENDMDL
MODEL 5
REMARK VINA RESULT: -7.428625497      1.068      1.274
REMARK  9 active torsions:
REMARK  status: ('A' for Active; 'I' for Inactive)
REMARK    1  A    between atoms: C2_2  and  C4_4 
REMARK    2  A    between atoms: C12_16  and  C13_17 
REMARK    3  A    between atoms: C13_17  and  C14_18 
REMARK    4  A    between atoms: C14_18  and  C15_19 
REMARK    5  A    between atoms: C15_19  and  C16_20 
REMARK    6  A    between atoms: C16_20  and  C17_21 
REMARK    7  A    between atoms: C17_21  and  C18_22 
REMARK    8  A    between atoms: C18_22  and  S1_24 
REMARK    9  A    between atoms: C23_36  and  O6_37 
ROOT
HETATM    1  C4  UNL     1       6.251  36.825  21.585  1.00  0.00     0.017 C 
HETATM    2  C5  UNL     1       6.827  36.194  22.608  1.00  0.00     0.044 C 
HETATM    3  N1  UNL     1       7.143  37.033  23.758  1.00  0.00    -0.105 NA
HETATM    4  C6  UNL     1       7.161  34.781  22.767  1.00  0.00     0.009 C 
HETATM    5  C7  UNL     1       6.201  33.809  22.209  1.00  0.00     0.023 C 
HETATM    6  C8  UNL     1       7.130  34.527  24.305  1.00  0.00     0.023 C 
HETATM    7  C9  UNL     1       8.579  34.460  22.329  1.00  0.00     0.137 C 
HETATM    8  N2  UNL     1       8.882  33.058  22.283  1.00  0.00    -0.360 N 
ATOM      9  H2  UNL     1       9.237  32.673  23.158  1.00  0.00     0.162 HD
HETATM   10  C10 UNL     1       8.774  32.136  21.250  1.00  0.00     0.219 C 
HETATM   11  O1  UNL     1       8.437  30.941  21.618  1.00  0.00    -0.274 OA
HETATM   12  C11 UNL     1       8.985  32.319  19.799  1.00  0.00     0.128 C 
HETATM   13  C12 UNL     1      10.061  33.264  19.409  1.00  0.00     0.093 C 
HETATM   14  N3  UNL     1       9.721  34.200  18.361  1.00  0.00    -0.354 N 
ATOM     15  H3  UNL     1      10.494  34.383  17.721  1.00  0.00     0.162 HD
HETATM   16  C20 UNL     1       8.579  34.896  18.044  1.00  0.00     0.240 C 
HETATM   17  O5  UNL     1       8.008  34.614  16.918  1.00  0.00    -0.271 OA
HETATM   18  C21 UNL     1       7.798  35.952  18.718  1.00  0.00     0.171 C 
HETATM   19  C22 UNL     1       7.378  36.980  17.652  1.00  0.00     0.042 C 
HETATM   20  N4  UNL     1       6.613  35.533  19.370  1.00  0.00    -0.358 N 
ATOM     21  H4  UNL     1       6.277  34.605  19.114  1.00  0.00     0.162 HD
HETATM   22  C23 UNL     1       5.829  36.225  20.329  1.00  0.00     0.144 C 
ENDROOT
BRANCH  13  23
HETATM   23  C13 UNL     1      11.364  32.492  19.048  1.00  0.00     0.026 C 
BRANCH  23  24
HETATM   24  C14 UNL     1      11.106  31.623  17.881  1.00  0.00     0.002 C 
BRANCH  24  25
HETATM   25  C15 UNL     1      12.031  32.004  16.737  1.00  0.00     0.001 C 
BRANCH  25  26
HETATM   26  C16 UNL     1      13.096  32.919  17.256  1.00  0.00     0.008 C 
BRANCH  26  27
HETATM   27  C17 UNL     1      13.320  34.156  16.434  1.00  0.00     0.096 C 
BRANCH  27  28
HETATM   28  C18 UNL     1      13.042  35.392  17.157  1.00  0.00     0.242 C 
HETATM   29  O2  UNL     1      13.629  35.684  18.166  1.00  0.00    -0.281 OA
BRANCH  28  30
HETATM   30  S1  UNL     1      11.794  36.461  16.496  1.00  0.00     0.205 S 
HETATM   31  C19 UNL     1      12.635  37.740  15.585  1.00  0.00     0.170 C 
HETATM   32  O3  UNL     1      10.861  35.699  15.601  1.00  0.00    -0.220 OA
HETATM   33  O4  UNL     1      11.039  37.061  17.632  1.00  0.00    -0.220 OA
ENDBRANCH  28  30
ENDBRANCH  27  28
ENDBRANCH  26  27
ENDBRANCH  25  26
ENDBRANCH  24  25
ENDBRANCH  23  24
ENDBRANCH  13  23
BRANCH  22  34
HETATM   34  O6  UNL     1       4.547  36.368  20.094  1.00  0.00    -0.346 OA
ATOM     35  H6  UNL     1       4.329  36.327  19.170  1.00  0.00     0.219 HD
ENDBRANCH  22  34
BRANCH   1  36
HETATM   36  C2  UNL     1       5.991  38.321  21.745  1.00  0.00     0.016 C 
HETATM   37  C1  UNL     1       4.495  38.527  22.045  1.00  0.00     0.015 C 
HETATM   38  C3  UNL     1       6.310  39.147  20.568  1.00  0.00     0.015 C 
ENDBRANCH   1  36
TORSDOF 9
ENDMDL
