MODEL 1
REMARK VINA RESULT: -6.564082282      0.000      0.000
REMARK  5 active torsions:
REMARK  status: ('A' for Active; 'I' for Inactive)
REMARK    1  A    between atoms: C1_4  and  N2_5 
REMARK    2  A    between atoms: C1_4  and  C9_15 
REMARK    3  A    between atoms: N2_5  and  C2_7 
REMARK    4  A    between atoms: C2_7  and  C3_8 
REMARK    5  A    between atoms: C3_8  and  N3_9 
ROOT
HETATM    1  N1  UNL     1      17.502  12.297  21.958  1.00  0.00    -0.384 N 
ATOM      2  H11 UNL     1      18.475  12.362  21.656  1.00  0.00     0.157 HD
ATOM      3  H12 UNL     1      16.740  12.788  21.490  1.00  0.00     0.157 HD
HETATM    4  C1  UNL     1      17.241  11.547  22.996  1.00  0.00     0.123 C 
ENDROOT
BRANCH   4   5
HETATM    5  N2  UNL     1      15.893  11.458  23.415  1.00  0.00    -0.373 N 
ATOM      6  H2  UNL     1      15.633  11.953  24.267  1.00  0.00     0.161 HD
BRANCH   5   7
HETATM    7  C2  UNL     1      14.854  10.721  22.732  1.00  0.00     0.141 C 
BRANCH   7   8
HETATM    8  C3  UNL     1      14.634   9.381  23.424  1.00  0.00     0.147 C 
BRANCH   8   9
HETATM    9  N3  UNL     1      14.819   8.278  22.531  1.00  0.00    -0.365 N 
HETATM   10  C4  UNL     1      15.335   7.120  22.992  1.00  0.00     0.090 A 
HETATM   11  C5  UNL     1      15.489   6.094  22.079  1.00  0.00     0.017 A 
HETATM   12  C6  UNL     1      15.146   6.202  20.751  1.00  0.00     0.003 A 
HETATM   13  C7  UNL     1      14.625   7.392  20.313  1.00  0.00     0.017 A 
HETATM   14  C8  UNL     1      14.473   8.407  21.216  1.00  0.00     0.090 A 
ENDBRANCH   8   9
ENDBRANCH   7   8
ENDBRANCH   5   7
ENDBRANCH   4   5
BRANCH   4  15
HETATM   15  C9  UNL     1      18.342  10.837  23.673  1.00  0.00     0.092 A 
HETATM   16  C10 UNL     1      18.225   9.905  24.686  1.00  0.00     0.122 A 
HETATM   17  N4  UNL     1      19.447   9.472  25.056  1.00  0.00    -0.360 N 
HETATM   18  C11 UNL     1      20.329  10.124  24.284  1.00  0.00     0.180 A 
ATOM     19  H4  UNL     1      19.659   8.785  25.780  1.00  0.00     0.166 HD
HETATM   20  N5  UNL     1      19.660  10.944  23.453  1.00  0.00    -0.348 N 
ATOM     21  H5  UNL     1      20.092  11.556  22.760  1.00  0.00     0.167 HD
ENDBRANCH   4  15
TORSDOF 5
ENDMDL
MODEL 2
REMARK VINA RESULT: -6.497842918      0.133      1.185
REMARK  5 active torsions:
REMARK  status: ('A' for Active; 'I' for Inactive)
REMARK    1  A    between atoms: C1_4  and  N2_5 
REMARK    2  A    between atoms: C1_4  and  C9_15 
REMARK    3  A    between atoms: N2_5  and  C2_7 
REMARK    4  A    between atoms: C2_7  and  C3_8 
REMARK    5  A    between atoms: C3_8  and  N3_9 
ROOT
HETATM    1  N1  UNL     1      17.508  12.304  21.957  1.00  0.00    -0.384 N 
ATOM      2  H11 UNL     1      18.480  12.369  21.653  1.00  0.00     0.157 HD
ATOM      3  H12 UNL     1      16.745  12.796  21.492  1.00  0.00     0.157 HD
HETATM    4  C1  UNL     1      17.250  11.552  22.995  1.00  0.00     0.123 C 
ENDROOT
BRANCH   4   5
HETATM    5  N2  UNL     1      15.903  11.462  23.417  1.00  0.00    -0.373 N 
ATOM      6  H2  UNL     1      15.640  11.976  24.258  1.00  0.00     0.161 HD
BRANCH   5   7
HETATM    7  C2  UNL     1      14.870  10.702  22.753  1.00  0.00     0.141 C 
BRANCH   7   8
HETATM    8  C3  UNL     1      14.668   9.371  23.471  1.00  0.00     0.147 C 
BRANCH   8   9
HETATM    9  N3  UNL     1      14.861   8.255  22.598  1.00  0.00    -0.365 N 
HETATM   10  C4  UNL     1      14.471   8.335  21.309  1.00  0.00     0.090 A 
HETATM   11  C5  UNL     1      14.686   7.221  20.518  1.00  0.00     0.017 A 
HETATM   12  C6  UNL     1      15.266   6.063  20.980  1.00  0.00     0.003 A 
HETATM   13  C7  UNL     1      15.651   6.012  22.294  1.00  0.00     0.017 A 
HETATM   14  C8  UNL     1      15.439   7.114  23.077  1.00  0.00     0.090 A 
ENDBRANCH   8   9
ENDBRANCH   7   8
ENDBRANCH   5   7
ENDBRANCH   4   5
BRANCH   4  15
HETATM   15  C9  UNL     1      18.353  10.842  23.668  1.00  0.00     0.092 A 
HETATM   16  C10 UNL     1      18.239   9.911  24.682  1.00  0.00     0.122 A 
HETATM   17  N4  UNL     1      19.462   9.477  25.048  1.00  0.00    -0.360 N 
HETATM   18  C11 UNL     1      20.342  10.127  24.271  1.00  0.00     0.180 A 
ATOM     19  H4  UNL     1      19.676   8.790  25.772  1.00  0.00     0.166 HD
HETATM   20  N5  UNL     1      19.670  10.947  23.443  1.00  0.00    -0.348 N 
ATOM     21  H5  UNL     1      20.100  11.557  22.747  1.00  0.00     0.167 HD
ENDBRANCH   4  15
TORSDOF 5
ENDMDL
MODEL 3
REMARK VINA RESULT: -6.403286985      0.788      1.550
REMARK  5 active torsions:
REMARK  status: ('A' for Active; 'I' for Inactive)
REMARK    1  A    between atoms: C1_4  and  N2_5 
REMARK    2  A    between atoms: C1_4  and  C9_15 
REMARK    3  A    between atoms: N2_5  and  C2_7 
REMARK    4  A    between atoms: C2_7  and  C3_8 
REMARK    5  A    between atoms: C3_8  and  N3_9 
ROOT
HETATM    1  N1  UNL     1      17.499  12.330  21.997  1.00  0.00    -0.384 N 
ATOM      2  H11 UNL     1      18.485  12.474  21.778  1.00  0.00     0.157 HD
ATOM      3  H12 UNL     1      16.743  12.797  21.496  1.00  0.00     0.157 HD
HETATM    4  C1  UNL     1      17.212  11.507  22.971  1.00  0.00     0.123 C 
ENDROOT
BRANCH   4   5
HETATM    5  N2  UNL     1      15.845  11.307  23.276  1.00  0.00    -0.373 N 
ATOM      6  H2  UNL     1      15.470  11.796  24.089  1.00  0.00     0.161 HD
BRANCH   5   7
HETATM    7  C2  UNL     1      14.938  10.466  22.530  1.00  0.00     0.141 C 
BRANCH   7   8
HETATM    8  C3  UNL     1      14.179   9.552  23.486  1.00  0.00     0.147 C 
BRANCH   8   9
HETATM    9  N3  UNL     1      14.558   8.181  23.335  1.00  0.00    -0.365 N 
HETATM   10  C4  UNL     1      14.870   7.701  22.113  1.00  0.00     0.090 A 
HETATM   11  C5  UNL     1      15.228   6.368  22.035  1.00  0.00     0.017 A 
HETATM   12  C6  UNL     1      15.278   5.531  23.125  1.00  0.00     0.003 A 
HETATM   13  C7  UNL     1      14.956   6.048  24.353  1.00  0.00     0.017 A 
HETATM   14  C8  UNL     1      14.601   7.367  24.430  1.00  0.00     0.090 A 
ENDBRANCH   8   9
ENDBRANCH   7   8
ENDBRANCH   5   7
ENDBRANCH   4   5
BRANCH   4  15
HETATM   15  C9  UNL     1      18.305  10.833  23.696  1.00  0.00     0.092 A 
HETATM   16  C10 UNL     1      18.175   9.858  24.666  1.00  0.00     0.122 A 
HETATM   17  N4  UNL     1      19.392   9.478  25.104  1.00  0.00    -0.360 N 
HETATM   18  C11 UNL     1      20.285  10.205  24.415  1.00  0.00     0.180 A 
ATOM     19  H4  UNL     1      19.595   8.777  25.817  1.00  0.00     0.166 HD
HETATM   20  N5  UNL     1      19.627  11.019  23.570  1.00  0.00    -0.348 N 
ATOM     21  H5  UNL     1      20.067  11.679  22.928  1.00  0.00     0.167 HD
ENDBRANCH   4  15
TORSDOF 5
ENDMDL
MODEL 4
REMARK VINA RESULT: -6.328173414      2.203      2.922
REMARK  5 active torsions:
REMARK  status: ('A' for Active; 'I' for Inactive)
REMARK    1  A    between atoms: C1_4  and  N2_5 
REMARK    2  A    between atoms: C1_4  and  C9_15 
REMARK    3  A    between atoms: N2_5  and  C2_7 
REMARK    4  A    between atoms: C2_7  and  C3_8 
REMARK    5  A    between atoms: C3_8  and  N3_9 
ROOT
HETATM    1  N1  UNL     1      17.581  12.092  21.807  1.00  0.00    -0.384 N 
ATOM      2  H11 UNL     1      18.540  12.302  21.528  1.00  0.00     0.157 HD
ATOM      3  H12 UNL     1      16.802  12.070  21.150  1.00  0.00     0.157 HD
HETATM    4  C1  UNL     1      17.362  11.843  23.072  1.00  0.00     0.123 C 
ENDROOT
BRANCH   4   5
HETATM    5  N2  UNL     1      16.033  11.552  23.459  1.00  0.00    -0.373 N 
ATOM      6  H2  UNL     1      15.551  12.242  24.036  1.00  0.00     0.161 HD
BRANCH   5   7
HETATM    7  C2  UNL     1      15.303  10.357  23.105  1.00  0.00     0.141 C 
BRANCH   7   8
HETATM    8  C3  UNL     1      16.041   9.129  23.627  1.00  0.00     0.147 C 
BRANCH   8   9
HETATM    9  N3  UNL     1      15.210   8.318  24.462  1.00  0.00    -0.365 N 
HETATM   10  C4  UNL     1      13.871   8.338  24.300  1.00  0.00     0.090 A 
HETATM   11  C5  UNL     1      13.125   7.531  25.139  1.00  0.00     0.017 A 
HETATM   12  C6  UNL     1      13.678   6.727  26.108  1.00  0.00     0.003 A 
HETATM   13  C7  UNL     1      15.041   6.729  26.248  1.00  0.00     0.017 A 
HETATM   14  C8  UNL     1      15.779   7.527  25.419  1.00  0.00     0.090 A 
ENDBRANCH   8   9
ENDBRANCH   7   8
ENDBRANCH   5   7
ENDBRANCH   4   5
BRANCH   4  15
HETATM   15  C9  UNL     1      18.488  11.875  24.023  1.00  0.00     0.092 A 
HETATM   16  C10 UNL     1      18.537  12.556  25.224  1.00  0.00     0.122 A 
HETATM   17  N4  UNL     1      19.728  12.351  25.821  1.00  0.00    -0.360 N 
HETATM   18  C11 UNL     1      20.427  11.547  25.006  1.00  0.00     0.180 A 
ATOM     19  H4  UNL     1      20.037  12.732  26.716  1.00  0.00     0.166 HD
HETATM   20  N5  UNL     1      19.677  11.262  23.925  1.00  0.00    -0.348 N 
ATOM     21  H5  UNL     1      19.970  10.669  23.148  1.00  0.00     0.167 HD
ENDBRANCH   4  15
TORSDOF 5
ENDMDL
MODEL 5
REMARK VINA RESULT: -6.300020749      1.183      2.773
REMARK  5 active torsions:
REMARK  status: ('A' for Active; 'I' for Inactive)
REMARK    1  A    between atoms: C1_4  and  N2_5 
REMARK    2  A    between atoms: C1_4  and  C9_15 
REMARK    3  A    between atoms: N2_5  and  C2_7 
REMARK    4  A    between atoms: C2_7  and  C3_8 
REMARK    5  A    between atoms: C3_8  and  N3_9 
ROOT
HETATM    1  N1  UNL     1      18.958   9.376  25.825  1.00  0.00    -0.384 N 
ATOM      2  H11 UNL     1      19.528  10.196  26.033  1.00  0.00     0.157 HD
ATOM      3  H12 UNL     1      18.958   8.536  26.405  1.00  0.00     0.157 HD
HETATM    4  C1  UNL     1      18.198   9.423  24.763  1.00  0.00     0.123 C 
ENDROOT
BRANCH   4   5
HETATM    5  N2  UNL     1      17.407   8.286  24.474  1.00  0.00    -0.373 N 
ATOM      6  H2  UNL     1      17.838   7.542  23.926  1.00  0.00     0.161 HD
BRANCH   5   7
HETATM    7  C2  UNL     1      16.038   8.094  24.894  1.00  0.00     0.141 C 
BRANCH   7   8
HETATM    8  C3  UNL     1      15.459   6.860  24.212  1.00  0.00     0.147 C 
BRANCH   8   9
HETATM    9  N3  UNL     1      15.152   7.101  22.836  1.00  0.00    -0.365 N 
HETATM   10  C4  UNL     1      14.539   8.247  22.475  1.00  0.00     0.090 A 
HETATM   11  C5  UNL     1      14.271   8.418  21.130  1.00  0.00     0.017 A 
HETATM   12  C6  UNL     1      14.594   7.491  20.167  1.00  0.00     0.003 A 
HETATM   13  C7  UNL     1      15.215   6.335  20.565  1.00  0.00     0.017 A 
HETATM   14  C8  UNL     1      15.481   6.166  21.896  1.00  0.00     0.090 A 
ENDBRANCH   8   9
ENDBRANCH   7   8
ENDBRANCH   5   7
ENDBRANCH   4   5
BRANCH   4  15
HETATM   15  C9  UNL     1      18.197  10.637  23.925  1.00  0.00     0.092 A 
HETATM   16  C10 UNL     1      17.092  11.271  23.391  1.00  0.00     0.122 A 
HETATM   17  N4  UNL     1      17.480  12.350  22.680  1.00  0.00    -0.360 N 
HETATM   18  C11 UNL     1      18.818  12.397  22.765  1.00  0.00     0.180 A 
ATOM     19  H4  UNL     1      16.875  13.000  22.178  1.00  0.00     0.166 HD
HETATM   20  N5  UNL     1      19.245  11.365  23.514  1.00  0.00    -0.348 N 
ATOM     21  H5  UNL     1      20.221  11.167  23.737  1.00  0.00     0.167 HD
ENDBRANCH   4  15
TORSDOF 5
ENDMDL
