MODEL 1
REMARK VINA RESULT: -7.840825042      0.000      0.000
REMARK  8 active torsions:
REMARK  status: ('A' for Active; 'I' for Inactive)
REMARK    1  A    between atoms: O1_1  and  C1_3 
REMARK    2  A    between atoms: C1_3  and  N1_4 
REMARK    3  A    between atoms: C1_3  and  N2_19 
REMARK    4  A    between atoms: N1_4  and  C2_6 
REMARK    5  A    between atoms: C2_6  and  O2_7 
REMARK    6  A    between atoms: C2_6  and  C3_9 
REMARK    7  A    between atoms: C9_15  and  C10_16 
REMARK    8  A    between atoms: N2_19  and  C11_21 
ROOT
HETATM    1  C2  UNL     1      28.354   9.736  20.431  1.00  0.00     0.123 C 
ENDROOT
BRANCH   1   2
HETATM    2  N1  UNL     1      27.887   8.774  21.287  1.00  0.00    -0.306 N 
ATOM      3  H1  UNL     1      28.624   8.383  21.873  1.00  0.00     0.171 HD
BRANCH   2   4
HETATM    4  C1  UNL     1      26.638   8.201  21.547  1.00  0.00     0.218 C 
BRANCH   4   5
HETATM    5  O1  UNL     1      26.342   7.975  22.796  1.00  0.00    -0.332 OA
ATOM      6  H1  UNL     1      25.425   8.030  23.037  1.00  0.00     0.220 HD
ENDBRANCH   4   5
BRANCH   4   7
HETATM    7  N2  UNL     1      25.668   7.837  20.598  1.00  0.00    -0.351 N 
ATOM      8  H2  UNL     1      25.224   8.567  20.039  1.00  0.00     0.163 HD
BRANCH   7   9
HETATM    9  C11 UNL     1      25.274   6.442  20.387  1.00  0.00     0.089 C 
HETATM   10  C12 UNL     1      24.063   5.977  21.095  1.00  0.00     0.030 C 
HETATM   11  C13 UNL     1      23.395   5.595  19.787  1.00  0.00    -0.006 A 
HETATM   12  C14 UNL     1      24.158   4.916  18.698  1.00  0.00     0.012 A 
HETATM   13  C15 UNL     1      24.517   6.285  19.061  1.00  0.00     0.013 A 
ENDBRANCH   7   9
ENDBRANCH   4   7
ENDBRANCH   2   4
ENDBRANCH   1   2
BRANCH   1  14
HETATM   14  O2  UNL     1      27.434  10.393  19.770  1.00  0.00    -0.349 OA
ATOM     15  H2  UNL     1      27.742  10.868  19.008  1.00  0.00     0.219 HD
ENDBRANCH   1  14
BRANCH   1  16
HETATM   16  C3  UNL     1      29.713  10.202  20.093  1.00  0.00     0.075 C 
HETATM   17  C4  UNL     1      30.703   9.055  19.956  1.00  0.00     0.018 C 
HETATM   18  C5  UNL     1      32.031   9.690  20.245  1.00  0.00    -0.009 C 
HETATM   19  C6  UNL     1      32.589   9.328  21.625  1.00  0.00     0.005 C 
HETATM   20  C8  UNL     1      31.772  11.073  20.803  1.00  0.00     0.005 C 
HETATM   21  C7  UNL     1      32.816  10.811  21.868  1.00  0.00     0.006 C 
HETATM   22  C9  UNL     1      30.344  10.966  21.253  1.00  0.00     0.103 C 
BRANCH  22  23
HETATM   23  C10 UNL     1      29.701  12.300  21.417  1.00  0.00     0.178 C 
HETATM   24  O3  UNL     1      29.740  12.803  22.569  1.00  0.00    -0.648 OA
HETATM   25  O4  UNL     1      29.090  12.985  20.406  1.00  0.00    -0.648 OA
ENDBRANCH  22  23
ENDBRANCH   1  16
TORSDOF 8
ENDMDL
MODEL 2
REMARK VINA RESULT: -7.764523107      2.773      3.407
REMARK  8 active torsions:
REMARK  status: ('A' for Active; 'I' for Inactive)
REMARK    1  A    between atoms: O1_1  and  C1_3 
REMARK    2  A    between atoms: C1_3  and  N1_4 
REMARK    3  A    between atoms: C1_3  and  N2_19 
REMARK    4  A    between atoms: N1_4  and  C2_6 
REMARK    5  A    between atoms: C2_6  and  O2_7 
REMARK    6  A    between atoms: C2_6  and  C3_9 
REMARK    7  A    between atoms: C9_15  and  C10_16 
REMARK    8  A    between atoms: N2_19  and  C11_21 
ROOT
HETATM    1  C2  UNL     1      27.589   8.994  20.547  1.00  0.00     0.123 C 
ENDROOT
BRANCH   1   2
HETATM    2  N1  UNL     1      26.993   8.592  21.713  1.00  0.00    -0.306 N 
ATOM      3  H1  UNL     1      27.141   9.254  22.474  1.00  0.00     0.171 HD
BRANCH   2   4
HETATM    4  C1  UNL     1      26.228   7.489  22.106  1.00  0.00     0.218 C 
BRANCH   4   5
HETATM    5  O1  UNL     1      26.722   6.737  23.049  1.00  0.00    -0.332 OA
ATOM      6  H1  UNL     1      26.269   5.922  23.230  1.00  0.00     0.220 HD
ENDBRANCH   4   5
BRANCH   4   7
HETATM    7  N2  UNL     1      24.982   7.103  21.584  1.00  0.00    -0.351 N 
ATOM      8  H2  UNL     1      24.146   7.614  21.869  1.00  0.00     0.163 HD
BRANCH   7   9
HETATM    9  C11 UNL     1      24.848   5.988  20.643  1.00  0.00     0.089 C 
HETATM   10  C12 UNL     1      23.577   5.235  20.679  1.00  0.00     0.030 C 
HETATM   11  C13 UNL     1      23.307   5.540  19.216  1.00  0.00    -0.006 A 
HETATM   12  C14 UNL     1      24.399   5.482  18.200  1.00  0.00     0.012 A 
HETATM   13  C15 UNL     1      24.466   6.498  19.247  1.00  0.00     0.013 A 
ENDBRANCH   7   9
ENDBRANCH   4   7
ENDBRANCH   2   4
ENDBRANCH   1   2
BRANCH   1  14
HETATM   14  O2  UNL     1      28.893   9.108  20.595  1.00  0.00    -0.349 OA
ATOM     15  H2  UNL     1      29.377   8.418  20.159  1.00  0.00     0.219 HD
ENDBRANCH   1  14
BRANCH   1  16
HETATM   16  C3  UNL     1      27.056   9.328  19.212  1.00  0.00     0.075 C 
HETATM   17  C4  UNL     1      27.358   8.254  18.179  1.00  0.00     0.018 C 
HETATM   18  C5  UNL     1      27.334   8.993  16.873  1.00  0.00    -0.009 C 
HETATM   19  C6  UNL     1      28.727   9.229  16.284  1.00  0.00     0.005 C 
HETATM   20  C8  UNL     1      27.303  10.474  17.180  1.00  0.00     0.005 C 
HETATM   21  C7  UNL     1      28.354  10.692  16.112  1.00  0.00     0.006 C 
HETATM   22  C9  UNL     1      27.797  10.511  18.597  1.00  0.00     0.103 C 
BRANCH  22  23
HETATM   23  C10 UNL     1      27.435  11.779  19.290  1.00  0.00     0.178 C 
HETATM   24  O3  UNL     1      28.313  12.281  20.037  1.00  0.00    -0.648 OA
HETATM   25  O4  UNL     1      26.230  12.408  19.156  1.00  0.00    -0.648 OA
ENDBRANCH  22  23
ENDBRANCH   1  16
TORSDOF 8
ENDMDL
MODEL 3
REMARK VINA RESULT: -7.553281144      1.838      2.409
REMARK  8 active torsions:
REMARK  status: ('A' for Active; 'I' for Inactive)
REMARK    1  A    between atoms: O1_1  and  C1_3 
REMARK    2  A    between atoms: C1_3  and  N1_4 
REMARK    3  A    between atoms: C1_3  and  N2_19 
REMARK    4  A    between atoms: N1_4  and  C2_6 
REMARK    5  A    between atoms: C2_6  and  O2_7 
REMARK    6  A    between atoms: C2_6  and  C3_9 
REMARK    7  A    between atoms: C9_15  and  C10_16 
REMARK    8  A    between atoms: N2_19  and  C11_21 
ROOT
HETATM    1  C2  UNL     1      27.797   8.897  20.240  1.00  0.00     0.123 C 
ENDROOT
BRANCH   1   2
HETATM    2  N1  UNL     1      27.292   8.539  21.461  1.00  0.00    -0.306 N 
ATOM      3  H1  UNL     1      27.673   9.104  22.220  1.00  0.00     0.171 HD
BRANCH   2   4
HETATM    4  C1  UNL     1      26.378   7.583  21.914  1.00  0.00     0.218 C 
BRANCH   4   5
HETATM    5  O1  UNL     1      26.711   6.906  22.977  1.00  0.00    -0.332 OA
ATOM      6  H1  UNL     1      26.828   7.399  23.781  1.00  0.00     0.220 HD
ENDBRANCH   4   5
BRANCH   4   7
HETATM    7  N2  UNL     1      25.135   7.271  21.336  1.00  0.00    -0.351 N 
ATOM      8  H2  UNL     1      24.370   7.940  21.417  1.00  0.00     0.163 HD
BRANCH   7   9
HETATM    9  C11 UNL     1      24.907   6.012  20.622  1.00  0.00     0.089 C 
HETATM   10  C12 UNL     1      23.626   5.323  20.879  1.00  0.00     0.030 C 
HETATM   11  C13 UNL     1      23.256   5.373  19.408  1.00  0.00    -0.006 A 
HETATM   12  C14 UNL     1      24.268   5.097  18.346  1.00  0.00     0.012 A 
HETATM   13  C15 UNL     1      24.435   6.280  19.186  1.00  0.00     0.013 A 
ENDBRANCH   7   9
ENDBRANCH   4   7
ENDBRANCH   2   4
ENDBRANCH   1   2
BRANCH   1  14
HETATM   14  O2  UNL     1      27.340   8.212  19.222  1.00  0.00    -0.349 OA
ATOM     15  H2  UNL     1      26.733   8.676  18.658  1.00  0.00     0.219 HD
ENDBRANCH   1  14
BRANCH   1  16
HETATM   16  C3  UNL     1      28.770   9.924  19.819  1.00  0.00     0.075 C 
HETATM   17  C4  UNL     1      29.943  10.042  20.781  1.00  0.00     0.018 C 
HETATM   18  C5  UNL     1      30.434  11.445  20.581  1.00  0.00    -0.009 C 
HETATM   19  C6  UNL     1      30.061  12.387  21.729  1.00  0.00     0.005 C 
HETATM   20  C8  UNL     1      29.404  12.182  19.751  1.00  0.00     0.005 C 
HETATM   21  C7  UNL     1      29.528  13.362  20.691  1.00  0.00     0.006 C 
HETATM   22  C9  UNL     1      28.184  11.328  19.936  1.00  0.00     0.103 C 
BRANCH  22  23
HETATM   23  C10 UNL     1      27.163  11.563  18.877  1.00  0.00     0.178 C 
HETATM   24  O3  UNL     1      26.240  12.369  19.157  1.00  0.00    -0.648 OA
HETATM   25  O4  UNL     1      27.180  10.963  17.651  1.00  0.00    -0.648 OA
ENDBRANCH  22  23
ENDBRANCH   1  16
TORSDOF 8
ENDMDL
MODEL 4
REMARK VINA RESULT: -7.445969795      2.455      3.435
REMARK  8 active torsions:
REMARK  status: ('A' for Active; 'I' for Inactive)
REMARK    1  A    between atoms: O1_1  and  C1_3 
REMARK    2  A    between atoms: C1_3  and  N1_4 
REMARK    3  A    between atoms: C1_3  and  N2_19 
REMARK    4  A    between atoms: N1_4  and  C2_6 
REMARK    5  A    between atoms: C2_6  and  O2_7 
REMARK    6  A    between atoms: C2_6  and  C3_9 
REMARK    7  A    between atoms: C9_15  and  C10_16 
REMARK    8  A    between atoms: N2_19  and  C11_21 
ROOT
HETATM    1  C2  UNL     1      28.046   9.335  20.133  1.00  0.00     0.123 C 
ENDROOT
BRANCH   1   2
HETATM    2  N1  UNL     1      27.623   8.745  21.295  1.00  0.00    -0.306 N 
ATOM      3  H1  UNL     1      28.251   8.931  22.077  1.00  0.00     0.171 HD
BRANCH   2   4
HETATM    4  C1  UNL     1      26.533   7.949  21.662  1.00  0.00     0.218 C 
BRANCH   4   5
HETATM    5  O1  UNL     1      26.556   7.437  22.862  1.00  0.00    -0.332 OA
ATOM      6  H1  UNL     1      26.477   8.044  23.588  1.00  0.00     0.220 HD
ENDBRANCH   4   5
BRANCH   4   7
HETATM    7  N2  UNL     1      25.417   7.637  20.869  1.00  0.00    -0.351 N 
ATOM      8  H2  UNL     1      24.815   8.394  20.542  1.00  0.00     0.163 HD
BRANCH   7   9
HETATM    9  C11 UNL     1      25.091   6.259  20.497  1.00  0.00     0.089 C 
HETATM   10  C12 UNL     1      23.853   5.689  21.068  1.00  0.00     0.030 C 
HETATM   11  C13 UNL     1      23.290   5.417  19.685  1.00  0.00    -0.006 A 
HETATM   12  C14 UNL     1      24.150   4.875  18.592  1.00  0.00     0.012 A 
HETATM   13  C15 UNL     1      24.432   6.211  19.111  1.00  0.00     0.013 A 
ENDBRANCH   7   9
ENDBRANCH   4   7
ENDBRANCH   2   4
ENDBRANCH   1   2
BRANCH   1  14
HETATM   14  O2  UNL     1      29.342   9.481  20.019  1.00  0.00    -0.349 OA
ATOM     15  H2  UNL     1      29.634  10.353  19.782  1.00  0.00     0.219 HD
ENDBRANCH   1  14
BRANCH   1  16
HETATM   16  C3  UNL     1      27.328   9.848  18.951  1.00  0.00     0.075 C 
HETATM   17  C4  UNL     1      27.615   9.035  17.698  1.00  0.00     0.018 C 
HETATM   18  C5  UNL     1      27.362   9.999  16.577  1.00  0.00    -0.009 C 
HETATM   19  C6  UNL     1      28.644  10.513  15.917  1.00  0.00     0.005 C 
HETATM   20  C8  UNL     1      27.215  11.380  17.178  1.00  0.00     0.005 C 
HETATM   21  C7  UNL     1      28.106  11.925  16.081  1.00  0.00     0.006 C 
HETATM   22  C9  UNL     1      27.867  11.209  18.520  1.00  0.00     0.103 C 
BRANCH  22  23
HETATM   23  C10 UNL     1      27.461  12.267  19.485  1.00  0.00     0.178 C 
HETATM   24  O3  UNL     1      26.231  12.514  19.564  1.00  0.00    -0.648 OA
HETATM   25  O4  UNL     1      28.336  12.964  20.269  1.00  0.00    -0.648 OA
ENDBRANCH  22  23
ENDBRANCH   1  16
TORSDOF 8
ENDMDL
MODEL 5
REMARK VINA RESULT: -7.211402334      1.721      2.542
REMARK  8 active torsions:
REMARK  status: ('A' for Active; 'I' for Inactive)
REMARK    1  A    between atoms: O1_1  and  C1_3 
REMARK    2  A    between atoms: C1_3  and  N1_4 
REMARK    3  A    between atoms: C1_3  and  N2_19 
REMARK    4  A    between atoms: N1_4  and  C2_6 
REMARK    5  A    between atoms: C2_6  and  O2_7 
REMARK    6  A    between atoms: C2_6  and  C3_9 
REMARK    7  A    between atoms: C9_15  and  C10_16 
REMARK    8  A    between atoms: N2_19  and  C11_21 
ROOT
HETATM    1  C2  UNL     1      27.476   9.060  20.398  1.00  0.00     0.123 C 
ENDROOT
BRANCH   1   2
HETATM    2  N1  UNL     1      27.112   8.527  21.606  1.00  0.00    -0.306 N 
ATOM      3  H1  UNL     1      27.570   8.991  22.390  1.00  0.00     0.171 HD
BRANCH   2   4
HETATM    4  C1  UNL     1      26.262   7.496  22.019  1.00  0.00     0.218 C 
BRANCH   4   5
HETATM    5  O1  UNL     1      26.659   6.775  23.031  1.00  0.00    -0.332 OA
ATOM      6  H1  UNL     1      25.990   6.293  23.503  1.00  0.00     0.220 HD
ENDBRANCH   4   5
BRANCH   4   7
HETATM    7  N2  UNL     1      25.024   7.151  21.451  1.00  0.00    -0.351 N 
ATOM      8  H2  UNL     1      24.208   7.730  21.654  1.00  0.00     0.163 HD
BRANCH   7   9
HETATM    9  C11 UNL     1      24.869   5.986  20.578  1.00  0.00     0.089 C 
HETATM   10  C12 UNL     1      23.575   5.277  20.636  1.00  0.00     0.030 C 
HETATM   11  C13 UNL     1      23.338   5.500  19.152  1.00  0.00    -0.006 A 
HETATM   12  C14 UNL     1      24.444   5.345  18.162  1.00  0.00     0.012 A 
HETATM   13  C15 UNL     1      24.527   6.421  19.146  1.00  0.00     0.013 A 
ENDBRANCH   7   9
ENDBRANCH   4   7
ENDBRANCH   2   4
ENDBRANCH   1   2
BRANCH   1  14
HETATM   14  O2  UNL     1      27.419   8.235  19.383  1.00  0.00    -0.349 OA
ATOM     15  H2  UNL     1      28.259   7.944  19.048  1.00  0.00     0.219 HD
ENDBRANCH   1  14
BRANCH   1  16
HETATM   16  C3  UNL     1      27.925  10.405  19.991  1.00  0.00     0.075 C 
HETATM   17  C4  UNL     1      27.566  10.725  18.548  1.00  0.00     0.018 C 
HETATM   18  C5  UNL     1      28.582  11.752  18.144  1.00  0.00    -0.009 C 
HETATM   19  C6  UNL     1      29.666  11.201  17.214  1.00  0.00     0.005 C 
HETATM   20  C8  UNL     1      29.646  11.800  19.220  1.00  0.00     0.005 C 
HETATM   21  C7  UNL     1      30.704  11.816  18.137  1.00  0.00     0.006 C 
HETATM   22  C9  UNL     1      29.446  10.485  19.916  1.00  0.00     0.103 C 
BRANCH  22  23
HETATM   23  C10 UNL     1      30.044  10.470  21.279  1.00  0.00     0.178 C 
HETATM   24  O3  UNL     1      30.790   9.496  21.554  1.00  0.00    -0.648 OA
HETATM   25  O4  UNL     1      29.829  11.437  22.220  1.00  0.00    -0.648 OA
ENDBRANCH  22  23
ENDBRANCH   1  16
TORSDOF 8
ENDMDL
