MODEL 1
REMARK VINA RESULT: -7.317349301      0.000      0.000
REMARK  2 active torsions:
REMARK  status: ('A' for Active; 'I' for Inactive)
REMARK    1  A    between atoms: C2_2  and  N1_3 
REMARK    2  A    between atoms: C2_2  and  N4_8 
ROOT
HETATM    1  N4  UNL     1      28.013  11.136  20.187  1.00  0.00    -0.205 NA
HETATM    2  C4  UNL     1      27.150  11.042  19.056  1.00  0.00     0.117 C 
HETATM    3  C5  UNL     1      27.078  12.282  18.216  1.00  0.00     0.026 C 
HETATM    4  C6  UNL     1      28.379  12.973  17.977  1.00  0.00     0.028 C 
HETATM    5  C7  UNL     1      28.265  14.399  18.442  1.00  0.00     0.038 C 
HETATM    6  C8  UNL     1      27.918  14.541  19.883  1.00  0.00     0.240 C 
HETATM    7  N5  UNL     1      29.005  14.345  20.797  1.00  0.00    -0.045 N 
HETATM    8  C9  UNL     1      30.138  15.143  20.387  1.00  0.00     0.240 C 
HETATM    9  C10 UNL     1      31.148  15.345  21.529  1.00  0.00     0.032 C 
HETATM   10  C11 UNL     1      30.890  14.149  22.459  1.00  0.00    -0.008 C 
HETATM   11  C12 UNL     1      29.555  14.450  23.124  1.00  0.00     0.032 C 
HETATM   12  C13 UNL     1      28.578  14.958  22.068  1.00  0.00     0.240 C 
HETATM   13  C14 UNL     1      30.789  12.970  21.497  1.00  0.00     0.061 C 
HETATM   14  C15 UNL     1      29.318  12.960  21.041  1.00  0.00     0.306 C 
HETATM   15  N6  UNL     1      29.043  12.048  20.042  1.00  0.00    -0.292 N 
HETATM   16  C16 UNL     1      29.467  12.221  18.721  1.00  0.00     0.085 C 
ENDROOT
BRANCH   1  17
HETATM   17  C2  UNL     1      28.572   9.812  20.430  1.00  0.00     0.174 C 
HETATM   18  C1  UNL     1      29.993   9.890  20.928  1.00  0.00     0.051 C 
BRANCH  17  19
HETATM   19  N1  UNL     1      27.774   9.088  21.331  1.00  0.00    -0.349 N 
HETATM   20  C3  UNL     1      26.885   8.224  21.283  1.00  0.00     0.198 C 
HETATM   21  N2  UNL     1      26.328   7.752  22.525  1.00  0.00    -0.067 NA
HETATM   22  N3  UNL     1      26.374   7.666  20.110  1.00  0.00    -0.067 NA
ATOM     23  H1  UNL     1      27.985   9.344  22.295  1.00  0.00     0.163 HD
ENDBRANCH  17  19
ENDBRANCH   1  17
TORSDOF 2
ENDMDL
MODEL 2
REMARK VINA RESULT: -7.144665107      1.545      3.106
REMARK  2 active torsions:
REMARK  status: ('A' for Active; 'I' for Inactive)
REMARK    1  A    between atoms: C2_2  and  N1_3 
REMARK    2  A    between atoms: C2_2  and  N4_8 
ROOT
HETATM    1  N4  UNL     1      28.937  12.352  19.605  1.00  0.00    -0.205 NA
HETATM    2  C4  UNL     1      29.858  11.364  19.151  1.00  0.00     0.117 C 
HETATM    3  C5  UNL     1      31.247  11.499  19.700  1.00  0.00     0.026 C 
HETATM    4  C6  UNL     1      31.335  11.841  21.149  1.00  0.00     0.028 C 
HETATM    5  C7  UNL     1      32.149  13.096  21.304  1.00  0.00     0.038 C 
HETATM    6  C8  UNL     1      31.595  14.272  20.578  1.00  0.00     0.240 C 
HETATM    7  N5  UNL     1      30.493  14.926  21.222  1.00  0.00    -0.045 N 
HETATM    8  C9  UNL     1      30.822  15.193  22.603  1.00  0.00     0.240 C 
HETATM    9  C10 UNL     1      29.912  16.269  23.218  1.00  0.00     0.032 C 
HETATM   10  C11 UNL     1      28.642  16.209  22.355  1.00  0.00    -0.008 C 
HETATM   11  C12 UNL     1      29.045  16.821  21.021  1.00  0.00     0.032 C 
HETATM   12  C13 UNL     1      30.405  16.264  20.610  1.00  0.00     0.240 C 
HETATM   13  C14 UNL     1      28.372  14.713  22.231  1.00  0.00     0.061 C 
HETATM   14  C15 UNL     1      29.230  14.255  21.037  1.00  0.00     0.306 C 
HETATM   15  N6  UNL     1      29.245  12.889  20.842  1.00  0.00    -0.292 N 
HETATM   16  C16 UNL     1      29.928  12.011  21.690  1.00  0.00     0.085 C 
ENDROOT
BRANCH   1  17
HETATM   17  C2  UNL     1      27.618  11.737  19.662  1.00  0.00     0.174 C 
HETATM   18  C1  UNL     1      26.566  12.612  19.027  1.00  0.00     0.051 C 
BRANCH  17  19
HETATM   19  N1  UNL     1      27.630  10.468  19.058  1.00  0.00    -0.349 N 
HETATM   20  C3  UNL     1      27.387   9.295  19.380  1.00  0.00     0.198 C 
HETATM   21  N2  UNL     1      27.544   8.269  18.380  1.00  0.00    -0.067 NA
HETATM   22  N3  UNL     1      26.970   8.882  20.647  1.00  0.00    -0.067 NA
ATOM     23  H1  UNL     1      27.919  10.529  18.082  1.00  0.00     0.163 HD
ENDBRANCH  17  19
ENDBRANCH   1  17
TORSDOF 2
ENDMDL
MODEL 3
REMARK VINA RESULT: -7.052326206      1.623      2.331
REMARK  2 active torsions:
REMARK  status: ('A' for Active; 'I' for Inactive)
REMARK    1  A    between atoms: C2_2  and  N1_3 
REMARK    2  A    between atoms: C2_2  and  N4_8 
ROOT
HETATM    1  N4  UNL     1      28.475  11.057  20.436  1.00  0.00    -0.205 NA
HETATM    2  C4  UNL     1      27.433  10.797  19.499  1.00  0.00     0.117 C 
HETATM    3  C5  UNL     1      26.898  12.011  18.800  1.00  0.00     0.026 C 
HETATM    4  C6  UNL     1      27.922  13.004  18.362  1.00  0.00     0.028 C 
HETATM    5  C7  UNL     1      27.588  14.342  18.961  1.00  0.00     0.038 C 
HETATM    6  C8  UNL     1      27.538  14.346  20.449  1.00  0.00     0.240 C 
HETATM    7  N5  UNL     1      28.813  14.389  21.104  1.00  0.00    -0.045 N 
HETATM    8  C9  UNL     1      29.616  15.450  20.543  1.00  0.00     0.240 C 
HETATM    9  C10 UNL     1      30.775  15.852  21.470  1.00  0.00     0.032 C 
HETATM   10  C11 UNL     1      31.007  14.598  22.328  1.00  0.00    -0.008 C 
HETATM   11  C12 UNL     1      29.815  14.543  23.272  1.00  0.00     0.032 C 
HETATM   12  C13 UNL     1      28.542  14.835  22.483  1.00  0.00     0.240 C 
HETATM   13  C14 UNL     1      30.972  13.464  21.309  1.00  0.00     0.061 C 
HETATM   14  C15 UNL     1      29.480  13.112  21.161  1.00  0.00     0.306 C 
HETATM   15  N6  UNL     1      29.212  12.196  20.164  1.00  0.00    -0.292 N 
HETATM   16  C16 UNL     1      29.288  12.513  18.804  1.00  0.00     0.085 C 
ENDROOT
BRANCH   1  17
HETATM   17  C2  UNL     1      29.362   9.901  20.447  1.00  0.00     0.174 C 
HETATM   18  C1  UNL     1      29.746   9.481  19.050  1.00  0.00     0.051 C 
BRANCH  17  19
HETATM   19  N1  UNL     1      30.509  10.155  21.216  1.00  0.00    -0.349 N 
HETATM   20  C3  UNL     1      31.599   9.611  21.449  1.00  0.00     0.198 C 
HETATM   21  N2  UNL     1      32.510  10.269  22.351  1.00  0.00    -0.067 NA
HETATM   22  N3  UNL     1      32.021   8.397  20.901  1.00  0.00    -0.067 NA
ATOM     23  H1  UNL     1      30.421  11.033  21.728  1.00  0.00     0.163 HD
ENDBRANCH  17  19
ENDBRANCH   1  17
TORSDOF 2
ENDMDL
MODEL 4
REMARK VINA RESULT: -7.045041088      2.612      4.676
REMARK  2 active torsions:
REMARK  status: ('A' for Active; 'I' for Inactive)
REMARK    1  A    between atoms: C2_2  and  N1_3 
REMARK    2  A    between atoms: C2_2  and  N4_8 
ROOT
HETATM    1  N4  UNL     1      31.562  12.904  20.118  1.00  0.00    -0.205 NA
HETATM    2  C4  UNL     1      32.199  13.529  21.229  1.00  0.00     0.117 C 
HETATM    3  C5  UNL     1      31.280  14.306  22.125  1.00  0.00     0.026 C 
HETATM    4  C6  UNL     1      29.968  13.659  22.416  1.00  0.00     0.028 C 
HETATM    5  C7  UNL     1      28.863  14.598  22.015  1.00  0.00     0.038 C 
HETATM    6  C8  UNL     1      28.887  14.983  20.577  1.00  0.00     0.240 C 
HETATM    7  N5  UNL     1      28.361  14.003  19.672  1.00  0.00    -0.045 N 
HETATM    8  C9  UNL     1      27.069  13.552  20.136  1.00  0.00     0.240 C 
HETATM    9  C10 UNL     1      26.258  12.873  19.021  1.00  0.00     0.032 C 
HETATM   10  C11 UNL     1      27.331  12.390  18.032  1.00  0.00    -0.008 C 
HETATM   11  C12 UNL     1      27.844  13.655  17.361  1.00  0.00     0.032 C 
HETATM   12  C13 UNL     1      28.060  14.728  18.424  1.00  0.00     0.240 C 
HETATM   13  C14 UNL     1      28.386  11.763  18.937  1.00  0.00     0.061 C 
HETATM   14  C15 UNL     1      29.283  12.937  19.369  1.00  0.00     0.306 C 
HETATM   15  N6  UNL     1      30.227  12.607  20.321  1.00  0.00    -0.292 N 
HETATM   16  C16 UNL     1      29.898  12.348  21.655  1.00  0.00     0.085 C 
ENDROOT
BRANCH   1  17
HETATM   17  C2  UNL     1      32.289  11.675  19.823  1.00  0.00     0.174 C 
HETATM   18  C1  UNL     1      33.460  11.927  18.907  1.00  0.00     0.051 C 
BRANCH  17  19
HETATM   19  N1  UNL     1      32.717  11.050  21.006  1.00  0.00    -0.349 N 
HETATM   20  C3  UNL     1      32.717   9.909  21.495  1.00  0.00     0.198 C 
HETATM   21  N2  UNL     1      33.292   9.730  22.803  1.00  0.00    -0.067 NA
HETATM   22  N3  UNL     1      32.197   8.772  20.873  1.00  0.00    -0.067 NA
ATOM     23  H1  UNL     1      33.148  11.721  21.641  1.00  0.00     0.163 HD
ENDBRANCH  17  19
ENDBRANCH   1  17
TORSDOF 2
ENDMDL
MODEL 5
REMARK VINA RESULT: -7.038391298      1.950      5.254
REMARK  2 active torsions:
REMARK  status: ('A' for Active; 'I' for Inactive)
REMARK    1  A    between atoms: C2_2  and  N1_3 
REMARK    2  A    between atoms: C2_2  and  N4_8 
ROOT
HETATM    1  N4  UNL     1      30.009  13.866  19.731  1.00  0.00    -0.205 NA
HETATM    2  C4  UNL     1      29.365  15.031  19.221  1.00  0.00     0.117 C 
HETATM    3  C5  UNL     1      27.992  14.798  18.665  1.00  0.00     0.026 C 
HETATM    4  C6  UNL     1      27.125  13.879  19.459  1.00  0.00     0.028 C 
HETATM    5  C7  UNL     1      26.666  12.755  18.572  1.00  0.00     0.038 C 
HETATM    6  C8  UNL     1      27.776  11.957  17.982  1.00  0.00     0.240 C 
HETATM    7  N5  UNL     1      28.376  10.997  18.862  1.00  0.00    -0.045 N 
HETATM    8  C9  UNL     1      27.348  10.197  19.486  1.00  0.00     0.240 C 
HETATM    9  C10 UNL     1      27.905   8.886  20.065  1.00  0.00     0.032 C 
HETATM   10  C11 UNL     1      29.392   9.196  20.304  1.00  0.00    -0.008 C 
HETATM   11  C12 UNL     1      30.010   9.249  18.915  1.00  0.00     0.032 C 
HETATM   12  C13 UNL     1      29.092  10.046  17.993  1.00  0.00     0.240 C 
HETATM   13  C14 UNL     1      29.362  10.572  20.962  1.00  0.00     0.061 C 
HETATM   14  C15 UNL     1      29.321  11.569  19.788  1.00  0.00     0.306 C 
HETATM   15  N6  UNL     1      29.141  12.883  20.169  1.00  0.00    -0.292 N 
HETATM   16  C16 UNL     1      27.921  13.372  20.647  1.00  0.00     0.085 C 
ENDROOT
BRANCH   1  17
HETATM   17  C2  UNL     1      30.865  14.281  20.836  1.00  0.00     0.174 C 
HETATM   18  C1  UNL     1      32.171  14.854  20.345  1.00  0.00     0.051 C 
BRANCH  17  19
HETATM   19  N1  UNL     1      30.204  15.203  21.663  1.00  0.00    -0.349 N 
HETATM   20  C3  UNL     1      29.705  15.227  22.799  1.00  0.00     0.198 C 
HETATM   21  N2  UNL     1      29.105  16.455  23.253  1.00  0.00    -0.067 NA
HETATM   22  N3  UNL     1      29.675  14.146  23.683  1.00  0.00    -0.067 NA
ATOM     23  H1  UNL     1      30.108  16.107  21.202  1.00  0.00     0.163 HD
ENDBRANCH  17  19
ENDBRANCH   1  17
TORSDOF 2
ENDMDL
