MODEL 1
REMARK VINA RESULT: -7.875615809      0.000      0.000
REMARK  3 active torsions:
REMARK  status: ('A' for Active; 'I' for Inactive)
REMARK       I    between atoms: N1_1  and  C1_4 
REMARK       I    between atoms: C1_4  and  N2_5 
REMARK    1  A    between atoms: C2_7  and  N3_8 
REMARK       I    between atoms: N5_12  and  C4_14 
REMARK       I    between atoms: C4_14  and  N6_16 
REMARK    2  A    between atoms: C7_19  and  C8_20 
REMARK    3  A    between atoms: C8_20  and  C9_21 
ROOT
HETATM    1  N1  UNL     1      29.520  12.863  15.172  1.00  0.00    -0.234 N 
ATOM      2  H11 UNL     1      30.356  12.861  15.756  1.00  0.00     0.174 HD
ATOM      3  H12 UNL     1      30.000  13.315  14.393  1.00  0.00     0.174 HD
HETATM    4  C1  UNL     1      28.950  12.323  16.102  1.00  0.00     0.680 C 
HETATM    5  N2  UNL     1      27.496  12.325  15.085  1.00  0.00    -0.188 N 
ATOM      6  H2  UNL     1      27.137  11.604  14.460  1.00  0.00     0.185 HD
HETATM    7  C2  UNL     1      27.025  13.478  15.351  1.00  0.00     0.198 C 
HETATM    8  N5  UNL     1      28.328  11.737  17.112  1.00  0.00    -0.141 N 
ATOM      9  H5  UNL     1      27.349  11.469  17.015  1.00  0.00     0.189 HD
HETATM   10  C4  UNL     1      29.035  11.467  18.369  1.00  0.00     0.336 C 
HETATM   11  O1  UNL     1      30.229  11.813  18.429  1.00  0.00    -0.246 OA
HETATM   12  N6  UNL     1      28.397  10.844  19.462  1.00  0.00    -0.333 N 
HETATM   13  C5  UNL     1      29.058  10.522  20.744  1.00  0.00     0.128 C 
HETATM   14  C6  UNL     1      28.655   9.045  20.825  1.00  0.00     0.026 C 
HETATM   15  C7  UNL     1      27.227   9.042  20.389  1.00  0.00     0.005 C 
HETATM   16  C15 UNL     1      27.041  10.382  19.658  1.00  0.00     0.132 C 
ENDROOT
BRANCH  15  17
HETATM   17  C8  UNL     1      26.879   7.966  19.443  1.00  0.00     0.011 C 
BRANCH  17  18
HETATM   18  C9  UNL     1      25.590   7.261  19.610  1.00  0.00    -0.014 C 
HETATM   19  C10 UNL     1      25.347   6.687  20.988  1.00  0.00     0.005 C 
HETATM   20  C11 UNL     1      24.407   5.501  20.931  1.00  0.00     0.000 C 
HETATM   21  C12 UNL     1      23.287   5.687  19.968  1.00  0.00     0.000 C 
HETATM   22  C13 UNL     1      23.667   6.173  18.606  1.00  0.00     0.000 C 
HETATM   23  C14 UNL     1      25.201   6.271  18.566  1.00  0.00     0.005 C 
ENDBRANCH  17  18
ENDBRANCH  15  17
BRANCH   7  24
HETATM   24  N3  UNL     1      27.550  14.445  16.218  1.00  0.00    -0.350 N 
HETATM   25  C3  UNL     1      27.348  15.689  16.144  1.00  0.00     0.190 C 
HETATM   26  N4  UNL     1      26.542  16.250  15.144  1.00  0.00    -0.097 NA
ATOM     27  H3  UNL     1      28.149  14.114  16.975  1.00  0.00     0.167 HD
ENDBRANCH   7  24
TORSDOF 3
ENDMDL
MODEL 2
REMARK VINA RESULT: -7.672766360      0.290      1.098
REMARK  3 active torsions:
REMARK  status: ('A' for Active; 'I' for Inactive)
REMARK       I    between atoms: N1_1  and  C1_4 
REMARK       I    between atoms: C1_4  and  N2_5 
REMARK    1  A    between atoms: C2_7  and  N3_8 
REMARK       I    between atoms: N5_12  and  C4_14 
REMARK       I    between atoms: C4_14  and  N6_16 
REMARK    2  A    between atoms: C7_19  and  C8_20 
REMARK    3  A    between atoms: C8_20  and  C9_21 
ROOT
HETATM    1  N1  UNL     1      29.553  12.941  15.093  1.00  0.00    -0.234 N 
ATOM      2  H11 UNL     1      30.380  12.941  15.689  1.00  0.00     0.174 HD
ATOM      3  H12 UNL     1      30.038  13.412  14.329  1.00  0.00     0.174 HD
HETATM    4  C1  UNL     1      28.977  12.379  16.007  1.00  0.00     0.680 C 
HETATM    5  N2  UNL     1      27.537  12.378  14.969  1.00  0.00    -0.188 N 
ATOM      6  H2  UNL     1      27.196  11.662  14.328  1.00  0.00     0.185 HD
HETATM    7  C2  UNL     1      27.047  13.521  15.247  1.00  0.00     0.198 C 
HETATM    8  N5  UNL     1      28.349  11.768  16.998  1.00  0.00    -0.141 N 
ATOM      9  H5  UNL     1      27.375  11.490  16.884  1.00  0.00     0.189 HD
HETATM   10  C4  UNL     1      29.042  11.488  18.261  1.00  0.00     0.336 C 
HETATM   11  O1  UNL     1      30.230  11.849  18.343  1.00  0.00    -0.246 OA
HETATM   12  N6  UNL     1      28.398  10.839  19.334  1.00  0.00    -0.333 N 
HETATM   13  C5  UNL     1      29.045  10.506  20.620  1.00  0.00     0.128 C 
HETATM   14  C6  UNL     1      28.660   9.022  20.673  1.00  0.00     0.026 C 
HETATM   15  C7  UNL     1      27.239   9.007  20.216  1.00  0.00     0.005 C 
HETATM   16  C15 UNL     1      27.046  10.356  19.504  1.00  0.00     0.132 C 
ENDROOT
BRANCH  15  17
HETATM   17  C8  UNL     1      26.919   7.943  19.249  1.00  0.00     0.011 C 
BRANCH  17  18
HETATM   18  C9  UNL     1      25.893   6.940  19.608  1.00  0.00    -0.014 C 
HETATM   19  C10 UNL     1      24.958   6.550  18.485  1.00  0.00     0.005 C 
HETATM   20  C11 UNL     1      23.624   6.072  19.023  1.00  0.00     0.000 C 
HETATM   21  C12 UNL     1      23.752   5.230  20.244  1.00  0.00     0.000 C 
HETATM   22  C13 UNL     1      24.637   5.769  21.322  1.00  0.00     0.000 C 
HETATM   23  C14 UNL     1      25.124   7.154  20.866  1.00  0.00     0.005 C 
ENDBRANCH  17  18
ENDBRANCH  15  17
BRANCH   7  24
HETATM   24  N3  UNL     1      27.547  14.480  16.136  1.00  0.00    -0.350 N 
HETATM   25  C3  UNL     1      27.331  15.723  16.078  1.00  0.00     0.190 C 
HETATM   26  N4  UNL     1      26.533  16.289  15.074  1.00  0.00    -0.097 NA
ATOM     27  H3  UNL     1      28.138  14.145  16.897  1.00  0.00     0.167 HD
ENDBRANCH   7  24
TORSDOF 3
ENDMDL
MODEL 3
REMARK VINA RESULT: -7.607100436      2.987      4.147
REMARK  3 active torsions:
REMARK  status: ('A' for Active; 'I' for Inactive)
REMARK       I    between atoms: N1_1  and  C1_4 
REMARK       I    between atoms: C1_4  and  N2_5 
REMARK    1  A    between atoms: C2_7  and  N3_8 
REMARK       I    between atoms: N5_12  and  C4_14 
REMARK       I    between atoms: C4_14  and  N6_16 
REMARK    2  A    between atoms: C7_19  and  C8_20 
REMARK    3  A    between atoms: C8_20  and  C9_21 
ROOT
HETATM    1  N1  UNL     1      29.257  15.968  19.392  1.00  0.00    -0.234 N 
ATOM      2  H11 UNL     1      30.077  15.688  18.854  1.00  0.00     0.174 HD
ATOM      3  H12 UNL     1      29.330  16.942  19.097  1.00  0.00     0.174 HD
HETATM    4  C1  UNL     1      29.173  14.805  19.742  1.00  0.00     0.680 C 
HETATM    5  N2  UNL     1      27.744  15.292  20.676  1.00  0.00    -0.188 N 
ATOM      6  H2  UNL     1      26.759  15.274  20.417  1.00  0.00     0.185 HD
HETATM    7  C2  UNL     1      28.293  15.669  21.762  1.00  0.00     0.198 C 
HETATM    8  N5  UNL     1      29.079  13.541  20.124  1.00  0.00    -0.141 N 
ATOM      9  H5  UNL     1      28.311  13.252  20.729  1.00  0.00     0.189 HD
HETATM   10  C4  UNL     1      30.069  12.553  19.683  1.00  0.00     0.336 C 
HETATM   11  O1  UNL     1      30.983  12.963  18.944  1.00  0.00    -0.246 OA
HETATM   12  N6  UNL     1      29.995  11.200  20.074  1.00  0.00    -0.333 N 
HETATM   13  C5  UNL     1      30.944  10.152  19.647  1.00  0.00     0.128 C 
HETATM   14  C6  UNL     1      29.917   9.128  19.147  1.00  0.00     0.026 C 
HETATM   15  C7  UNL     1      28.845   9.165  20.184  1.00  0.00     0.005 C 
HETATM   16  C15 UNL     1      29.074  10.489  20.932  1.00  0.00     0.132 C 
ENDROOT
BRANCH  15  17
HETATM   17  C8  UNL     1      27.473   9.189  19.645  1.00  0.00     0.011 C 
BRANCH  17  18
HETATM   18  C9  UNL     1      26.445   8.334  20.275  1.00  0.00    -0.014 C 
HETATM   19  C10 UNL     1      26.655   8.057  21.747  1.00  0.00     0.005 C 
HETATM   20  C11 UNL     1      26.013   6.748  22.157  1.00  0.00     0.000 C 
HETATM   21  C12 UNL     1      24.691   6.517  21.513  1.00  0.00     0.000 C 
HETATM   22  C13 UNL     1      24.633   6.737  20.035  1.00  0.00     0.000 C 
HETATM   23  C14 UNL     1      26.057   7.081  19.568  1.00  0.00     0.005 C 
ENDBRANCH  17  18
ENDBRANCH  15  17
BRANCH   7  24
HETATM   24  N3  UNL     1      29.656  15.679  22.082  1.00  0.00    -0.350 N 
HETATM   25  C3  UNL     1      30.238  14.868  22.855  1.00  0.00     0.190 C 
HETATM   26  N4  UNL     1      29.547  13.832  23.497  1.00  0.00    -0.097 NA
ATOM     27  H3  UNL     1      30.229  16.406  21.652  1.00  0.00     0.167 HD
ENDBRANCH   7  24
TORSDOF 3
ENDMDL
MODEL 4
REMARK VINA RESULT: -7.322238154      2.859      4.470
REMARK  3 active torsions:
REMARK  status: ('A' for Active; 'I' for Inactive)
REMARK       I    between atoms: N1_1  and  C1_4 
REMARK       I    between atoms: C1_4  and  N2_5 
REMARK    1  A    between atoms: C2_7  and  N3_8 
REMARK       I    between atoms: N5_12  and  C4_14 
REMARK       I    between atoms: C4_14  and  N6_16 
REMARK    2  A    between atoms: C7_19  and  C8_20 
REMARK    3  A    between atoms: C8_20  and  C9_21 
ROOT
HETATM    1  N1  UNL     1      29.758  14.479  20.747  1.00  0.00    -0.234 N 
ATOM      2  H11 UNL     1      29.464  14.686  19.793  1.00  0.00     0.174 HD
ATOM      3  H12 UNL     1      29.909  15.463  20.971  1.00  0.00     0.174 HD
HETATM    4  C1  UNL     1      29.576  13.306  20.477  1.00  0.00     0.680 C 
HETATM    5  N2  UNL     1      30.086  12.946  22.139  1.00  0.00    -0.188 N 
ATOM      6  H2  UNL     1      29.524  12.828  22.982  1.00  0.00     0.185 HD
HETATM    7  C2  UNL     1      31.348  12.876  21.987  1.00  0.00     0.198 C 
HETATM    8  N5  UNL     1      29.380  12.030  20.187  1.00  0.00    -0.141 N 
ATOM      9  H5  UNL     1      29.528  11.320  20.903  1.00  0.00     0.189 HD
HETATM   10  C4  UNL     1      28.951  11.628  18.842  1.00  0.00     0.336 C 
HETATM   11  O1  UNL     1      28.785  12.538  18.009  1.00  0.00    -0.246 OA
HETATM   12  N6  UNL     1      28.735  10.277  18.504  1.00  0.00    -0.333 N 
HETATM   13  C5  UNL     1      28.280   9.808  17.179  1.00  0.00     0.128 C 
HETATM   14  C6  UNL     1      27.107   8.941  17.651  1.00  0.00     0.026 C 
HETATM   15  C7  UNL     1      27.649   8.232  18.848  1.00  0.00     0.005 C 
HETATM   16  C15 UNL     1      28.883   9.053  19.259  1.00  0.00     0.132 C 
ENDROOT
BRANCH  15  17
HETATM   17  C8  UNL     1      26.734   8.194  20.003  1.00  0.00     0.011 C 
BRANCH  17  18
HETATM   18  C9  UNL     1      25.520   7.354  19.922  1.00  0.00    -0.014 C 
HETATM   19  C10 UNL     1      25.151   6.637  21.201  1.00  0.00     0.005 C 
HETATM   20  C11 UNL     1      24.364   5.374  20.915  1.00  0.00     0.000 C 
HETATM   21  C12 UNL     1      23.377   5.536  19.813  1.00  0.00     0.000 C 
HETATM   22  C13 UNL     1      23.888   6.180  18.563  1.00  0.00     0.000 C 
HETATM   23  C14 UNL     1      25.393   6.430  18.760  1.00  0.00     0.005 C 
ENDBRANCH  17  18
ENDBRANCH  15  17
BRANCH   7  24
HETATM   24  N3  UNL     1      32.086  13.046  20.809  1.00  0.00    -0.350 N 
HETATM   25  C3  UNL     1      33.020  12.297  20.409  1.00  0.00     0.190 C 
HETATM   26  N4  UNL     1      33.430  11.171  21.137  1.00  0.00    -0.097 NA
ATOM     27  H3  UNL     1      31.846  13.845  20.222  1.00  0.00     0.167 HD
ENDBRANCH   7  24
TORSDOF 3
ENDMDL
MODEL 5
REMARK VINA RESULT: -7.208797367      3.417      4.935
REMARK  3 active torsions:
REMARK  status: ('A' for Active; 'I' for Inactive)
REMARK       I    between atoms: N1_1  and  C1_4 
REMARK       I    between atoms: C1_4  and  N2_5 
REMARK    1  A    between atoms: C2_7  and  N3_8 
REMARK       I    between atoms: N5_12  and  C4_14 
REMARK       I    between atoms: C4_14  and  N6_16 
REMARK    2  A    between atoms: C7_19  and  C8_20 
REMARK    3  A    between atoms: C8_20  and  C9_21 
ROOT
HETATM    1  N1  UNL     1      29.202  15.914  19.434  1.00  0.00    -0.234 N 
ATOM      2  H11 UNL     1      30.066  15.696  18.939  1.00  0.00     0.174 HD
ATOM      3  H12 UNL     1      29.177  16.871  19.080  1.00  0.00     0.174 HD
HETATM    4  C1  UNL     1      29.234  14.773  19.855  1.00  0.00     0.680 C 
HETATM    5  N2  UNL     1      27.729  15.152  20.716  1.00  0.00    -0.188 N 
ATOM      6  H2  UNL     1      26.760  15.008  20.431  1.00  0.00     0.185 HD
HETATM    7  C2  UNL     1      28.194  15.653  21.791  1.00  0.00     0.198 C 
HETATM    8  N5  UNL     1      29.266  13.532  20.314  1.00  0.00    -0.141 N 
ATOM      9  H5  UNL     1      28.514  13.196  20.915  1.00  0.00     0.189 HD
HETATM   10  C4  UNL     1      30.374  12.636  19.966  1.00  0.00     0.336 C 
HETATM   11  O1  UNL     1      31.263  13.100  19.228  1.00  0.00    -0.246 OA
HETATM   12  N6  UNL     1      30.435  11.309  20.440  1.00  0.00    -0.333 N 
HETATM   13  C5  UNL     1      31.509  10.350  20.107  1.00  0.00     0.128 C 
HETATM   14  C6  UNL     1      30.620   9.189  19.646  1.00  0.00     0.026 C 
HETATM   15  C7  UNL     1      29.513   9.169  20.648  1.00  0.00     0.005 C 
HETATM   16  C15 UNL     1      29.569  10.553  21.316  1.00  0.00     0.132 C 
ENDROOT
BRANCH  15  17
HETATM   17  C8  UNL     1      28.167   9.006  20.070  1.00  0.00     0.011 C 
BRANCH  17  18
HETATM   18  C9  UNL     1      28.022   8.988  18.599  1.00  0.00    -0.014 C 
HETATM   19  C10 UNL     1      27.915  10.349  17.948  1.00  0.00     0.005 C 
HETATM   20  C11 UNL     1      27.158  10.273  16.638  1.00  0.00     0.000 C 
HETATM   21  C12 UNL     1      27.491   9.063  15.838  1.00  0.00     0.000 C 
HETATM   22  C13 UNL     1      27.475   7.763  16.576  1.00  0.00     0.000 C 
HETATM   23  C14 UNL     1      27.015   8.059  18.013  1.00  0.00     0.005 C 
ENDBRANCH  17  18
ENDBRANCH  15  17
BRANCH   7  24
HETATM   24  N3  UNL     1      29.535  15.835  22.147  1.00  0.00    -0.350 N 
HETATM   25  C3  UNL     1      30.200  15.093  22.923  1.00  0.00     0.190 C 
HETATM   26  N4  UNL     1      29.635  13.964  23.532  1.00  0.00    -0.097 NA
ATOM     27  H3  UNL     1      30.018  16.638  21.744  1.00  0.00     0.167 HD
ENDBRANCH   7  24
TORSDOF 3
ENDMDL
