MODEL 1
REMARK VINA RESULT: -6.854521226      0.000      0.000
REMARK  4 active torsions:
REMARK  status: ('A' for Active; 'I' for Inactive)
REMARK    1  A    between atoms: N1_1  and  C1_5 
REMARK    2  A    between atoms: C1_5  and  C2_6 
REMARK    3  A    between atoms: C2_6  and  C3_7 
REMARK       I    between atoms: C3_7  and  N2_9 
REMARK    4  A    between atoms: N5_18  and  C9_19 
ROOT
HETATM    1  C2  UNL     1      29.553  10.315  20.295  1.00  0.00     0.134 C 
HETATM    2  C5  UNL     1      30.145   9.036  20.910  1.00  0.00     0.042 C 
HETATM    3  C6  UNL     1      31.620   9.049  20.982  1.00  0.00     0.004 C 
HETATM    4  C7  UNL     1      32.219  10.349  21.356  1.00  0.00     0.020 C 
HETATM    5  C8  UNL     1      31.458  11.579  21.025  1.00  0.00     0.118 C 
HETATM    6  N5  UNL     1      30.051  11.437  20.907  1.00  0.00    -0.389 N 
ENDROOT
BRANCH   1   7
HETATM    7  C1  UNL     1      29.809  10.205  18.766  1.00  0.00     0.270 C 
BRANCH   7   8
HETATM    8  N1  UNL     1      29.272   9.064  18.143  1.00  0.00    -0.076 N 
ATOM      9  H13 UNL     1      28.979   8.387  18.847  1.00  0.00     0.274 HD
ATOM     10  H12 UNL     1      28.371   9.288  17.721  1.00  0.00     0.274 HD
ATOM     11  H11 UNL     1      29.877   8.613  17.456  1.00  0.00     0.274 HD
ENDBRANCH   7   8
ENDBRANCH   1   7
BRANCH   1  12
HETATM   12  C3  UNL     1      28.091  10.074  20.372  1.00  0.00     0.253 C 
HETATM   13  O1  UNL     1      27.241  10.497  19.613  1.00  0.00    -0.270 OA
HETATM   14  N2  UNL     1      27.574   9.243  21.462  1.00  0.00    -0.301 N 
HETATM   15  C4  UNL     1      26.906   8.170  21.235  1.00  0.00     0.203 C 
ATOM     16  H2  UNL     1      27.749   9.524  22.427  1.00  0.00     0.171 HD
HETATM   17  N3  UNL     1      26.402   7.362  22.297  1.00  0.00    -0.066 NA
HETATM   18  N4  UNL     1      26.672   7.788  19.886  1.00  0.00    -0.066 NA
ENDBRANCH   1  12
BRANCH   6  19
HETATM   19  C9  UNL     1      29.273  12.587  21.201  1.00  0.00     0.089 C 
HETATM   20  C10 UNL     1      28.951  13.509  20.035  1.00  0.00     0.013 C 
HETATM   21  C11 UNL     1      27.646  14.278  20.352  1.00  0.00     0.011 C 
HETATM   22  C14 UNL     1      30.000  14.458  20.483  1.00  0.00    -0.002 C 
HETATM   23  C12 UNL     1      28.092  15.290  21.359  1.00  0.00    -0.013 C 
HETATM   24  C13 UNL     1      29.332  15.840  20.626  1.00  0.00     0.010 C 
HETATM   25  C16 UNL     1      28.838  14.666  22.520  1.00  0.00     0.011 C 
HETATM   26  C15 UNL     1      29.883  13.789  21.840  1.00  0.00     0.013 C 
ENDBRANCH   6  19
TORSDOF 4
ENDMDL
MODEL 2
REMARK VINA RESULT: -6.494186247      0.989      1.309
REMARK  4 active torsions:
REMARK  status: ('A' for Active; 'I' for Inactive)
REMARK    1  A    between atoms: N1_1  and  C1_5 
REMARK    2  A    between atoms: C1_5  and  C2_6 
REMARK    3  A    between atoms: C2_6  and  C3_7 
REMARK       I    between atoms: C3_7  and  N2_9 
REMARK    4  A    between atoms: N5_18  and  C9_19 
ROOT
HETATM    1  C2  UNL     1      30.357  10.563  20.361  1.00  0.00     0.134 C 
HETATM    2  C5  UNL     1      30.707   9.317  21.192  1.00  0.00     0.042 C 
HETATM    3  C6  UNL     1      32.148   9.199  21.492  1.00  0.00     0.004 C 
HETATM    4  C7  UNL     1      32.829  10.471  21.817  1.00  0.00     0.020 C 
HETATM    5  C8  UNL     1      32.267  11.720  21.243  1.00  0.00     0.118 C 
HETATM    6  N5  UNL     1      30.884  11.698  20.922  1.00  0.00    -0.389 N 
ENDROOT
BRANCH   1   7
HETATM    7  C1  UNL     1      30.818  10.245  18.911  1.00  0.00     0.270 C 
BRANCH   7   8
HETATM    8  N1  UNL     1      30.239   9.104  18.328  1.00  0.00    -0.076 N 
ATOM      9  H13 UNL     1      30.136   8.369  19.028  1.00  0.00     0.274 HD
ATOM     10  H12 UNL     1      29.259   9.284  18.109  1.00  0.00     0.274 HD
ATOM     11  H11 UNL     1      30.720   8.738  17.506  1.00  0.00     0.274 HD
ENDBRANCH   7   8
ENDBRANCH   1   7
BRANCH   1  12
HETATM   12  C3  UNL     1      28.883  10.473  20.232  1.00  0.00     0.253 C 
HETATM   13  O1  UNL     1      28.188  11.016  19.396  1.00  0.00    -0.270 OA
HETATM   14  N2  UNL     1      28.144   9.653  21.196  1.00  0.00    -0.301 N 
HETATM   15  C4  UNL     1      27.411   8.667  20.822  1.00  0.00     0.203 C 
ATOM     16  H2  UNL     1      28.213   9.871  22.190  1.00  0.00     0.171 HD
HETATM   17  N3  UNL     1      26.691   7.869  21.760  1.00  0.00    -0.066 NA
HETATM   18  N4  UNL     1      27.326   8.372  19.434  1.00  0.00    -0.066 NA
ENDBRANCH   1  12
BRANCH   6  19
HETATM   19  C9  UNL     1      30.207  12.944  20.968  1.00  0.00     0.089 C 
HETATM   20  C10 UNL     1      31.074  14.193  20.968  1.00  0.00     0.013 C 
HETATM   21  C11 UNL     1      30.257  15.370  20.382  1.00  0.00     0.011 C 
HETATM   22  C14 UNL     1      30.862  14.351  22.429  1.00  0.00    -0.002 C 
HETATM   23  C12 UNL     1      29.320  15.712  21.496  1.00  0.00    -0.013 C 
HETATM   24  C13 UNL     1      30.330  15.780  22.658  1.00  0.00     0.010 C 
HETATM   25  C16 UNL     1      28.552  14.508  22.002  1.00  0.00     0.011 C 
HETATM   26  C15 UNL     1      29.642  13.469  22.245  1.00  0.00     0.013 C 
ENDBRANCH   6  19
TORSDOF 4
ENDMDL
MODEL 3
REMARK VINA RESULT: -6.137301772      2.423      5.169
REMARK  4 active torsions:
REMARK  status: ('A' for Active; 'I' for Inactive)
REMARK    1  A    between atoms: N1_1  and  C1_5 
REMARK    2  A    between atoms: C1_5  and  C2_6 
REMARK    3  A    between atoms: C2_6  and  C3_7 
REMARK       I    between atoms: C3_7  and  N2_9 
REMARK    4  A    between atoms: N5_18  and  C9_19 
ROOT
HETATM    1  C2  UNL     1      31.150  11.386  20.794  1.00  0.00     0.134 C 
HETATM    2  C5  UNL     1      32.124  12.575  20.855  1.00  0.00     0.042 C 
HETATM    3  C6  UNL     1      33.365  12.356  20.085  1.00  0.00     0.004 C 
HETATM    4  C7  UNL     1      33.188  11.663  18.791  1.00  0.00     0.020 C 
HETATM    5  C8  UNL     1      32.031  10.742  18.656  1.00  0.00     0.118 C 
HETATM    6  N5  UNL     1      30.918  11.001  19.498  1.00  0.00    -0.389 N 
ENDROOT
BRANCH   1   7
HETATM    7  C1  UNL     1      31.753  10.300  21.728  1.00  0.00     0.270 C 
BRANCH   7   8
HETATM    8  N1  UNL     1      31.024   9.099  21.809  1.00  0.00    -0.076 N 
ATOM      9  H13 UNL     1      31.639   8.337  22.092  1.00  0.00     0.274 HD
ATOM     10  H12 UNL     1      30.392   9.128  22.608  1.00  0.00     0.274 HD
ATOM     11  H11 UNL     1      30.511   8.840  20.966  1.00  0.00     0.274 HD
ENDBRANCH   7   8
ENDBRANCH   1   7
BRANCH   1  12
HETATM   12  C3  UNL     1      29.995  11.862  21.593  1.00  0.00     0.253 C 
HETATM   13  O1  UNL     1      29.495  11.308  22.553  1.00  0.00    -0.270 OA
HETATM   14  N2  UNL     1      29.360  13.129  21.223  1.00  0.00    -0.301 N 
HETATM   15  C4  UNL     1      29.280  14.111  22.046  1.00  0.00     0.203 C 
ATOM     16  H2  UNL     1      28.970  13.234  20.286  1.00  0.00     0.171 HD
HETATM   17  N3  UNL     1      28.661  15.344  21.685  1.00  0.00    -0.066 NA
HETATM   18  N4  UNL     1      29.830  13.953  23.347  1.00  0.00    -0.066 NA
ENDBRANCH   1  12
BRANCH   6  19
HETATM   19  C9  UNL     1      29.650  10.592  19.011  1.00  0.00     0.089 C 
HETATM   20  C10 UNL     1      29.394   9.094  18.947  1.00  0.00     0.013 C 
HETATM   21  C11 UNL     1      27.869   8.843  19.037  1.00  0.00     0.011 C 
HETATM   22  C14 UNL     1      29.631   9.107  17.482  1.00  0.00    -0.002 C 
HETATM   23  C12 UNL     1      27.385   9.241  17.680  1.00  0.00    -0.013 C 
HETATM   24  C13 UNL     1      28.398   8.463  16.817  1.00  0.00     0.010 C 
HETATM   25  C16 UNL     1      27.845  10.628  17.281  1.00  0.00     0.011 C 
HETATM   26  C15 UNL     1      29.345  10.596  17.551  1.00  0.00     0.013 C 
ENDBRANCH   6  19
TORSDOF 4
ENDMDL
MODEL 4
REMARK VINA RESULT: -6.075150294      2.070      3.853
REMARK  4 active torsions:
REMARK  status: ('A' for Active; 'I' for Inactive)
REMARK    1  A    between atoms: N1_1  and  C1_5 
REMARK    2  A    between atoms: C1_5  and  C2_6 
REMARK    3  A    between atoms: C2_6  and  C3_7 
REMARK       I    between atoms: C3_7  and  N2_9 
REMARK    4  A    between atoms: N5_18  and  C9_19 
ROOT
HETATM    1  C2  UNL     1      28.696  12.511  19.500  1.00  0.00     0.134 C 
HETATM    2  C5  UNL     1      29.096  12.002  18.104  1.00  0.00     0.042 C 
HETATM    3  C6  UNL     1      28.400  12.699  17.005  1.00  0.00     0.004 C 
HETATM    4  C7  UNL     1      28.225  14.156  17.195  1.00  0.00     0.020 C 
HETATM    5  C8  UNL     1      28.159  14.666  18.588  1.00  0.00     0.118 C 
HETATM    6  N5  UNL     1      28.800  13.876  19.579  1.00  0.00    -0.389 N 
ENDROOT
BRANCH   1   7
HETATM    7  C1  UNL     1      27.286  11.920  19.776  1.00  0.00     0.270 C 
BRANCH   7   8
HETATM    8  N1  UNL     1      27.204  10.516  19.759  1.00  0.00    -0.076 N 
ATOM      9  H13 UNL     1      27.250  10.152  20.711  1.00  0.00     0.274 HD
ATOM     10  H12 UNL     1      26.262  10.224  19.500  1.00  0.00     0.274 HD
ATOM     11  H11 UNL     1      27.891  10.043  19.171  1.00  0.00     0.274 HD
ENDBRANCH   7   8
ENDBRANCH   1   7
BRANCH   1  12
HETATM   12  C3  UNL     1      29.544  11.698  20.405  1.00  0.00     0.253 C 
HETATM   13  O1  UNL     1      29.364  11.500  21.591  1.00  0.00    -0.270 OA
HETATM   14  N2  UNL     1      30.734  11.046  19.854  1.00  0.00    -0.301 N 
HETATM   15  C4  UNL     1      30.893   9.773  19.906  1.00  0.00     0.203 C 
ATOM     16  H2  UNL     1      31.456  11.618  19.416  1.00  0.00     0.171 HD
HETATM   17  N3  UNL     1      32.052   9.137  19.370  1.00  0.00    -0.066 NA
HETATM   18  N4  UNL     1      29.877   8.986  20.515  1.00  0.00    -0.066 NA
ENDBRANCH   1  12
BRANCH   6  19
HETATM   19  C9  UNL     1      29.283  14.567  20.720  1.00  0.00     0.089 C 
HETATM   20  C10 UNL     1      28.376  14.585  21.941  1.00  0.00     0.013 C 
HETATM   21  C11 UNL     1      29.247  14.768  23.207  1.00  0.00     0.011 C 
HETATM   22  C14 UNL     1      27.968  15.977  21.628  1.00  0.00    -0.002 C 
HETATM   23  C12 UNL     1      29.621  16.214  23.149  1.00  0.00    -0.013 C 
HETATM   24  C13 UNL     1      28.228  16.821  22.893  1.00  0.00     0.010 C 
HETATM   25  C16 UNL     1      30.229  16.605  21.818  1.00  0.00     0.011 C 
HETATM   26  C15 UNL     1      29.236  16.056  20.799  1.00  0.00     0.013 C 
ENDBRANCH   6  19
TORSDOF 4
ENDMDL
MODEL 5
REMARK VINA RESULT: -6.073966882      2.135      3.756
REMARK  4 active torsions:
REMARK  status: ('A' for Active; 'I' for Inactive)
REMARK    1  A    between atoms: N1_1  and  C1_5 
REMARK    2  A    between atoms: C1_5  and  C2_6 
REMARK    3  A    between atoms: C2_6  and  C3_7 
REMARK       I    between atoms: C3_7  and  N2_9 
REMARK    4  A    between atoms: N5_18  and  C9_19 
ROOT
HETATM    1  C2  UNL     1      29.953  12.283  20.123  1.00  0.00     0.134 C 
HETATM    2  C5  UNL     1      30.899  11.636  19.098  1.00  0.00     0.042 C 
HETATM    3  C6  UNL     1      30.676  12.107  17.716  1.00  0.00     0.004 C 
HETATM    4  C7  UNL     1      30.381  13.551  17.584  1.00  0.00     0.020 C 
HETATM    5  C8  UNL     1      29.741  14.231  18.737  1.00  0.00     0.118 C 
HETATM    6  N5  UNL     1      29.961  13.650  20.014  1.00  0.00    -0.389 N 
ENDROOT
BRANCH   1   7
HETATM    7  C1  UNL     1      28.575  11.593  19.918  1.00  0.00     0.270 C 
BRANCH   7   8
HETATM    8  N1  UNL     1      28.565  10.198  20.092  1.00  0.00    -0.076 N 
ATOM      9  H13 UNL     1      28.069   9.957  20.951  1.00  0.00     0.274 HD
ATOM     10  H12 UNL     1      27.952   9.764  19.402  1.00  0.00     0.274 HD
ATOM     11  H11 UNL     1      29.480   9.747  20.079  1.00  0.00     0.274 HD
ENDBRANCH   7   8
ENDBRANCH   1   7
BRANCH   1  12
HETATM   12  C3  UNL     1      30.397  11.687  21.407  1.00  0.00     0.253 C 
HETATM   13  O1  UNL     1      29.698  11.402  22.359  1.00  0.00    -0.270 OA
HETATM   14  N2  UNL     1      31.821  11.396  21.589  1.00  0.00    -0.301 N 
HETATM   15  C4  UNL     1      32.241  10.209  21.841  1.00  0.00     0.203 C 
ATOM     16  H2  UNL     1      32.497  12.156  21.513  1.00  0.00     0.171 HD
HETATM   17  N3  UNL     1      33.628   9.925  22.019  1.00  0.00    -0.066 NA
HETATM   18  N4  UNL     1      31.288   9.158  21.941  1.00  0.00    -0.066 NA
ENDBRANCH   1  12
BRANCH   6  19
HETATM   19  C9  UNL     1      29.916  14.531  21.124  1.00  0.00     0.089 C 
HETATM   20  C10 UNL     1      28.629  14.543  21.935  1.00  0.00     0.013 C 
HETATM   21  C11 UNL     1      28.952  15.002  23.378  1.00  0.00     0.011 C 
HETATM   22  C14 UNL     1      28.218  15.810  21.280  1.00  0.00    -0.002 C 
HETATM   23  C12 UNL     1      29.165  16.473  23.220  1.00  0.00    -0.013 C 
HETATM   24  C13 UNL     1      27.906  16.821  22.402  1.00  0.00     0.010 C 
HETATM   25  C16 UNL     1      30.173  16.803  22.139  1.00  0.00     0.011 C 
HETATM   26  C15 UNL     1      29.686  15.994  20.941  1.00  0.00     0.013 C 
ENDBRANCH   6  19
TORSDOF 4
ENDMDL
