MODEL 1
REMARK VINA RESULT: -7.330694424      0.000      0.000
REMARK  2 active torsions:
REMARK  status: ('A' for Active; 'I' for Inactive)
REMARK       I    between atoms: C1_4  and  N3_6 
REMARK    1  A    between atoms: C4_9  and  N4_10 
REMARK       I    between atoms: N4_10  and  C5_11 
REMARK    2  A    between atoms: C5_11  and  C6_13 
ROOT
HETATM    1  N4  UNL     1      28.777   9.806  20.712  1.00  0.00    -0.407 NA
HETATM    2  C5  UNL     1      29.496  10.903  21.079  1.00  0.00     0.291 C 
HETATM    3  O1  UNL     1      30.095  11.078  22.168  1.00  0.00    -0.257 OA
ENDROOT
BRANCH   2   4
HETATM    4  C6  UNL     1      29.639  12.080  20.148  1.00  0.00     0.101 C 
HETATM    5  C7  UNL     1      29.837  13.379  20.830  1.00  0.00     0.001 C 
HETATM    6  C8  UNL     1      28.538  13.984  21.335  1.00  0.00     0.010 C 
HETATM    7  C12 UNL     1      30.350  14.375  19.775  1.00  0.00     0.010 C 
HETATM    8  C9  UNL     1      27.547  14.121  20.232  1.00  0.00    -0.013 C 
HETATM    9  C10 UNL     1      28.062  15.054  19.164  1.00  0.00     0.009 C 
HETATM   10  C15 UNL     1      27.268  12.746  19.656  1.00  0.00     0.010 C 
HETATM   11  C11 UNL     1      29.360  14.469  18.652  1.00  0.00    -0.013 C 
HETATM   12  C13 UNL     1      29.057  13.112  18.053  1.00  0.00     0.010 C 
HETATM   13  C14 UNL     1      28.542  12.166  19.147  1.00  0.00     0.001 C 
ENDBRANCH   2   4
BRANCH   1  14
HETATM   14  C4  UNL     1      28.058   8.708  20.345  1.00  0.00     0.186 C 
HETATM   15  C3  UNL     1      27.567   8.693  18.896  1.00  0.00     0.061 C 
HETATM   16  C2  UNL     1      26.551   7.576  18.935  1.00  0.00     0.129 C 
HETATM   17  N3  UNL     1      26.008   7.577  20.268  1.00  0.00    -0.353 N 
HETATM   18  C1  UNL     1      24.992   6.699  20.755  1.00  0.00     0.184 C 
HETATM   19  C16 UNL     1      26.672   8.613  21.032  1.00  0.00     0.165 C 
HETATM   20  N1  UNL     1      24.651   6.737  22.008  1.00  0.00    -0.374 N 
HETATM   21  N2  UNL     1      24.338   5.788  19.917  1.00  0.00    -0.064 NA
ATOM     22  H12 UNL     1      23.925   6.110  22.355  1.00  0.00     0.158 HD
ATOM     23  H11 UNL     1      25.126   7.401  22.618  1.00  0.00     0.158 HD
ENDBRANCH   1  14
TORSDOF 2
ENDMDL
MODEL 2
REMARK VINA RESULT: -7.301683688      0.850      1.867
REMARK  2 active torsions:
REMARK  status: ('A' for Active; 'I' for Inactive)
REMARK       I    between atoms: C1_4  and  N3_6 
REMARK    1  A    between atoms: C4_9  and  N4_10 
REMARK       I    between atoms: N4_10  and  C5_11 
REMARK    2  A    between atoms: C5_11  and  C6_13 
ROOT
HETATM    1  N4  UNL     1      28.575   9.796  20.372  1.00  0.00    -0.407 NA
HETATM    2  C5  UNL     1      29.277  10.944  20.581  1.00  0.00     0.291 C 
HETATM    3  O1  UNL     1      30.459  11.037  20.994  1.00  0.00    -0.257 OA
ENDROOT
BRANCH   2   4
HETATM    4  C6  UNL     1      28.651  12.290  20.321  1.00  0.00     0.101 C 
HETATM    5  C7  UNL     1      27.355  12.236  19.608  1.00  0.00     0.001 C 
HETATM    6  C8  UNL     1      27.515  12.062  18.108  1.00  0.00     0.010 C 
HETATM    7  C12 UNL     1      26.684  13.610  19.775  1.00  0.00     0.010 C 
HETATM    8  C9  UNL     1      28.379  13.130  17.534  1.00  0.00    -0.013 C 
HETATM    9  C10 UNL     1      27.757  14.489  17.740  1.00  0.00     0.009 C 
HETATM   10  C15 UNL     1      29.742  13.057  18.194  1.00  0.00     0.010 C 
HETATM   11  C11 UNL     1      27.586  14.678  19.231  1.00  0.00    -0.013 C 
HETATM   12  C13 UNL     1      28.959  14.634  19.868  1.00  0.00     0.010 C 
HETATM   13  C14 UNL     1      29.582  13.246  19.662  1.00  0.00     0.001 C 
ENDBRANCH   2   4
BRANCH   1  14
HETATM   14  C4  UNL     1      27.873   8.647  20.164  1.00  0.00     0.186 C 
HETATM   15  C3  UNL     1      27.310   8.462  18.753  1.00  0.00     0.061 C 
HETATM   16  C2  UNL     1      26.332   7.330  18.965  1.00  0.00     0.129 C 
HETATM   17  N3  UNL     1      25.858   7.461  20.318  1.00  0.00    -0.353 N 
HETATM   18  C1  UNL     1      24.895   6.616  20.949  1.00  0.00     0.184 C 
HETATM   19  C16 UNL     1      26.527   8.591  20.930  1.00  0.00     0.165 C 
HETATM   20  N1  UNL     1      24.617   6.780  22.208  1.00  0.00    -0.374 N 
HETATM   21  N2  UNL     1      24.229   5.602  20.250  1.00  0.00    -0.064 NA
ATOM     22  H12 UNL     1      23.929   6.176  22.658  1.00  0.00     0.158 HD
ATOM     23  H11 UNL     1      25.102   7.519  22.717  1.00  0.00     0.158 HD
ENDBRANCH   1  14
TORSDOF 2
ENDMDL
MODEL 3
REMARK VINA RESULT: -7.175660932      0.990      2.093
REMARK  2 active torsions:
REMARK  status: ('A' for Active; 'I' for Inactive)
REMARK       I    between atoms: C1_4  and  N3_6 
REMARK    1  A    between atoms: C4_9  and  N4_10 
REMARK       I    between atoms: N4_10  and  C5_11 
REMARK    2  A    between atoms: C5_11  and  C6_13 
ROOT
HETATM    1  N4  UNL     1      29.338  10.075  20.987  1.00  0.00    -0.407 NA
HETATM    2  C5  UNL     1      30.065  11.098  21.514  1.00  0.00     0.291 C 
HETATM    3  O1  UNL     1      31.212  11.022  22.018  1.00  0.00    -0.257 OA
ENDROOT
BRANCH   2   4
HETATM    4  C6  UNL     1      29.515  12.502  21.544  1.00  0.00     0.101 C 
HETATM    5  C7  UNL     1      28.585  12.819  20.437  1.00  0.00     0.001 C 
HETATM    6  C8  UNL     1      29.304  13.167  19.145  1.00  0.00     0.010 C 
HETATM    7  C12 UNL     1      27.832  14.102  20.827  1.00  0.00     0.010 C 
HETATM    8  C9  UNL     1      30.266  14.286  19.353  1.00  0.00    -0.013 C 
HETATM    9  C10 UNL     1      29.544  15.537  19.788  1.00  0.00     0.009 C 
HETATM   10  C15 UNL     1      31.284  13.862  20.393  1.00  0.00     0.010 C 
HETATM   11  C11 UNL     1      28.817  15.206  21.073  1.00  0.00    -0.013 C 
HETATM   12  C13 UNL     1      29.851  14.817  22.108  1.00  0.00     0.010 C 
HETATM   13  C14 UNL     1      30.575  13.538  21.663  1.00  0.00     0.001 C 
ENDBRANCH   2   4
BRANCH   1  14
HETATM   14  C4  UNL     1      28.610   9.050  20.460  1.00  0.00     0.186 C 
HETATM   15  C3  UNL     1      28.164   9.234  19.008  1.00  0.00     0.061 C 
HETATM   16  C2  UNL     1      27.126   8.144  18.872  1.00  0.00     0.129 C 
HETATM   17  N3  UNL     1      26.543   7.984  20.178  1.00  0.00    -0.353 N 
HETATM   18  C1  UNL     1      25.496   7.073  20.517  1.00  0.00     0.184 C 
HETATM   19  C16 UNL     1      27.202   8.897  21.089  1.00  0.00     0.165 C 
HETATM   20  N1  UNL     1      25.118   6.955  21.754  1.00  0.00    -0.374 N 
HETATM   21  N2  UNL     1      24.852   6.293  19.549  1.00  0.00    -0.064 NA
ATOM     22  H12 UNL     1      24.370   6.305  21.996  1.00  0.00     0.158 HD
ATOM     23  H11 UNL     1      25.586   7.524  22.459  1.00  0.00     0.158 HD
ENDBRANCH   1  14
TORSDOF 2
ENDMDL
MODEL 4
REMARK VINA RESULT: -7.149741346      2.325      3.634
REMARK  2 active torsions:
REMARK  status: ('A' for Active; 'I' for Inactive)
REMARK       I    between atoms: C1_4  and  N3_6 
REMARK    1  A    between atoms: C4_9  and  N4_10 
REMARK       I    between atoms: N4_10  and  C5_11 
REMARK    2  A    between atoms: C5_11  and  C6_13 
ROOT
HETATM    1  N4  UNL     1      28.755   9.956  19.023  1.00  0.00    -0.407 NA
HETATM    2  C5  UNL     1      29.443  11.104  18.769  1.00  0.00     0.291 C 
HETATM    3  O1  UNL     1      29.129  12.002  17.951  1.00  0.00    -0.257 OA
ENDROOT
BRANCH   2   4
HETATM    4  C6  UNL     1      30.728  11.410  19.495  1.00  0.00     0.101 C 
HETATM    5  C7  UNL     1      31.836  10.473  19.202  1.00  0.00     0.001 C 
HETATM    6  C8  UNL     1      31.739   9.182  19.996  1.00  0.00     0.010 C 
HETATM    7  C12 UNL     1      33.136  11.136  19.686  1.00  0.00     0.010 C 
HETATM    8  C9  UNL     1      31.663   9.457  21.458  1.00  0.00    -0.013 C 
HETATM    9  C10 UNL     1      32.911  10.157  21.936  1.00  0.00     0.009 C 
HETATM   10  C15 UNL     1      30.435  10.303  21.729  1.00  0.00     0.010 C 
HETATM   11  C11 UNL     1      33.026  11.445  21.151  1.00  0.00    -0.013 C 
HETATM   12  C13 UNL     1      31.808  12.290  21.458  1.00  0.00     0.010 C 
HETATM   13  C14 UNL     1      30.543  11.575  20.961  1.00  0.00     0.001 C 
ENDBRANCH   2   4
BRANCH   1  14
HETATM   14  C4  UNL     1      28.066   8.808  19.276  1.00  0.00     0.186 C 
HETATM   15  C3  UNL     1      27.115   8.349  18.169  1.00  0.00     0.061 C 
HETATM   16  C2  UNL     1      26.288   7.312  18.893  1.00  0.00     0.129 C 
HETATM   17  N3  UNL     1      26.235   7.735  20.268  1.00  0.00    -0.353 N 
HETATM   18  C1  UNL     1      25.537   7.066  21.319  1.00  0.00     0.184 C 
HETATM   19  C16 UNL     1      27.013   8.949  20.405  1.00  0.00     0.165 C 
HETATM   20  N1  UNL     1      25.640   7.496  22.541  1.00  0.00    -0.374 N 
HETATM   21  N2  UNL     1      24.731   5.947  21.077  1.00  0.00    -0.064 NA
ATOM     22  H12 UNL     1      25.142   7.018  23.291  1.00  0.00     0.158 HD
ATOM     23  H11 UNL     1      26.227   8.311  22.717  1.00  0.00     0.158 HD
ENDBRANCH   1  14
TORSDOF 2
ENDMDL
MODEL 5
REMARK VINA RESULT: -7.043251876      2.328      3.509
REMARK  2 active torsions:
REMARK  status: ('A' for Active; 'I' for Inactive)
REMARK       I    between atoms: C1_4  and  N3_6 
REMARK    1  A    between atoms: C4_9  and  N4_10 
REMARK       I    between atoms: N4_10  and  C5_11 
REMARK    2  A    between atoms: C5_11  and  C6_13 
ROOT
HETATM    1  N4  UNL     1      27.749   9.460  19.458  1.00  0.00    -0.407 NA
HETATM    2  C5  UNL     1      28.778  10.106  18.843  1.00  0.00     0.291 C 
HETATM    3  O1  UNL     1      28.704  10.840  17.828  1.00  0.00    -0.257 OA
ENDROOT
BRANCH   2   4
HETATM    4  C6  UNL     1      30.188   9.981  19.361  1.00  0.00     0.101 C 
HETATM    5  C7  UNL     1      30.285   9.611  20.791  1.00  0.00     0.001 C 
HETATM    6  C8  UNL     1      30.087  10.795  21.721  1.00  0.00     0.010 C 
HETATM    7  C12 UNL     1      31.729   9.147  21.046  1.00  0.00     0.010 C 
HETATM    8  C9  UNL     1      31.044  11.892  21.402  1.00  0.00    -0.013 C 
HETATM    9  C10 UNL     1      32.467  11.433  21.596  1.00  0.00     0.009 C 
HETATM   10  C15 UNL     1      30.812  12.336  19.971  1.00  0.00     0.010 C 
HETATM   11  C11 UNL     1      32.681  10.248  20.680  1.00  0.00    -0.013 C 
HETATM   12  C13 UNL     1      32.477  10.717  19.255  1.00  0.00     0.010 C 
HETATM   13  C14 UNL     1      31.024  11.175  19.062  1.00  0.00     0.001 C 
ENDBRANCH   2   4
BRANCH   1  14
HETATM   14  C4  UNL     1      26.719   8.814  20.073  1.00  0.00     0.186 C 
HETATM   15  C3  UNL     1      27.029   8.241  21.458  1.00  0.00     0.061 C 
HETATM   16  C2  UNL     1      25.848   7.325  21.676  1.00  0.00     0.129 C 
HETATM   17  N3  UNL     1      25.455   6.863  20.370  1.00  0.00    -0.353 N 
HETATM   18  C1  UNL     1      24.389   5.953  20.094  1.00  0.00     0.184 C 
HETATM   19  C16 UNL     1      26.319   7.483  19.386  1.00  0.00     0.165 C 
HETATM   20  N1  UNL     1      24.072   5.685  18.863  1.00  0.00    -0.374 N 
HETATM   21  N2  UNL     1      23.665   5.329  21.116  1.00  0.00    -0.064 NA
ATOM     22  H12 UNL     1      23.311   5.034  18.666  1.00  0.00     0.158 HD
ATOM     23  H11 UNL     1      24.599   6.139  18.117  1.00  0.00     0.158 HD
ENDBRANCH   1  14
TORSDOF 2
ENDMDL
