MODEL 1
REMARK VINA RESULT: -6.186923566      0.000      0.000
REMARK  4 active torsions:
REMARK  status: ('A' for Active; 'I' for Inactive)
REMARK       I    between atoms: N2_5  and  C4_6 
REMARK       I    between atoms: C4_6  and  N6_19 
REMARK       I    between atoms: N3_7  and  C5_9 
REMARK       I    between atoms: C5_9  and  N5_13 
REMARK    1  A    between atoms: N6_19  and  C11_21 
REMARK    2  A    between atoms: C11_21  and  C12_22 
REMARK    3  A    between atoms: C12_22  and  C13_23 
REMARK    4  A    between atoms: C13_23  and  N7_24 
ROOT
HETATM    1  C1  UNL     1      32.417  10.238  22.016  1.00  0.00     0.312 C 
HETATM    2  N1  UNL     1      31.393   9.423  21.406  1.00  0.00     0.103 N 
HETATM    3  C2  UNL     1      31.762   8.955  20.093  1.00  0.00     0.294 C 
HETATM    4  C3  UNL     1      30.728   9.577  19.134  1.00  0.00     0.173 C 
HETATM    5  N2  UNL     1      29.597   9.645  20.029  1.00  0.00    -0.189 N 
HETATM    6  C4  UNL     1      28.256   9.312  19.729  1.00  0.00     0.692 C 
HETATM    7  N3  UNL     1      27.614  10.012  18.869  1.00  0.00    -0.023 N 
ATOM      8  H3  UNL     1      26.647   9.762  18.664  1.00  0.00     0.203 HD
HETATM    9  C5  UNL     1      28.178  11.109  18.198  1.00  0.00     0.688 C 
HETATM   10  N4  UNL     1      28.685  10.935  17.033  1.00  0.00    -0.234 N 
ATOM     11  H41 UNL     1      29.095  11.730  16.544  1.00  0.00     0.174 HD
ATOM     12  H42 UNL     1      28.677  10.005  16.613  1.00  0.00     0.174 HD
HETATM   13  N5  UNL     1      28.190  12.385  18.773  1.00  0.00    -0.218 N 
HETATM   14  C6  UNL     1      29.346  13.216  18.817  1.00  0.00     0.141 C 
HETATM   15  C7  UNL     1      29.062  14.688  18.958  1.00  0.00     0.020 C 
HETATM   16  C8  UNL     1      27.907  15.008  19.838  1.00  0.00     0.003 C 
HETATM   17  C9  UNL     1      27.306  13.771  20.491  1.00  0.00     0.020 C 
HETATM   18  C10 UNL     1      26.920  12.852  19.350  1.00  0.00     0.141 C 
HETATM   19  N6  UNL     1      27.621   8.204  20.379  1.00  0.00    -0.226 N 
ATOM     20  H6  UNL     1      28.169   7.350  20.479  1.00  0.00     0.177 HD
HETATM   21  C14 UNL     1      30.121  10.109  21.292  1.00  0.00     0.413 C 
ENDROOT
BRANCH  19  22
HETATM   22  C11 UNL     1      26.295   8.186  20.897  1.00  0.00     0.139 C 
BRANCH  22  23
HETATM   23  C12 UNL     1      25.427   7.090  20.331  1.00  0.00     0.047 C 
BRANCH  23  24
HETATM   24  C13 UNL     1      24.609   6.419  21.424  1.00  0.00     0.231 C 
BRANCH  24  25
HETATM   25  N7  UNL     1      24.799   7.194  22.635  1.00  0.00    -0.079 N 
ATOM     26  H73 UNL     1      25.254   8.091  22.469  1.00  0.00     0.274 HD
ATOM     27  H72 UNL     1      23.927   7.558  23.018  1.00  0.00     0.274 HD
ATOM     28  H71 UNL     1      25.308   6.603  23.292  1.00  0.00     0.274 HD
ENDBRANCH  24  25
ENDBRANCH  23  24
ENDBRANCH  22  23
ENDBRANCH  19  22
TORSDOF 4
ENDMDL
MODEL 2
REMARK VINA RESULT: -6.047435080      1.317      1.498
REMARK  4 active torsions:
REMARK  status: ('A' for Active; 'I' for Inactive)
REMARK       I    between atoms: N2_5  and  C4_6 
REMARK       I    between atoms: C4_6  and  N6_19 
REMARK       I    between atoms: N3_7  and  C5_9 
REMARK       I    between atoms: C5_9  and  N5_13 
REMARK    1  A    between atoms: N6_19  and  C11_21 
REMARK    2  A    between atoms: C11_21  and  C12_22 
REMARK    3  A    between atoms: C12_22  and  C13_23 
REMARK    4  A    between atoms: C13_23  and  N7_24 
ROOT
HETATM    1  C1  UNL     1      33.006  10.084  22.288  1.00  0.00     0.312 C 
HETATM    2  N1  UNL     1      31.942   9.603  21.439  1.00  0.00     0.103 N 
HETATM    3  C2  UNL     1      32.327   9.529  20.052  1.00  0.00     0.294 C 
HETATM    4  C3  UNL     1      31.396  10.516  19.319  1.00  0.00     0.173 C 
HETATM    5  N2  UNL     1      30.237  10.415  20.173  1.00  0.00    -0.189 N 
HETATM    6  C4  UNL     1      28.886  10.325  19.765  1.00  0.00     0.692 C 
HETATM    7  N3  UNL     1      28.349  11.317  19.157  1.00  0.00    -0.023 N 
ATOM      8  H3  UNL     1      27.374  11.239  18.869  1.00  0.00     0.203 HD
HETATM    9  C5  UNL     1      29.038  12.506  18.868  1.00  0.00     0.688 C 
HETATM   10  N4  UNL     1      29.579  12.650  17.715  1.00  0.00    -0.234 N 
ATOM     11  H41 UNL     1      30.080  13.513  17.505  1.00  0.00     0.174 HD
ATOM     12  H42 UNL     1      29.507  11.901  17.027  1.00  0.00     0.174 HD
HETATM   13  N5  UNL     1      29.138  13.534  19.813  1.00  0.00    -0.218 N 
HETATM   14  C6  UNL     1      30.360  14.193  20.131  1.00  0.00     0.141 C 
HETATM   15  C7  UNL     1      30.203  15.570  20.719  1.00  0.00     0.020 C 
HETATM   16  C8  UNL     1      29.043  15.715  21.638  1.00  0.00     0.003 C 
HETATM   17  C9  UNL     1      28.305  14.403  21.864  1.00  0.00     0.020 C 
HETATM   18  C10 UNL     1      27.890  13.924  20.488  1.00  0.00     0.141 C 
HETATM   19  N6  UNL     1      28.126   9.139  20.028  1.00  0.00    -0.226 N 
ATOM     20  H6  UNL     1      28.591   8.246  19.865  1.00  0.00     0.177 HD
HETATM   21  C14 UNL     1      30.743  10.413  21.526  1.00  0.00     0.413 C 
ENDROOT
BRANCH  19  22
HETATM   22  C11 UNL     1      26.782   9.094  20.495  1.00  0.00     0.139 C 
BRANCH  22  23
HETATM   23  C12 UNL     1      26.255   7.699  20.721  1.00  0.00     0.047 C 
BRANCH  23  24
HETATM   24  C13 UNL     1      26.222   7.358  22.203  1.00  0.00     0.231 C 
BRANCH  24  25
HETATM   25  N7  UNL     1      24.834   7.129  22.557  1.00  0.00    -0.079 N 
ATOM     26  H73 UNL     1      24.375   6.446  21.955  1.00  0.00     0.274 HD
ATOM     27  H72 UNL     1      24.723   6.624  23.436  1.00  0.00     0.274 HD
ATOM     28  H71 UNL     1      24.371   8.038  22.556  1.00  0.00     0.274 HD
ENDBRANCH  24  25
ENDBRANCH  23  24
ENDBRANCH  22  23
ENDBRANCH  19  22
TORSDOF 4
ENDMDL
MODEL 3
REMARK VINA RESULT: -5.994720122      1.742      4.500
REMARK  4 active torsions:
REMARK  status: ('A' for Active; 'I' for Inactive)
REMARK       I    between atoms: N2_5  and  C4_6 
REMARK       I    between atoms: C4_6  and  N6_19 
REMARK       I    between atoms: N3_7  and  C5_9 
REMARK       I    between atoms: C5_9  and  N5_13 
REMARK    1  A    between atoms: N6_19  and  C11_21 
REMARK    2  A    between atoms: C11_21  and  C12_22 
REMARK    3  A    between atoms: C12_22  and  C13_23 
REMARK    4  A    between atoms: C13_23  and  N7_24 
ROOT
HETATM    1  C1  UNL     1      27.871  14.578  18.271  1.00  0.00     0.312 C 
HETATM    2  N1  UNL     1      27.564  13.461  19.134  1.00  0.00     0.103 N 
HETATM    3  C2  UNL     1      27.833  13.740  20.523  1.00  0.00     0.294 C 
HETATM    4  C3  UNL     1      28.930  12.738  20.933  1.00  0.00     0.173 C 
HETATM    5  N2  UNL     1      28.589  11.650  20.049  1.00  0.00    -0.189 N 
HETATM    6  C4  UNL     1      28.548  10.273  20.372  1.00  0.00     0.692 C 
HETATM    7  N3  UNL     1      29.635   9.672  20.688  1.00  0.00    -0.023 N 
ATOM      8  H3  UNL     1      29.591   8.680  20.918  1.00  0.00     0.203 HD
HETATM    9  C5  UNL     1      30.882  10.315  20.733  1.00  0.00     0.688 C 
HETATM   10  N4  UNL     1      31.315  10.764  21.854  1.00  0.00    -0.234 N 
ATOM     11  H41 UNL     1      32.221  11.230  21.887  1.00  0.00     0.174 HD
ATOM     12  H42 UNL     1      30.747  10.653  22.694  1.00  0.00     0.174 HD
HETATM   13  N5  UNL     1      31.662  10.467  19.580  1.00  0.00    -0.218 N 
HETATM   14  C6  UNL     1      32.272  11.696  19.200  1.00  0.00     0.141 C 
HETATM   15  C7  UNL     1      33.465  11.558  18.293  1.00  0.00     0.020 C 
HETATM   16  C8  UNL     1      33.347  10.469  17.287  1.00  0.00     0.003 C 
HETATM   17  C9  UNL     1      31.992   9.776  17.329  1.00  0.00     0.020 C 
HETATM   18  C10 UNL     1      31.836   9.266  18.747  1.00  0.00     0.141 C 
HETATM   19  N6  UNL     1      27.307   9.558  20.346  1.00  0.00    -0.226 N 
ATOM     20  H6  UNL     1      26.495  10.026  20.749  1.00  0.00     0.177 HD
HETATM   21  C14 UNL     1      28.286  12.257  18.774  1.00  0.00     0.413 C 
ENDROOT
BRANCH  19  22
HETATM   22  C11 UNL     1      27.103   8.255  19.811  1.00  0.00     0.139 C 
BRANCH  22  23
HETATM   23  C12 UNL     1      26.050   7.450  20.532  1.00  0.00     0.047 C 
BRANCH  23  24
HETATM   24  C13 UNL     1      26.287   7.457  22.034  1.00  0.00     0.231 C 
BRANCH  24  25
HETATM   25  N7  UNL     1      24.984   7.435  22.672  1.00  0.00    -0.079 N 
ATOM     26  H73 UNL     1      24.217   7.318  22.010  1.00  0.00     0.274 HD
ATOM     27  H72 UNL     1      24.819   6.587  23.215  1.00  0.00     0.274 HD
ATOM     28  H71 UNL     1      24.907   8.287  23.226  1.00  0.00     0.274 HD
ENDBRANCH  24  25
ENDBRANCH  23  24
ENDBRANCH  22  23
ENDBRANCH  19  22
TORSDOF 4
ENDMDL
MODEL 4
REMARK VINA RESULT: -5.923983744      1.800      2.274
REMARK  4 active torsions:
REMARK  status: ('A' for Active; 'I' for Inactive)
REMARK       I    between atoms: N2_5  and  C4_6 
REMARK       I    between atoms: C4_6  and  N6_19 
REMARK       I    between atoms: N3_7  and  C5_9 
REMARK       I    between atoms: C5_9  and  N5_13 
REMARK    1  A    between atoms: N6_19  and  C11_21 
REMARK    2  A    between atoms: C11_21  and  C12_22 
REMARK    3  A    between atoms: C12_22  and  C13_23 
REMARK    4  A    between atoms: C13_23  and  N7_24 
ROOT
HETATM    1  C1  UNL     1      32.717  11.169  17.789  1.00  0.00     0.312 C 
HETATM    2  N1  UNL     1      31.452  10.478  17.887  1.00  0.00     0.103 N 
HETATM    3  C2  UNL     1      30.734  10.453  16.637  1.00  0.00     0.294 C 
HETATM    4  C3  UNL     1      29.429  11.231  16.903  1.00  0.00     0.173 C 
HETATM    5  N2  UNL     1      29.263  10.927  18.304  1.00  0.00    -0.189 N 
HETATM    6  C4  UNL     1      28.061  10.573  18.960  1.00  0.00     0.692 C 
HETATM    7  N3  UNL     1      27.114  11.433  19.037  1.00  0.00    -0.023 N 
ATOM      8  H3  UNL     1      26.253  11.165  19.513  1.00  0.00     0.203 HD
HETATM    9  C5  UNL     1      27.205  12.726  18.498  1.00  0.00     0.688 C 
HETATM   10  N4  UNL     1      26.729  12.951  17.328  1.00  0.00    -0.234 N 
ATOM     11  H41 UNL     1      26.795  13.889  16.936  1.00  0.00     0.174 HD
ATOM     12  H42 UNL     1      26.296  12.189  16.806  1.00  0.00     0.174 HD
HETATM   13  N5  UNL     1      27.799  13.772  19.215  1.00  0.00    -0.218 N 
HETATM   14  C6  UNL     1      28.766  14.657  18.658  1.00  0.00     0.141 C 
HETATM   15  C7  UNL     1      28.877  15.989  19.350  1.00  0.00     0.020 C 
HETATM   16  C8  UNL     1      28.721  15.926  20.828  1.00  0.00     0.003 C 
HETATM   17  C9  UNL     1      28.571  14.502  21.342  1.00  0.00     0.020 C 
HETATM   18  C10 UNL     1      27.372  13.927  20.614  1.00  0.00     0.141 C 
HETATM   19  N6  UNL     1      27.903   9.269  19.532  1.00  0.00    -0.226 N 
ATOM     20  H6  UNL     1      28.235   8.478  18.980  1.00  0.00     0.177 HD
HETATM   21  C14 UNL     1      30.577  11.046  18.893  1.00  0.00     0.413 C 
ENDROOT
BRANCH  19  22
HETATM   22  C11 UNL     1      27.325   8.976  20.800  1.00  0.00     0.139 C 
BRANCH  22  23
HETATM   23  C12 UNL     1      26.368   7.810  20.786  1.00  0.00     0.047 C 
BRANCH  23  24
HETATM   24  C13 UNL     1      26.124   7.285  22.192  1.00  0.00     0.231 C 
BRANCH  24  25
HETATM   25  N7  UNL     1      24.700   7.037  22.314  1.00  0.00    -0.079 N 
ATOM     26  H73 UNL     1      24.318   7.328  23.214  1.00  0.00     0.274 HD
ATOM     27  H72 UNL     1      24.135   7.652  21.728  1.00  0.00     0.274 HD
ATOM     28  H71 UNL     1      24.550   6.048  22.117  1.00  0.00     0.274 HD
ENDBRANCH  24  25
ENDBRANCH  23  24
ENDBRANCH  22  23
ENDBRANCH  19  22
TORSDOF 4
ENDMDL
MODEL 5
REMARK VINA RESULT: -5.861056093      2.815      5.626
REMARK  4 active torsions:
REMARK  status: ('A' for Active; 'I' for Inactive)
REMARK       I    between atoms: N2_5  and  C4_6 
REMARK       I    between atoms: C4_6  and  N6_19 
REMARK       I    between atoms: N3_7  and  C5_9 
REMARK       I    between atoms: C5_9  and  N5_13 
REMARK    1  A    between atoms: N6_19  and  C11_21 
REMARK    2  A    between atoms: C11_21  and  C12_22 
REMARK    3  A    between atoms: C12_22  and  C13_23 
REMARK    4  A    between atoms: C13_23  and  N7_24 
ROOT
HETATM    1  C1  UNL     1      33.487  13.109  17.814  1.00  0.00     0.312 C 
HETATM    2  N1  UNL     1      33.107  13.184  19.206  1.00  0.00     0.103 N 
HETATM    3  C2  UNL     1      33.837  12.256  20.033  1.00  0.00     0.294 C 
HETATM    4  C3  UNL     1      32.772  11.304  20.612  1.00  0.00     0.173 C 
HETATM    5  N2  UNL     1      31.652  12.213  20.657  1.00  0.00    -0.189 N 
HETATM    6  C4  UNL     1      30.716  12.357  21.707  1.00  0.00     0.692 C 
HETATM    7  N3  UNL     1      29.932  11.382  21.986  1.00  0.00    -0.023 N 
ATOM      8  H3  UNL     1      29.262  11.499  22.745  1.00  0.00     0.203 HD
HETATM    9  C5  UNL     1      29.953  10.160  21.295  1.00  0.00     0.688 C 
HETATM   10  N4  UNL     1      30.632   9.182  21.773  1.00  0.00    -0.234 N 
ATOM     11  H41 UNL     1      30.647   8.295  21.272  1.00  0.00     0.174 HD
ATOM     12  H42 UNL     1      31.150   9.307  22.643  1.00  0.00     0.174 HD
HETATM   13  N5  UNL     1      29.242   9.988  20.101  1.00  0.00    -0.218 N 
HETATM   14  C6  UNL     1      29.802   9.406  18.929  1.00  0.00     0.141 C 
HETATM   15  C7  UNL     1      28.799   8.818  17.973  1.00  0.00     0.020 C 
HETATM   16  C8  UNL     1      27.533   9.589  17.861  1.00  0.00     0.003 C 
HETATM   17  C9  UNL     1      27.555  10.874  18.677  1.00  0.00     0.020 C 
HETATM   18  C10 UNL     1      27.844  10.449  20.103  1.00  0.00     0.141 C 
HETATM   19  N6  UNL     1      30.644  13.579  22.453  1.00  0.00    -0.226 N 
ATOM     20  H6  UNL     1      31.528  14.009  22.723  1.00  0.00     0.177 HD
HETATM   21  C14 UNL     1      31.692  12.951  19.415  1.00  0.00     0.413 C 
ENDROOT
BRANCH  19  22
HETATM   22  C11 UNL     1      29.451  14.247  22.850  1.00  0.00     0.139 C 
BRANCH  22  23
HETATM   23  C12 UNL     1      28.593  14.712  21.699  1.00  0.00     0.047 C 
BRANCH  23  24
HETATM   24  C13 UNL     1      28.257  16.190  21.829  1.00  0.00     0.231 C 
BRANCH  24  25
HETATM   25  N7  UNL     1      28.669  16.606  23.156  1.00  0.00    -0.079 N 
ATOM     26  H73 UNL     1      27.883  16.776  23.784  1.00  0.00     0.274 HD
ATOM     27  H72 UNL     1      29.105  15.857  23.693  1.00  0.00     0.274 HD
ATOM     28  H71 UNL     1      29.272  17.419  23.041  1.00  0.00     0.274 HD
ENDBRANCH  24  25
ENDBRANCH  23  24
ENDBRANCH  22  23
ENDBRANCH  19  22
TORSDOF 4
ENDMDL
