MODEL 1
REMARK VINA RESULT: -8.024953391      0.000      0.000
REMARK  12 active torsions:
REMARK  status: ('A' for Active; 'I' for Inactive)
REMARK    1  A    between atoms: N2_8  and  C5_9 
REMARK    2  A    between atoms: C5_9  and  O1_10 
REMARK    3  A    between atoms: C5_9  and  N3_12 
REMARK    4  A    between atoms: N3_12  and  C6_14 
REMARK    5  A    between atoms: C6_14  and  C7_15 
REMARK    6  A    between atoms: C7_15  and  C8_16 
REMARK    7  A    between atoms: C8_16  and  C9_17 
REMARK    8  A    between atoms: C9_17  and  C10_18 
REMARK    9  A    between atoms: C10_18  and  C11_19 
REMARK   10  A    between atoms: C16_26  and  C17_27 
REMARK       I    between atoms: C17_27  and  N5_29 
REMARK   11  A    between atoms: N5_29  and  C18_31 
REMARK   12  A    between atoms: C18_31  and  C19_32 
ROOT
HETATM    1  N1  UNL     1       3.629  19.633  17.954  1.00  0.00    -0.400 N 
ATOM      2  H11 UNL     1       3.884  19.988  17.033  1.00  0.00     0.156 HD
ATOM      3  H12 UNL     1       3.924  20.234  18.724  1.00  0.00     0.156 HD
HETATM    4  C1  UNL     1       3.040  18.562  18.074  1.00  0.00     0.035 C 
HETATM    5  C2  UNL     1       2.664  18.038  19.436  1.00  0.00     0.061 C 
HETATM    6  C3  UNL     1       1.295  17.496  19.481  1.00  0.00     0.026 C 
HETATM    7  C4  UNL     1       0.721  16.879  18.223  1.00  0.00     0.133 C 
HETATM    8  N2  UNL     1       1.183  17.698  17.062  1.00  0.00    -0.307 N 
HETATM    9  C16 UNL     1       2.615  17.693  16.961  1.00  0.00     0.128 C 
ENDROOT
BRANCH   8  10
HETATM   10  C5  UNL     1       0.286  18.369  16.245  1.00  0.00     0.219 C 
BRANCH  10  11
HETATM   11  O1  UNL     1       0.563  19.637  16.047  1.00  0.00    -0.332 OA
ATOM     12  H1  UNL     1       0.054  20.054  15.361  1.00  0.00     0.220 HD
ENDBRANCH  10  11
BRANCH  10  13
HETATM   13  N3  UNL     1      -0.862  17.881  15.599  1.00  0.00    -0.356 N 
ATOM     14  H3  UNL     1      -0.756  17.353  14.733  1.00  0.00     0.163 HD
BRANCH  13  15
HETATM   15  C6  UNL     1      -2.185  18.106  16.125  1.00  0.00     0.123 C 
BRANCH  15  16
HETATM   16  C7  UNL     1      -3.013  18.884  15.152  1.00  0.00     0.020 C 
BRANCH  16  17
HETATM   17  C8  UNL     1      -3.426  20.187  15.868  1.00  0.00     0.002 C 
BRANCH  17  18
HETATM   18  C9  UNL     1      -2.469  21.283  15.540  1.00  0.00     0.000 C 
BRANCH  18  19
HETATM   19  C10 UNL     1      -1.974  22.031  16.706  1.00  0.00     0.005 C 
BRANCH  19  20
HETATM   20  C11 UNL     1      -2.722  23.119  17.325  1.00  0.00    -0.012 C 
HETATM   21  C12 UNL     1      -2.137  24.451  17.570  1.00  0.00     0.024 C 
HETATM   22  C13 UNL     1      -0.963  24.421  18.531  1.00  0.00     0.114 C 
HETATM   23  N4  UNL     1      -1.042  23.334  19.448  1.00  0.00    -0.421 N 
HETATM   24  C14 UNL     1      -2.341  22.884  19.803  1.00  0.00     0.114 C 
ATOM     25  H4  UNL     1      -0.204  22.898  19.832  1.00  0.00     0.153 HD
HETATM   26  C15 UNL     1      -3.310  22.677  18.688  1.00  0.00     0.024 C 
ENDBRANCH  19  20
ENDBRANCH  18  19
ENDBRANCH  17  18
ENDBRANCH  16  17
ENDBRANCH  15  16
ENDBRANCH  13  15
ENDBRANCH  10  13
ENDBRANCH   8  10
BRANCH   9  27
HETATM   27  C17 UNL     1       3.274  17.697  15.697  1.00  0.00     0.270 C 
HETATM   28  O2  UNL     1       4.545  17.486  15.685  1.00  0.00    -0.266 OA
HETATM   29  N5  UNL     1       2.706  17.909  14.427  1.00  0.00    -0.355 N 
ATOM     30  H5  UNL     1       1.705  18.091  14.351  1.00  0.00     0.162 HD
BRANCH  29  31
HETATM   31  C18 UNL     1       3.510  17.876  13.230  1.00  0.00     0.127 C 
BRANCH  31  32
HETATM   32  C19 UNL     1       4.127  19.222  12.970  1.00  0.00     0.003 A 
HETATM   33  C20 UNL     1       5.531  19.361  12.551  1.00  0.00     0.007 A 
HETATM   34  C21 UNL     1       4.414  19.546  11.524  1.00  0.00     0.007 A 
ENDBRANCH  31  32
ENDBRANCH  29  31
ENDBRANCH   9  27
TORSDOF 12
ENDMDL
MODEL 2
REMARK VINA RESULT: -7.982090440      1.627      2.239
REMARK  12 active torsions:
REMARK  status: ('A' for Active; 'I' for Inactive)
REMARK    1  A    between atoms: N2_8  and  C5_9 
REMARK    2  A    between atoms: C5_9  and  O1_10 
REMARK    3  A    between atoms: C5_9  and  N3_12 
REMARK    4  A    between atoms: N3_12  and  C6_14 
REMARK    5  A    between atoms: C6_14  and  C7_15 
REMARK    6  A    between atoms: C7_15  and  C8_16 
REMARK    7  A    between atoms: C8_16  and  C9_17 
REMARK    8  A    between atoms: C9_17  and  C10_18 
REMARK    9  A    between atoms: C10_18  and  C11_19 
REMARK   10  A    between atoms: C16_26  and  C17_27 
REMARK       I    between atoms: C17_27  and  N5_29 
REMARK   11  A    between atoms: N5_29  and  C18_31 
REMARK   12  A    between atoms: C18_31  and  C19_32 
ROOT
HETATM    1  N1  UNL     1       3.898  19.596  17.966  1.00  0.00    -0.400 N 
ATOM      2  H11 UNL     1       4.134  19.966  17.046  1.00  0.00     0.156 HD
ATOM      3  H12 UNL     1       4.176  20.202  18.738  1.00  0.00     0.156 HD
HETATM    4  C1  UNL     1       3.348  18.504  18.082  1.00  0.00     0.035 C 
HETATM    5  C2  UNL     1       3.000  17.957  19.443  1.00  0.00     0.061 C 
HETATM    6  C3  UNL     1       1.651  17.367  19.493  1.00  0.00     0.026 C 
HETATM    7  C4  UNL     1       1.091  16.739  18.234  1.00  0.00     0.133 C 
HETATM    8  N2  UNL     1       1.516  17.582  17.076  1.00  0.00    -0.307 N 
HETATM    9  C16 UNL     1       2.946  17.629  16.966  1.00  0.00     0.128 C 
ENDROOT
BRANCH   8  10
HETATM   10  C5  UNL     1       0.591  18.226  16.269  1.00  0.00     0.219 C 
BRANCH  10  11
HETATM   11  O1  UNL     1       0.292  17.593  15.158  1.00  0.00    -0.332 OA
ATOM     12  H1  UNL     1       0.250  16.646  15.237  1.00  0.00     0.220 HD
ENDBRANCH  10  11
BRANCH  10  13
HETATM   13  N3  UNL     1      -0.072  19.447  16.479  1.00  0.00    -0.356 N 
ATOM     14  H3  UNL     1      -0.773  19.753  15.804  1.00  0.00     0.163 HD
BRANCH  13  15
HETATM   15  C6  UNL     1       0.211  20.280  17.621  1.00  0.00     0.123 C 
BRANCH  15  16
HETATM   16  C7  UNL     1      -0.779  20.028  18.713  1.00  0.00     0.020 C 
BRANCH  16  17
HETATM   17  C8  UNL     1      -0.839  21.318  19.558  1.00  0.00     0.002 C 
BRANCH  17  18
HETATM   18  C9  UNL     1      -0.396  22.489  18.747  1.00  0.00     0.000 C 
BRANCH  18  19
HETATM   19  C10 UNL     1      -1.298  23.650  18.807  1.00  0.00     0.005 C 
BRANCH  19  20
HETATM   20  C11 UNL     1      -2.213  23.999  17.727  1.00  0.00    -0.012 C 
HETATM   21  C12 UNL     1      -3.508  24.668  17.964  1.00  0.00     0.024 C 
HETATM   22  C13 UNL     1      -4.464  23.840  18.800  1.00  0.00     0.114 C 
HETATM   23  N4  UNL     1      -4.230  22.442  18.666  1.00  0.00    -0.421 N 
HETATM   24  C14 UNL     1      -3.705  21.994  17.425  1.00  0.00     0.114 C 
ATOM     25  H4  UNL     1      -4.431  21.792  19.425  1.00  0.00     0.153 HD
HETATM   26  C15 UNL     1      -2.551  22.756  16.868  1.00  0.00     0.024 C 
ENDBRANCH  19  20
ENDBRANCH  18  19
ENDBRANCH  17  18
ENDBRANCH  16  17
ENDBRANCH  15  16
ENDBRANCH  13  15
ENDBRANCH  10  13
ENDBRANCH   8  10
BRANCH   9  27
HETATM   27  C17 UNL     1       3.597  17.665  15.698  1.00  0.00     0.270 C 
HETATM   28  O2  UNL     1       3.155  16.879  14.777  1.00  0.00    -0.266 OA
HETATM   29  N5  UNL     1       4.688  18.464  15.309  1.00  0.00    -0.355 N 
ATOM     30  H5  UNL     1       5.101  19.109  15.982  1.00  0.00     0.162 HD
BRANCH  29  31
HETATM   31  C18 UNL     1       5.234  18.391  13.976  1.00  0.00     0.127 C 
BRANCH  31  32
HETATM   32  C19 UNL     1       4.670  19.485  13.112  1.00  0.00     0.003 A 
HETATM   33  C20 UNL     1       5.209  19.769  11.773  1.00  0.00     0.007 A 
HETATM   34  C21 UNL     1       3.876  19.033  11.911  1.00  0.00     0.007 A 
ENDBRANCH  31  32
ENDBRANCH  29  31
ENDBRANCH   9  27
TORSDOF 12
ENDMDL
MODEL 3
REMARK VINA RESULT: -7.887746591      1.853      2.587
REMARK  12 active torsions:
REMARK  status: ('A' for Active; 'I' for Inactive)
REMARK    1  A    between atoms: N2_8  and  C5_9 
REMARK    2  A    between atoms: C5_9  and  O1_10 
REMARK    3  A    between atoms: C5_9  and  N3_12 
REMARK    4  A    between atoms: N3_12  and  C6_14 
REMARK    5  A    between atoms: C6_14  and  C7_15 
REMARK    6  A    between atoms: C7_15  and  C8_16 
REMARK    7  A    between atoms: C8_16  and  C9_17 
REMARK    8  A    between atoms: C9_17  and  C10_18 
REMARK    9  A    between atoms: C10_18  and  C11_19 
REMARK   10  A    between atoms: C16_26  and  C17_27 
REMARK       I    between atoms: C17_27  and  N5_29 
REMARK   11  A    between atoms: N5_29  and  C18_31 
REMARK   12  A    between atoms: C18_31  and  C19_32 
ROOT
HETATM    1  N1  UNL     1       3.422  19.648  18.345  1.00  0.00    -0.400 N 
ATOM      2  H11 UNL     1       3.162  20.214  17.538  1.00  0.00     0.156 HD
ATOM      3  H12 UNL     1       3.996  20.142  19.028  1.00  0.00     0.156 HD
HETATM    4  C1  UNL     1       3.070  18.474  18.429  1.00  0.00     0.035 C 
HETATM    5  C2  UNL     1       3.455  17.638  19.622  1.00  0.00     0.061 C 
HETATM    6  C3  UNL     1       2.339  16.822  20.132  1.00  0.00     0.026 C 
HETATM    7  C4  UNL     1       1.287  16.346  19.153  1.00  0.00     0.133 C 
HETATM    8  N2  UNL     1       1.046  17.446  18.171  1.00  0.00    -0.307 N 
HETATM    9  C16 UNL     1       2.241  17.760  17.440  1.00  0.00     0.128 C 
ENDROOT
BRANCH   8  10
HETATM   10  C5  UNL     1      -0.194  18.055  18.053  1.00  0.00     0.219 C 
BRANCH  10  11
HETATM   11  O1  UNL     1      -1.215  17.231  18.050  1.00  0.00    -0.332 OA
ATOM     12  H1  UNL     1      -1.571  17.032  18.908  1.00  0.00     0.220 HD
ENDBRANCH  10  11
BRANCH  10  13
HETATM   13  N3  UNL     1      -0.505  19.421  17.947  1.00  0.00    -0.356 N 
ATOM     14  H3  UNL     1      -1.019  19.750  17.130  1.00  0.00     0.163 HD
BRANCH  13  15
HETATM   15  C6  UNL     1      -0.118  20.371  18.960  1.00  0.00     0.123 C 
BRANCH  15  16
HETATM   16  C7  UNL     1      -1.263  20.657  19.878  1.00  0.00     0.020 C 
BRANCH  16  17
HETATM   17  C8  UNL     1      -1.313  22.190  20.054  1.00  0.00     0.002 C 
BRANCH  17  18
HETATM   18  C9  UNL     1      -0.529  22.860  18.976  1.00  0.00     0.000 C 
BRANCH  18  19
HETATM   19  C10 UNL     1      -0.979  24.223  18.653  1.00  0.00     0.005 C 
BRANCH  19  20
HETATM   20  C11 UNL     1      -1.829  24.526  17.508  1.00  0.00    -0.012 C 
HETATM   21  C12 UNL     1      -2.696  25.719  17.451  1.00  0.00     0.024 C 
HETATM   22  C13 UNL     1      -3.766  25.732  18.526  1.00  0.00     0.114 C 
HETATM   23  N4  UNL     1      -4.135  24.419  18.938  1.00  0.00    -0.421 N 
HETATM   24  C14 UNL     1      -4.026  23.386  17.971  1.00  0.00     0.114 C 
ATOM     25  H4  UNL     1      -4.462  24.230  19.885  1.00  0.00     0.153 HD
HETATM   26  C15 UNL     1      -2.760  23.332  17.183  1.00  0.00     0.024 C 
ENDBRANCH  19  20
ENDBRANCH  18  19
ENDBRANCH  17  18
ENDBRANCH  16  17
ENDBRANCH  15  16
ENDBRANCH  13  15
ENDBRANCH  10  13
ENDBRANCH   8  10
BRANCH   9  27
HETATM   27  C17 UNL     1       2.199  18.138  16.067  1.00  0.00     0.270 C 
HETATM   28  O2  UNL     1       1.573  19.224  15.764  1.00  0.00    -0.266 OA
HETATM   29  N5  UNL     1       2.763  17.465  14.967  1.00  0.00    -0.355 N 
ATOM     30  H5  UNL     1       3.270  16.594  15.120  1.00  0.00     0.162 HD
BRANCH  29  31
HETATM   31  C18 UNL     1       2.640  17.982  13.626  1.00  0.00     0.127 C 
BRANCH  31  32
HETATM   32  C19 UNL     1       3.989  18.078  12.970  1.00  0.00     0.003 A 
HETATM   33  C20 UNL     1       4.355  19.220  12.117  1.00  0.00     0.007 A 
HETATM   34  C21 UNL     1       4.923  19.121  13.533  1.00  0.00     0.007 A 
ENDBRANCH  31  32
ENDBRANCH  29  31
ENDBRANCH   9  27
TORSDOF 12
ENDMDL
MODEL 4
REMARK VINA RESULT: -7.862093996      1.386      1.809
REMARK  12 active torsions:
REMARK  status: ('A' for Active; 'I' for Inactive)
REMARK    1  A    between atoms: N2_8  and  C5_9 
REMARK    2  A    between atoms: C5_9  and  O1_10 
REMARK    3  A    between atoms: C5_9  and  N3_12 
REMARK    4  A    between atoms: N3_12  and  C6_14 
REMARK    5  A    between atoms: C6_14  and  C7_15 
REMARK    6  A    between atoms: C7_15  and  C8_16 
REMARK    7  A    between atoms: C8_16  and  C9_17 
REMARK    8  A    between atoms: C9_17  and  C10_18 
REMARK    9  A    between atoms: C10_18  and  C11_19 
REMARK   10  A    between atoms: C16_26  and  C17_27 
REMARK       I    between atoms: C17_27  and  N5_29 
REMARK   11  A    between atoms: N5_29  and  C18_31 
REMARK   12  A    between atoms: C18_31  and  C19_32 
ROOT
HETATM    1  N1  UNL     1       4.083  19.276  17.275  1.00  0.00    -0.400 N 
ATOM      2  H11 UNL     1       3.994  19.678  16.343  1.00  0.00     0.156 HD
ATOM      3  H12 UNL     1       4.815  19.704  17.842  1.00  0.00     0.156 HD
HETATM    4  C1  UNL     1       3.363  18.345  17.628  1.00  0.00     0.035 C 
HETATM    5  C2  UNL     1       3.495  17.750  19.007  1.00  0.00     0.061 C 
HETATM    6  C3  UNL     1       2.192  17.505  19.650  1.00  0.00     0.026 C 
HETATM    7  C4  UNL     1       1.003  17.179  18.770  1.00  0.00     0.133 C 
HETATM    8  N2  UNL     1       1.104  18.018  17.538  1.00  0.00    -0.307 N 
HETATM    9  C16 UNL     1       2.305  17.726  16.809  1.00  0.00     0.128 C 
ENDROOT
BRANCH   8  10
HETATM   10  C5  UNL     1       0.134  18.956  17.218  1.00  0.00     0.219 C 
BRANCH  10  11
HETATM   11  O1  UNL     1       0.377  19.649  16.129  1.00  0.00    -0.332 OA
ATOM     12  H1  UNL     1      -0.201  19.459  15.398  1.00  0.00     0.220 HD
ENDBRANCH  10  11
BRANCH  10  13
HETATM   13  N3  UNL     1      -1.064  19.257  17.885  1.00  0.00    -0.356 N 
ATOM     14  H3  UNL     1      -1.032  19.505  18.875  1.00  0.00     0.163 HD
BRANCH  13  15
HETATM   15  C6  UNL     1      -2.339  19.227  17.213  1.00  0.00     0.123 C 
BRANCH  15  16
HETATM   16  C7  UNL     1      -3.442  19.571  18.162  1.00  0.00     0.020 C 
BRANCH  16  17
HETATM   17  C8  UNL     1      -4.176  20.789  17.562  1.00  0.00     0.002 C 
BRANCH  17  18
HETATM   18  C9  UNL     1      -4.320  21.862  18.588  1.00  0.00     0.000 C 
BRANCH  18  19
HETATM   19  C10 UNL     1      -3.871  23.192  18.147  1.00  0.00     0.005 C 
BRANCH  19  20
HETATM   20  C11 UNL     1      -2.694  23.393  17.310  1.00  0.00    -0.012 C 
HETATM   21  C12 UNL     1      -1.392  22.760  17.599  1.00  0.00     0.024 C 
HETATM   22  C13 UNL     1      -0.795  23.199  18.922  1.00  0.00     0.114 C 
HETATM   23  N4  UNL     1      -1.220  24.504  19.302  1.00  0.00    -0.421 N 
HETATM   24  C14 UNL     1      -1.523  25.412  18.254  1.00  0.00     0.114 C 
ATOM     25  H4  UNL     1      -1.303  24.774  20.281  1.00  0.00     0.153 HD
HETATM   26  C15 UNL     1      -2.384  24.901  17.148  1.00  0.00     0.024 C 
ENDBRANCH  19  20
ENDBRANCH  18  19
ENDBRANCH  17  18
ENDBRANCH  16  17
ENDBRANCH  15  16
ENDBRANCH  13  15
ENDBRANCH  10  13
ENDBRANCH   8  10
BRANCH   9  27
HETATM   27  C17 UNL     1       2.337  17.745  15.384  1.00  0.00     0.270 C 
HETATM   28  O2  UNL     1       1.514  16.976  14.757  1.00  0.00    -0.266 OA
HETATM   29  N5  UNL     1       3.171  18.512  14.548  1.00  0.00    -0.355 N 
ATOM     30  H5  UNL     1       3.855  19.142  14.966  1.00  0.00     0.162 HD
BRANCH  29  31
HETATM   31  C18 UNL     1       3.077  18.425  13.112  1.00  0.00     0.127 C 
BRANCH  31  32
HETATM   32  C19 UNL     1       4.445  18.471  12.489  1.00  0.00     0.003 A 
HETATM   33  C20 UNL     1       5.137  19.745  12.233  1.00  0.00     0.007 A 
HETATM   34  C21 UNL     1       5.574  18.869  13.408  1.00  0.00     0.007 A 
ENDBRANCH  31  32
ENDBRANCH  29  31
ENDBRANCH   9  27
TORSDOF 12
ENDMDL
MODEL 5
REMARK VINA RESULT: -7.855592769      1.569      2.169
REMARK  12 active torsions:
REMARK  status: ('A' for Active; 'I' for Inactive)
REMARK    1  A    between atoms: N2_8  and  C5_9 
REMARK    2  A    between atoms: C5_9  and  O1_10 
REMARK    3  A    between atoms: C5_9  and  N3_12 
REMARK    4  A    between atoms: N3_12  and  C6_14 
REMARK    5  A    between atoms: C6_14  and  C7_15 
REMARK    6  A    between atoms: C7_15  and  C8_16 
REMARK    7  A    between atoms: C8_16  and  C9_17 
REMARK    8  A    between atoms: C9_17  and  C10_18 
REMARK    9  A    between atoms: C10_18  and  C11_19 
REMARK   10  A    between atoms: C16_26  and  C17_27 
REMARK       I    between atoms: C17_27  and  N5_29 
REMARK   11  A    between atoms: N5_29  and  C18_31 
REMARK   12  A    between atoms: C18_31  and  C19_32 
ROOT
HETATM    1  N1  UNL     1       2.069  19.153  17.263  1.00  0.00    -0.400 N 
ATOM      2  H11 UNL     1       2.264  19.599  16.367  1.00  0.00     0.156 HD
ATOM      3  H12 UNL     1       2.426  19.668  18.067  1.00  0.00     0.156 HD
HETATM    4  C1  UNL     1       1.473  18.080  17.313  1.00  0.00     0.035 C 
HETATM    5  C2  UNL     1       1.185  17.420  18.637  1.00  0.00     0.061 C 
HETATM    6  C3  UNL     1      -0.185  16.887  18.723  1.00  0.00     0.026 C 
HETATM    7  C4  UNL     1      -0.856  16.409  17.452  1.00  0.00     0.133 C 
HETATM    8  N2  UNL     1      -0.464  17.341  16.352  1.00  0.00    -0.307 N 
HETATM    9  C16 UNL     1       0.957  17.335  16.149  1.00  0.00     0.128 C 
ENDROOT
BRANCH   8  10
HETATM   10  C5  UNL     1      -1.405  18.100  15.675  1.00  0.00     0.219 C 
BRANCH  10  11
HETATM   11  O1  UNL     1      -1.918  17.524  14.612  1.00  0.00    -0.332 OA
ATOM     12  H1  UNL     1      -1.820  18.016  13.805  1.00  0.00     0.220 HD
ENDBRANCH  10  11
BRANCH  10  13
HETATM   13  N3  UNL     1      -1.888  19.386  15.971  1.00  0.00    -0.356 N 
ATOM     14  H3  UNL     1      -1.224  20.155  16.067  1.00  0.00     0.163 HD
BRANCH  13  15
HETATM   15  C6  UNL     1      -3.294  19.650  16.144  1.00  0.00     0.123 C 
BRANCH  15  16
HETATM   16  C7  UNL     1      -3.651  19.673  17.595  1.00  0.00     0.020 C 
BRANCH  16  17
HETATM   17  C8  UNL     1      -4.693  20.797  17.775  1.00  0.00     0.002 C 
BRANCH  17  18
HETATM   18  C9  UNL     1      -4.209  21.796  18.772  1.00  0.00     0.000 C 
BRANCH  18  19
HETATM   19  C10 UNL     1      -3.856  23.106  18.203  1.00  0.00     0.005 C 
BRANCH  19  20
HETATM   20  C11 UNL     1      -2.703  23.306  17.333  1.00  0.00    -0.012 C 
HETATM   21  C12 UNL     1      -1.401  22.652  17.571  1.00  0.00     0.024 C 
HETATM   22  C13 UNL     1      -0.758  23.061  18.883  1.00  0.00     0.114 C 
HETATM   23  N4  UNL     1      -1.155  24.365  19.297  1.00  0.00    -0.421 N 
HETATM   24  C14 UNL     1      -1.478  25.294  18.273  1.00  0.00     0.114 C 
ATOM     25  H4  UNL     1      -1.204  24.619  20.282  1.00  0.00     0.153 HD
HETATM   26  C15 UNL     1      -2.379  24.813  17.187  1.00  0.00     0.024 C 
ENDBRANCH  19  20
ENDBRANCH  18  19
ENDBRANCH  17  18
ENDBRANCH  16  17
ENDBRANCH  15  16
ENDBRANCH  13  15
ENDBRANCH  10  13
ENDBRANCH   8  10
BRANCH   9  27
HETATM   27  C17 UNL     1       1.526  17.465  14.849  1.00  0.00     0.270 C 
HETATM   28  O2  UNL     1       1.056  16.714  13.913  1.00  0.00    -0.266 OA
HETATM   29  N5  UNL     1       2.562  18.327  14.441  1.00  0.00    -0.355 N 
ATOM     30  H5  UNL     1       2.993  18.949  15.124  1.00  0.00     0.162 HD
BRANCH  29  31
HETATM   31  C18 UNL     1       3.027  18.347  13.076  1.00  0.00     0.127 C 
BRANCH  31  32
HETATM   32  C19 UNL     1       4.530  18.370  13.029  1.00  0.00     0.003 A 
HETATM   33  C20 UNL     1       5.274  19.582  12.654  1.00  0.00     0.007 A 
HETATM   34  C21 UNL     1       5.211  19.158  14.122  1.00  0.00     0.007 A 
ENDBRANCH  31  32
ENDBRANCH  29  31
ENDBRANCH   9  27
TORSDOF 12
ENDMDL
