MODEL 1
REMARK VINA RESULT: -8.162369934      0.000      0.000
REMARK  11 active torsions:
REMARK  status: ('A' for Active; 'I' for Inactive)
REMARK    1  A    between atoms: C2_2  and  N1_3 
REMARK    2  A    between atoms: N1_3  and  C4_5 
REMARK    3  A    between atoms: N1_3  and  C14_29 
REMARK    4  A    between atoms: C4_5  and  C5_6 
REMARK    5  A    between atoms: C5_6  and  C6_7 
REMARK    6  A    between atoms: C6_7  and  N2_8 
REMARK       I    between atoms: N2_8  and  C7_10 
REMARK       I    between atoms: C7_10  and  N4_14 
REMARK    7  A    between atoms: N4_14  and  C8_16 
REMARK    8  A    between atoms: C9_19  and  C10_20 
REMARK    9  A    between atoms: C10_20  and  C11_21 
REMARK   10  A    between atoms: C11_21  and  N6_22 
REMARK   11  A    between atoms: C14_29  and  C15_30 
ROOT
HETATM    1  N2  UNL     1       2.327  17.789  17.957  1.00  0.00    -0.226 N 
ATOM      2  H2  UNL     1       2.351  16.853  18.362  1.00  0.00     0.177 HD
HETATM    3  C7  UNL     1       3.399  18.233  17.155  1.00  0.00     0.673 C 
HETATM    4  N3  UNL     1       4.042  19.290  17.420  1.00  0.00    -0.235 N 
ATOM      5  H31 UNL     1       4.818  19.611  16.840  1.00  0.00     0.174 HD
ATOM      6  H32 UNL     1       3.797  19.864  18.227  1.00  0.00     0.174 HD
HETATM    7  N4  UNL     1       3.738  17.441  16.042  1.00  0.00    -0.171 N 
ATOM      8  H4  UNL     1       3.901  16.444  16.181  1.00  0.00     0.186 HD
ENDROOT
BRANCH   1   9
HETATM    9  C6  UNL     1       1.200  18.647  18.207  1.00  0.00     0.139 C 
BRANCH   9  10
HETATM   10  C5  UNL     1       0.155  18.586  17.122  1.00  0.00     0.048 C 
BRANCH  10  11
HETATM   11  C4  UNL     1      -0.320  19.991  16.874  1.00  0.00     0.238 C 
BRANCH  11  12
HETATM   12  N1  UNL     1      -1.750  20.182  17.027  1.00  0.00    -0.071 N 
HETATM   13  C3  UNL     1      -2.232  19.760  18.327  1.00  0.00     0.272 C 
BRANCH  12  14
HETATM   14  C2  UNL     1      -2.398  19.364  16.020  1.00  0.00     0.232 C 
HETATM   15  C1  UNL     1      -3.399  20.102  15.192  1.00  0.00     0.035 C 
ENDBRANCH  12  14
BRANCH  12  16
HETATM   16  C14 UNL     1      -1.992  21.579  16.888  1.00  0.00     0.241 C 
BRANCH  16  17
HETATM   17  C15 UNL     1      -1.959  22.427  18.092  1.00  0.00     0.012 C 
HETATM   18  C16 UNL     1      -0.704  23.178  18.368  1.00  0.00     0.006 C 
HETATM   19  C17 UNL     1      -1.081  24.477  19.097  1.00  0.00     0.000 C 
HETATM   20  C18 UNL     1      -1.568  25.453  18.048  1.00  0.00     0.000 C 
HETATM   21  C19 UNL     1      -2.472  24.657  17.108  1.00  0.00     0.000 C 
HETATM   22  C20 UNL     1      -3.063  23.484  17.896  1.00  0.00     0.006 C 
ENDBRANCH  16  17
ENDBRANCH  12  16
ENDBRANCH  11  12
ENDBRANCH  10  11
ENDBRANCH   9  10
ENDBRANCH   1   9
BRANCH   7  23
HETATM   23  C8  UNL     1       3.852  17.938  14.829  1.00  0.00     0.164 A 
HETATM   24  N5  UNL     1       4.929  18.522  14.302  1.00  0.00    -0.339 N 
HETATM   25  C9  UNL     1       4.867  18.959  13.080  1.00  0.00     0.025 A 
ATOM     26  H5  UNL     1       5.785  18.623  14.848  1.00  0.00     0.168 HD
HETATM   27  C12 UNL     1       3.691  18.793  12.399  1.00  0.00     0.005 A 
HETATM   28  C13 UNL     1       3.369  19.209  10.982  1.00  0.00     0.058 C 
HETATM   29  S1  UNL     1       2.716  18.007  13.561  1.00  0.00    -0.056 SA
BRANCH  25  30
HETATM   30  C10 UNL     1       6.034  19.641  12.379  1.00  0.00     0.085 C 
BRANCH  30  31
HETATM   31  C11 UNL     1       6.056  21.107  12.775  1.00  0.00     0.235 C 
BRANCH  31  32
HETATM   32  N6  UNL     1       6.419  21.893  11.601  1.00  0.00    -0.079 N 
ATOM     33  H63 UNL     1       6.815  22.802  11.844  1.00  0.00     0.274 HD
ATOM     34  H62 UNL     1       7.230  21.515  11.111  1.00  0.00     0.274 HD
ATOM     35  H61 UNL     1       5.598  21.970  11.001  1.00  0.00     0.274 HD
ENDBRANCH  31  32
ENDBRANCH  30  31
ENDBRANCH  25  30
ENDBRANCH   7  23
TORSDOF 11
ENDMDL
MODEL 2
REMARK VINA RESULT: -8.005935853      1.371      1.770
REMARK  11 active torsions:
REMARK  status: ('A' for Active; 'I' for Inactive)
REMARK    1  A    between atoms: C2_2  and  N1_3 
REMARK    2  A    between atoms: N1_3  and  C4_5 
REMARK    3  A    between atoms: N1_3  and  C14_29 
REMARK    4  A    between atoms: C4_5  and  C5_6 
REMARK    5  A    between atoms: C5_6  and  C6_7 
REMARK    6  A    between atoms: C6_7  and  N2_8 
REMARK       I    between atoms: N2_8  and  C7_10 
REMARK       I    between atoms: C7_10  and  N4_14 
REMARK    7  A    between atoms: N4_14  and  C8_16 
REMARK    8  A    between atoms: C9_19  and  C10_20 
REMARK    9  A    between atoms: C10_20  and  C11_21 
REMARK   10  A    between atoms: C11_21  and  N6_22 
REMARK   11  A    between atoms: C14_29  and  C15_30 
ROOT
HETATM    1  N2  UNL     1       2.046  18.178  17.339  1.00  0.00    -0.226 N 
ATOM      2  H2  UNL     1       1.772  17.229  17.593  1.00  0.00     0.177 HD
HETATM    3  C7  UNL     1       3.310  18.412  16.758  1.00  0.00     0.673 C 
HETATM    4  N3  UNL     1       4.143  19.219  17.263  1.00  0.00    -0.235 N 
ATOM      5  H31 UNL     1       5.057  19.387  16.843  1.00  0.00     0.174 HD
ATOM      6  H32 UNL     1       3.920  19.738  18.113  1.00  0.00     0.174 HD
HETATM    7  N4  UNL     1       3.618  17.696  15.587  1.00  0.00    -0.171 N 
ATOM      8  H4  UNL     1       3.505  16.682  15.587  1.00  0.00     0.186 HD
ENDROOT
BRANCH   1   9
HETATM    9  C6  UNL     1       1.141  19.271  17.577  1.00  0.00     0.139 C 
BRANCH   9  10
HETATM   10  C5  UNL     1      -0.271  18.822  17.857  1.00  0.00     0.048 C 
BRANCH  10  11
HETATM   11  C4  UNL     1      -1.146  19.384  16.771  1.00  0.00     0.238 C 
BRANCH  11  12
HETATM   12  N1  UNL     1      -2.382  19.982  17.239  1.00  0.00    -0.071 N 
HETATM   13  C3  UNL     1      -2.619  19.739  18.648  1.00  0.00     0.272 C 
BRANCH  12  14
HETATM   14  C2  UNL     1      -3.462  19.369  16.491  1.00  0.00     0.232 C 
HETATM   15  C1  UNL     1      -3.684  19.973  15.142  1.00  0.00     0.035 C 
ENDBRANCH  12  14
BRANCH  12  16
HETATM   16  C14 UNL     1      -2.256  21.387  17.039  1.00  0.00     0.241 C 
BRANCH  16  17
HETATM   17  C15 UNL     1      -2.074  22.258  18.212  1.00  0.00     0.012 C 
HETATM   18  C16 UNL     1      -0.750  22.917  18.378  1.00  0.00     0.006 C 
HETATM   19  C17 UNL     1      -0.976  24.257  19.096  1.00  0.00     0.000 C 
HETATM   20  C18 UNL     1      -1.463  25.243  18.056  1.00  0.00     0.000 C 
HETATM   21  C19 UNL     1      -2.489  24.496  17.204  1.00  0.00     0.000 C 
HETATM   22  C20 UNL     1      -3.107  23.390  18.065  1.00  0.00     0.006 C 
ENDBRANCH  16  17
ENDBRANCH  12  16
ENDBRANCH  11  12
ENDBRANCH  10  11
ENDBRANCH   9  10
ENDBRANCH   1   9
BRANCH   7  23
HETATM   23  C8  UNL     1       4.046  18.284  14.490  1.00  0.00     0.164 A 
HETATM   24  N5  UNL     1       3.511  18.191  13.272  1.00  0.00    -0.339 N 
HETATM   25  C9  UNL     1       4.066  18.845  12.296  1.00  0.00     0.025 A 
ATOM     26  H5  UNL     1       2.682  17.619  13.110  1.00  0.00     0.168 HD
HETATM   27  C12 UNL     1       5.175  19.597  12.576  1.00  0.00     0.005 A 
HETATM   28  C13 UNL     1       5.993  20.441  11.626  1.00  0.00     0.058 C 
HETATM   29  S1  UNL     1       5.372  19.326  14.251  1.00  0.00    -0.056 SA
BRANCH  25  30
HETATM   30  C10 UNL     1       3.542  18.812  10.866  1.00  0.00     0.085 C 
BRANCH  30  31
HETATM   31  C11 UNL     1       2.997  20.185  10.512  1.00  0.00     0.235 C 
BRANCH  31  32
HETATM   32  N6  UNL     1       1.925  20.015   9.537  1.00  0.00    -0.079 N 
ATOM     33  H63 UNL     1       2.159  19.339   8.810  1.00  0.00     0.274 HD
ATOM     34  H62 UNL     1       1.117  19.529   9.924  1.00  0.00     0.274 HD
ATOM     35  H61 UNL     1       1.688  20.932   9.159  1.00  0.00     0.274 HD
ENDBRANCH  31  32
ENDBRANCH  30  31
ENDBRANCH  25  30
ENDBRANCH   7  23
TORSDOF 11
ENDMDL
MODEL 3
REMARK VINA RESULT: -7.938648893      1.965      2.725
REMARK  11 active torsions:
REMARK  status: ('A' for Active; 'I' for Inactive)
REMARK    1  A    between atoms: C2_2  and  N1_3 
REMARK    2  A    between atoms: N1_3  and  C4_5 
REMARK    3  A    between atoms: N1_3  and  C14_29 
REMARK    4  A    between atoms: C4_5  and  C5_6 
REMARK    5  A    between atoms: C5_6  and  C6_7 
REMARK    6  A    between atoms: C6_7  and  N2_8 
REMARK       I    between atoms: N2_8  and  C7_10 
REMARK       I    between atoms: C7_10  and  N4_14 
REMARK    7  A    between atoms: N4_14  and  C8_16 
REMARK    8  A    between atoms: C9_19  and  C10_20 
REMARK    9  A    between atoms: C10_20  and  C11_21 
REMARK   10  A    between atoms: C11_21  and  N6_22 
REMARK   11  A    between atoms: C14_29  and  C15_30 
ROOT
HETATM    1  N2  UNL     1      -1.033  18.201  17.369  1.00  0.00    -0.226 N 
ATOM      2  H2  UNL     1      -1.965  18.148  16.960  1.00  0.00     0.177 HD
HETATM    3  C7  UNL     1       0.018  17.436  16.821  1.00  0.00     0.673 C 
HETATM    4  N3  UNL     1       0.688  16.620  17.518  1.00  0.00    -0.235 N 
ATOM      5  H31 UNL     1       1.447  16.066  17.122  1.00  0.00     0.174 HD
ATOM      6  H32 UNL     1       0.491  16.494  18.511  1.00  0.00     0.174 HD
HETATM    7  N4  UNL     1       0.289  17.609  15.452  1.00  0.00    -0.171 N 
ATOM      8  H4  UNL     1      -0.478  17.527  14.785  1.00  0.00     0.186 HD
ENDROOT
BRANCH   1   9
HETATM    9  C6  UNL     1      -0.797  19.057  18.501  1.00  0.00     0.139 C 
BRANCH   9  10
HETATM   10  C5  UNL     1      -2.067  19.584  19.121  1.00  0.00     0.048 C 
BRANCH  10  11
HETATM   11  C4  UNL     1      -3.192  19.278  18.172  1.00  0.00     0.238 C 
BRANCH  11  12
HETATM   12  N1  UNL     1      -3.864  20.446  17.633  1.00  0.00    -0.071 N 
HETATM   13  C3  UNL     1      -5.289  20.437  17.896  1.00  0.00     0.272 C 
BRANCH  12  14
HETATM   14  C2  UNL     1      -3.673  20.422  16.197  1.00  0.00     0.232 C 
HETATM   15  C1  UNL     1      -4.042  19.123  15.557  1.00  0.00     0.035 C 
ENDBRANCH  12  14
BRANCH  12  16
HETATM   16  C14 UNL     1      -3.293  21.579  18.281  1.00  0.00     0.241 C 
BRANCH  16  17
HETATM   17  C15 UNL     1      -2.834  22.710  17.457  1.00  0.00     0.012 C 
HETATM   18  C16 UNL     1      -3.263  24.075  17.866  1.00  0.00     0.006 C 
HETATM   19  C17 UNL     1      -2.162  25.063  17.446  1.00  0.00     0.000 C 
HETATM   20  C18 UNL     1      -1.064  24.974  18.483  1.00  0.00     0.000 C 
HETATM   21  C19 UNL     1      -0.871  23.487  18.779  1.00  0.00     0.000 C 
HETATM   22  C20 UNL     1      -1.296  22.697  17.537  1.00  0.00     0.006 C 
ENDBRANCH  16  17
ENDBRANCH  12  16
ENDBRANCH  11  12
ENDBRANCH  10  11
ENDBRANCH   9  10
ENDBRANCH   1   9
BRANCH   7  23
HETATM   23  C8  UNL     1       1.497  17.872  14.998  1.00  0.00     0.164 A 
HETATM   24  N5  UNL     1       1.904  17.811  13.729  1.00  0.00    -0.339 N 
HETATM   25  C9  UNL     1       3.140  18.106  13.457  1.00  0.00     0.025 A 
ATOM     26  H5  UNL     1       1.259  17.538  12.987  1.00  0.00     0.168 HD
HETATM   27  C12 UNL     1       3.958  18.466  14.495  1.00  0.00     0.005 A 
HETATM   28  C13 UNL     1       5.418  18.852  14.440  1.00  0.00     0.058 C 
HETATM   29  S1  UNL     1       2.899  18.361  15.832  1.00  0.00    -0.056 SA
BRANCH  25  30
HETATM   30  C10 UNL     1       3.714  18.071  12.047  1.00  0.00     0.085 C 
BRANCH  30  31
HETATM   31  C11 UNL     1       3.484  19.421  11.390  1.00  0.00     0.235 C 
BRANCH  31  32
HETATM   32  N6  UNL     1       4.628  19.714  10.533  1.00  0.00    -0.079 N 
ATOM     33  H63 UNL     1       4.979  20.664  10.659  1.00  0.00     0.274 HD
ATOM     34  H62 UNL     1       5.470  19.216  10.820  1.00  0.00     0.274 HD
ATOM     35  H61 UNL     1       4.364  19.518   9.568  1.00  0.00     0.274 HD
ENDBRANCH  31  32
ENDBRANCH  30  31
ENDBRANCH  25  30
ENDBRANCH   7  23
TORSDOF 11
ENDMDL
MODEL 4
REMARK VINA RESULT: -7.810174963      2.181      3.037
REMARK  11 active torsions:
REMARK  status: ('A' for Active; 'I' for Inactive)
REMARK    1  A    between atoms: C2_2  and  N1_3 
REMARK    2  A    between atoms: N1_3  and  C4_5 
REMARK    3  A    between atoms: N1_3  and  C14_29 
REMARK    4  A    between atoms: C4_5  and  C5_6 
REMARK    5  A    between atoms: C5_6  and  C6_7 
REMARK    6  A    between atoms: C6_7  and  N2_8 
REMARK       I    between atoms: N2_8  and  C7_10 
REMARK       I    between atoms: C7_10  and  N4_14 
REMARK    7  A    between atoms: N4_14  and  C8_16 
REMARK    8  A    between atoms: C9_19  and  C10_20 
REMARK    9  A    between atoms: C10_20  and  C11_21 
REMARK   10  A    between atoms: C11_21  and  N6_22 
REMARK   11  A    between atoms: C14_29  and  C15_30 
ROOT
HETATM    1  N2  UNL     1      -1.392  17.702  15.461  1.00  0.00    -0.226 N 
ATOM      2  H2  UNL     1      -2.067  17.187  14.897  1.00  0.00     0.177 HD
HETATM    3  C7  UNL     1      -0.070  17.224  15.582  1.00  0.00     0.673 C 
HETATM    4  N3  UNL     1       0.456  16.983  16.707  1.00  0.00    -0.235 N 
ATOM      5  H31 UNL     1       1.412  16.638  16.794  1.00  0.00     0.174 HD
ATOM      6  H32 UNL     1      -0.063  17.136  17.572  1.00  0.00     0.174 HD
HETATM    7  N4  UNL     1       0.646  17.013  14.389  1.00  0.00    -0.171 N 
ATOM      8  H4  UNL     1       0.221  16.446  13.656  1.00  0.00     0.186 HD
ENDROOT
BRANCH   1   9
HETATM    9  C6  UNL     1      -1.793  18.911  16.129  1.00  0.00     0.139 C 
BRANCH   9  10
HETATM   10  C5  UNL     1      -3.080  18.764  16.901  1.00  0.00     0.048 C 
BRANCH  10  11
HETATM   11  C4  UNL     1      -2.836  19.293  18.287  1.00  0.00     0.238 C 
BRANCH  11  12
HETATM   12  N1  UNL     1      -3.771  20.315  18.718  1.00  0.00    -0.071 N 
HETATM   13  C3  UNL     1      -4.471  19.951  19.934  1.00  0.00     0.272 C 
BRANCH  12  14
HETATM   14  C2  UNL     1      -4.753  20.465  17.662  1.00  0.00     0.232 C 
HETATM   15  C1  UNL     1      -6.168  20.401  18.138  1.00  0.00     0.035 C 
ENDBRANCH  12  14
BRANCH  12  16
HETATM   16  C14 UNL     1      -3.004  21.488  18.973  1.00  0.00     0.241 C 
BRANCH  16  17
HETATM   17  C15 UNL     1      -2.801  22.455  17.881  1.00  0.00     0.012 C 
HETATM   18  C16 UNL     1      -3.371  23.818  18.058  1.00  0.00     0.006 C 
HETATM   19  C17 UNL     1      -2.474  24.808  17.300  1.00  0.00     0.000 C 
HETATM   20  C18 UNL     1      -1.268  25.076  18.173  1.00  0.00     0.000 C 
HETATM   21  C19 UNL     1      -0.836  23.723  18.736  1.00  0.00     0.000 C 
HETATM   22  C20 UNL     1      -1.277  22.636  17.751  1.00  0.00     0.006 C 
ENDBRANCH  16  17
ENDBRANCH  12  16
ENDBRANCH  11  12
ENDBRANCH  10  11
ENDBRANCH   9  10
ENDBRANCH   1   9
BRANCH   7  23
HETATM   23  C8  UNL     1       1.843  17.519  14.184  1.00  0.00     0.164 A 
HETATM   24  N5  UNL     1       2.274  18.131  13.080  1.00  0.00    -0.339 N 
HETATM   25  C9  UNL     1       3.496  18.574  13.049  1.00  0.00     0.025 A 
ATOM     26  H5  UNL     1       1.658  18.249  12.276  1.00  0.00     0.168 HD
HETATM   27  C12 UNL     1       4.274  18.387  14.159  1.00  0.00     0.005 A 
HETATM   28  C13 UNL     1       5.711  18.806  14.371  1.00  0.00     0.058 C 
HETATM   29  S1  UNL     1       3.202  17.572  15.211  1.00  0.00    -0.056 SA
BRANCH  25  30
HETATM   30  C10 UNL     1       4.093  19.286  11.843  1.00  0.00     0.085 C 
BRANCH  30  31
HETATM   31  C11 UNL     1       3.284  18.924  10.609  1.00  0.00     0.235 C 
BRANCH  31  32
HETATM   32  N6  UNL     1       2.719  20.149  10.056  1.00  0.00    -0.079 N 
ATOM     33  H63 UNL     1       1.918  19.973   9.449  1.00  0.00     0.274 HD
ATOM     34  H62 UNL     1       2.238  20.712  10.759  1.00  0.00     0.274 HD
ATOM     35  H61 UNL     1       3.464  20.662   9.585  1.00  0.00     0.274 HD
ENDBRANCH  31  32
ENDBRANCH  30  31
ENDBRANCH  25  30
ENDBRANCH   7  23
TORSDOF 11
ENDMDL
MODEL 5
REMARK VINA RESULT: -7.759004921      1.803      2.576
REMARK  11 active torsions:
REMARK  status: ('A' for Active; 'I' for Inactive)
REMARK    1  A    between atoms: C2_2  and  N1_3 
REMARK    2  A    between atoms: N1_3  and  C4_5 
REMARK    3  A    between atoms: N1_3  and  C14_29 
REMARK    4  A    between atoms: C4_5  and  C5_6 
REMARK    5  A    between atoms: C5_6  and  C6_7 
REMARK    6  A    between atoms: C6_7  and  N2_8 
REMARK       I    between atoms: N2_8  and  C7_10 
REMARK       I    between atoms: C7_10  and  N4_14 
REMARK    7  A    between atoms: N4_14  and  C8_16 
REMARK    8  A    between atoms: C9_19  and  C10_20 
REMARK    9  A    between atoms: C10_20  and  C11_21 
REMARK   10  A    between atoms: C11_21  and  N6_22 
REMARK   11  A    between atoms: C14_29  and  C15_30 
ROOT
HETATM    1  N2  UNL     1      -0.627  17.217  15.910  1.00  0.00    -0.226 N 
ATOM      2  H2  UNL     1      -0.688  16.400  16.517  1.00  0.00     0.177 HD
HETATM    3  C7  UNL     1       0.530  18.025  15.937  1.00  0.00     0.673 C 
HETATM    4  N3  UNL     1       0.477  19.266  16.177  1.00  0.00    -0.235 N 
ATOM      5  H31 UNL     1       1.313  19.849  16.197  1.00  0.00     0.174 HD
ATOM      6  H32 UNL     1      -0.416  19.728  16.352  1.00  0.00     0.174 HD
HETATM    7  N4  UNL     1       1.761  17.388  15.696  1.00  0.00    -0.171 N 
ATOM      8  H4  UNL     1       1.999  16.558  16.240  1.00  0.00     0.186 HD
ENDROOT
BRANCH   1   9
HETATM    9  C6  UNL     1      -1.719  17.540  15.032  1.00  0.00     0.139 C 
BRANCH   9  10
HETATM   10  C5  UNL     1      -2.939  18.042  15.763  1.00  0.00     0.048 C 
BRANCH  10  11
HETATM   11  C4  UNL     1      -2.943  19.541  15.656  1.00  0.00     0.238 C 
BRANCH  11  12
HETATM   12  N1  UNL     1      -3.242  20.235  16.894  1.00  0.00    -0.071 N 
HETATM   13  C3  UNL     1      -2.670  19.578  18.052  1.00  0.00     0.272 C 
BRANCH  12  14
HETATM   14  C2  UNL     1      -4.684  20.236  17.045  1.00  0.00     0.232 C 
HETATM   15  C1  UNL     1      -5.148  19.900  18.425  1.00  0.00     0.035 C 
ENDBRANCH  12  14
BRANCH  12  16
HETATM   16  C14 UNL     1      -2.665  21.534  16.782  1.00  0.00     0.241 C 
BRANCH  16  17
HETATM   17  C15 UNL     1      -2.307  22.259  18.013  1.00  0.00     0.012 C 
HETATM   18  C16 UNL     1      -0.913  22.766  18.129  1.00  0.00     0.006 C 
HETATM   19  C17 UNL     1      -0.944  24.043  18.985  1.00  0.00     0.000 C 
HETATM   20  C18 UNL     1      -1.400  25.171  18.086  1.00  0.00     0.000 C 
HETATM   21  C19 UNL     1      -2.559  24.618  17.257  1.00  0.00     0.000 C 
HETATM   22  C20 UNL     1      -3.224  23.495  18.059  1.00  0.00     0.006 C 
ENDBRANCH  16  17
ENDBRANCH  12  16
ENDBRANCH  11  12
ENDBRANCH  10  11
ENDBRANCH   9  10
ENDBRANCH   1   9
BRANCH   7  23
HETATM   23  C8  UNL     1       2.617  17.822  14.796  1.00  0.00     0.164 A 
HETATM   24  N5  UNL     1       2.431  17.877  13.477  1.00  0.00    -0.339 N 
HETATM   25  C9  UNL     1       3.389  18.337  12.730  1.00  0.00     0.025 A 
ATOM     26  H5  UNL     1       1.553  17.564  13.062  1.00  0.00     0.168 HD
HETATM   27  C12 UNL     1       4.543  18.743  13.345  1.00  0.00     0.005 A 
HETATM   28  C13 UNL     1       5.789  19.311  12.706  1.00  0.00     0.058 C 
HETATM   29  S1  UNL     1       4.193  18.440  14.990  1.00  0.00    -0.056 SA
BRANCH  25  30
HETATM   30  C10 UNL     1       3.286  18.445  11.214  1.00  0.00     0.085 C 
BRANCH  30  31
HETATM   31  C11 UNL     1       3.268  19.914  10.827  1.00  0.00     0.235 C 
BRANCH  31  32
HETATM   32  N6  UNL     1       2.309  20.091   9.743  1.00  0.00    -0.079 N 
ATOM     33  H63 UNL     1       2.243  19.270   9.140  1.00  0.00     0.274 HD
ATOM     34  H62 UNL     1       1.343  20.100  10.071  1.00  0.00     0.274 HD
ATOM     35  H61 UNL     1       2.558  20.936   9.230  1.00  0.00     0.274 HD
ENDBRANCH  31  32
ENDBRANCH  30  31
ENDBRANCH  25  30
ENDBRANCH   7  23
TORSDOF 11
ENDMDL
