MODEL 1
REMARK VINA RESULT: -6.310489435      0.000      0.000
REMARK  9 active torsions:
REMARK  status: ('A' for Active; 'I' for Inactive)
REMARK    1  A    between atoms: C2_2  and  C3_3 
REMARK    2  A    between atoms: C3_3  and  C4_4 
REMARK    3  A    between atoms: C4_4  and  C5_5 
REMARK    4  A    between atoms: C8_11  and  C9_12 
REMARK    5  A    between atoms: C9_12  and  C10_13 
REMARK    6  A    between atoms: C13_19  and  C14_20 
REMARK    7  A    between atoms: C14_20  and  C15_21 
REMARK    8  A    between atoms: C15_21  and  C16_22 
REMARK    9  A    between atoms: C19_28  and  C20_29 
ROOT
HETATM    1  C4  UNL     1      -2.889  17.761  16.520  1.00  0.00     0.068 C 
HETATM    2  C7  UNL     1      -2.792  18.639  17.760  1.00  0.00     0.229 C 
HETATM    3  O1  UNL     1      -3.914  19.068  18.209  1.00  0.00    -0.273 OA
HETATM    4  N1  UNL     1      -1.660  19.028  18.457  1.00  0.00    -0.347 N 
ATOM      5  H1  UNL     1      -1.634  18.690  19.418  1.00  0.00     0.163 HD
HETATM    6  C8  UNL     1      -0.509  19.821  18.086  1.00  0.00     0.176 C 
HETATM    7  C12 UNL     1       0.761  19.065  18.242  1.00  0.00     0.241 C 
HETATM    8  O2  UNL     1       1.584  19.336  19.141  1.00  0.00    -0.271 OA
HETATM    9  N2  UNL     1       1.026  17.997  17.325  1.00  0.00    -0.346 N 
ATOM     10  H2  UNL     1       1.268  17.074  17.687  1.00  0.00     0.163 HD
HETATM   11  C13 UNL     1       0.958  18.201  15.911  1.00  0.00     0.176 C 
HETATM   12  C18 UNL     1       0.292  17.078  15.200  1.00  0.00     0.241 C 
HETATM   13  O3  UNL     1       0.979  16.536  14.260  1.00  0.00    -0.271 OA
HETATM   14  N3  UNL     1      -0.978  16.551  15.432  1.00  0.00    -0.350 N 
ATOM     15  H3  UNL     1      -1.344  15.968  14.680  1.00  0.00     0.163 HD
HETATM   16  C19 UNL     1      -1.856  16.701  16.567  1.00  0.00     0.130 C 
ENDROOT
BRANCH   1  17
HETATM   17  C3  UNL     1      -2.843  18.733  15.368  1.00  0.00     0.048 C 
BRANCH  17  18
HETATM   18  C2  UNL     1      -3.364  20.078  15.626  1.00  0.00    -0.036 C 
HETATM   19  C1  UNL     1      -2.587  21.151  15.343  1.00  0.00     0.007 C 
ENDBRANCH  17  18
ENDBRANCH   1  17
BRANCH   1  20
HETATM   20  C5  UNL     1      -4.263  17.107  16.514  1.00  0.00     0.017 C 
HETATM   21  C6  UNL     1      -4.983  17.020  15.222  1.00  0.00     0.006 C 
ENDBRANCH   1  20
BRANCH  16  22
HETATM   22  C20 UNL     1      -2.354  15.302  16.868  1.00  0.00    -0.069 C 
HETATM   23  C21 UNL     1      -2.420  14.382  15.891  1.00  0.00     0.016 C 
HETATM   24  C22 UNL     1      -2.793  14.821  18.191  1.00  0.00     0.044 C 
ENDBRANCH  16  22
BRANCH   6  25
HETATM   25  C9  UNL     1      -0.388  20.985  19.104  1.00  0.00     0.034 C 
BRANCH  25  26
HETATM   26  C10 UNL     1      -1.434  22.025  18.851  1.00  0.00    -0.002 C 
HETATM   27  C11 UNL     1      -0.712  23.341  18.646  1.00  0.00     0.005 C 
ENDBRANCH  25  26
ENDBRANCH   6  25
BRANCH  11  28
HETATM   28  C14 UNL     1       2.242  18.581  15.309  1.00  0.00     0.035 C 
BRANCH  28  29
HETATM   29  C15 UNL     1       3.540  18.172  15.831  1.00  0.00     0.002 C 
BRANCH  29  30
HETATM   30  C16 UNL     1       4.705  18.232  14.916  1.00  0.00    -0.004 C 
HETATM   31  C17 UNL     1       4.248  18.591  13.480  1.00  0.00     0.005 C 
ENDBRANCH  29  30
ENDBRANCH  28  29
ENDBRANCH  11  28
TORSDOF 9
ENDMDL
MODEL 2
REMARK VINA RESULT: -6.164357441      2.326      5.475
REMARK  9 active torsions:
REMARK  status: ('A' for Active; 'I' for Inactive)
REMARK    1  A    between atoms: C2_2  and  C3_3 
REMARK    2  A    between atoms: C3_3  and  C4_4 
REMARK    3  A    between atoms: C4_4  and  C5_5 
REMARK    4  A    between atoms: C8_11  and  C9_12 
REMARK    5  A    between atoms: C9_12  and  C10_13 
REMARK    6  A    between atoms: C13_19  and  C14_20 
REMARK    7  A    between atoms: C14_20  and  C15_21 
REMARK    8  A    between atoms: C15_21  and  C16_22 
REMARK    9  A    between atoms: C19_28  and  C20_29 
ROOT
HETATM    1  C4  UNL     1      -2.144  20.909  17.891  1.00  0.00     0.068 C 
HETATM    2  C7  UNL     1      -1.350  20.684  16.612  1.00  0.00     0.229 C 
HETATM    3  O1  UNL     1      -1.948  21.038  15.534  1.00  0.00    -0.273 OA
HETATM    4  N1  UNL     1      -0.081  20.152  16.465  1.00  0.00    -0.347 N 
ATOM      5  H1  UNL     1       0.594  20.804  16.066  1.00  0.00     0.163 HD
HETATM    6  C8  UNL     1       0.474  18.851  16.766  1.00  0.00     0.176 C 
HETATM    7  C12 UNL     1       1.608  18.937  17.724  1.00  0.00     0.241 C 
HETATM    8  O2  UNL     1       2.786  18.722  17.373  1.00  0.00    -0.271 OA
HETATM    9  N2  UNL     1       1.315  19.282  19.084  1.00  0.00    -0.346 N 
ATOM     10  H2  UNL     1       1.819  20.051  19.525  1.00  0.00     0.163 HD
HETATM   11  C13 UNL     1       0.328  18.568  19.833  1.00  0.00     0.176 C 
HETATM   12  C18 UNL     1      -0.530  19.463  20.654  1.00  0.00     0.241 C 
HETATM   13  O3  UNL     1      -0.568  19.191  21.908  1.00  0.00    -0.271 OA
HETATM   14  N3  UNL     1      -1.289  20.550  20.224  1.00  0.00    -0.350 N 
ATOM     15  H3  UNL     1      -1.998  20.866  20.885  1.00  0.00     0.163 HD
HETATM   16  C19 UNL     1      -1.232  21.298  18.992  1.00  0.00     0.130 C 
ENDROOT
BRANCH   1  17
HETATM   17  C3  UNL     1      -2.947  19.645  18.061  1.00  0.00     0.048 C 
BRANCH  17  18
HETATM   18  C2  UNL     1      -3.287  18.915  16.837  1.00  0.00    -0.036 C 
HETATM   19  C1  UNL     1      -4.590  18.695  16.540  1.00  0.00     0.007 C 
ENDBRANCH  17  18
ENDBRANCH   1  17
BRANCH   1  20
HETATM   20  C5  UNL     1      -3.124  22.045  17.642  1.00  0.00     0.017 C 
HETATM   21  C6  UNL     1      -4.459  21.962  18.282  1.00  0.00     0.006 C 
ENDBRANCH   1  20
BRANCH  16  22
HETATM   22  C20 UNL     1      -1.282  22.753  19.411  1.00  0.00    -0.069 C 
HETATM   23  C21 UNL     1      -1.792  23.097  20.605  1.00  0.00     0.016 C 
HETATM   24  C22 UNL     1      -0.799  23.889  18.603  1.00  0.00     0.044 C 
ENDBRANCH  16  22
BRANCH   6  25
HETATM   25  C9  UNL     1       1.115  18.297  15.467  1.00  0.00     0.034 C 
BRANCH  25  26
HETATM   26  C10 UNL     1       0.487  16.995  15.076  1.00  0.00    -0.002 C 
HETATM   27  C11 UNL     1      -0.515  16.644  16.156  1.00  0.00     0.005 C 
ENDBRANCH  25  26
ENDBRANCH   6  25
BRANCH  11  28
HETATM   28  C14 UNL     1       0.873  17.437  20.594  1.00  0.00     0.035 C 
BRANCH  28  29
HETATM   29  C15 UNL     1       1.060  16.099  20.046  1.00  0.00     0.002 C 
BRANCH  29  30
HETATM   30  C16 UNL     1       2.367  15.436  20.269  1.00  0.00    -0.004 C 
HETATM   31  C17 UNL     1       3.528  16.376  19.862  1.00  0.00     0.005 C 
ENDBRANCH  29  30
ENDBRANCH  28  29
ENDBRANCH  11  28
TORSDOF 9
ENDMDL
MODEL 3
REMARK VINA RESULT: -6.047996873      1.476      1.787
REMARK  9 active torsions:
REMARK  status: ('A' for Active; 'I' for Inactive)
REMARK    1  A    between atoms: C2_2  and  C3_3 
REMARK    2  A    between atoms: C3_3  and  C4_4 
REMARK    3  A    between atoms: C4_4  and  C5_5 
REMARK    4  A    between atoms: C8_11  and  C9_12 
REMARK    5  A    between atoms: C9_12  and  C10_13 
REMARK    6  A    between atoms: C13_19  and  C14_20 
REMARK    7  A    between atoms: C14_20  and  C15_21 
REMARK    8  A    between atoms: C15_21  and  C16_22 
REMARK    9  A    between atoms: C19_28  and  C20_29 
ROOT
HETATM    1  C4  UNL     1      -3.462  17.802  16.002  1.00  0.00     0.068 C 
HETATM    2  C7  UNL     1      -3.425  18.194  17.472  1.00  0.00     0.229 C 
HETATM    3  O1  UNL     1      -4.488  18.766  17.906  1.00  0.00    -0.273 OA
HETATM    4  N1  UNL     1      -2.405  18.012  18.390  1.00  0.00    -0.347 N 
ATOM      5  H1  UNL     1      -2.657  17.404  19.169  1.00  0.00     0.163 HD
HETATM    6  C8  UNL     1      -1.052  18.518  18.459  1.00  0.00     0.176 C 
HETATM    7  C12 UNL     1      -0.049  17.421  18.492  1.00  0.00     0.241 C 
HETATM    8  O2  UNL     1       0.609  17.158  19.520  1.00  0.00    -0.271 OA
HETATM    9  N2  UNL     1       0.149  16.654  17.297  1.00  0.00    -0.346 N 
ATOM     10  H2  UNL     1       0.093  15.637  17.340  1.00  0.00     0.163 HD
HETATM   11  C13 UNL     1       0.424  17.290  16.046  1.00  0.00     0.176 C 
HETATM   12  C18 UNL     1      -0.318  16.677  14.914  1.00  0.00     0.241 C 
HETATM   13  O3  UNL     1       0.406  16.275  13.933  1.00  0.00    -0.271 OA
HETATM   14  N3  UNL     1      -1.695  16.489  14.795  1.00  0.00    -0.350 N 
ATOM     15  H3  UNL     1      -2.020  16.293  13.849  1.00  0.00     0.163 HD
HETATM   16  C19 UNL     1      -2.731  16.529  15.798  1.00  0.00     0.130 C 
ENDROOT
BRANCH   1  17
HETATM   17  C3  UNL     1      -2.957  19.023  15.276  1.00  0.00     0.048 C 
BRANCH  17  18
HETATM   18  C2  UNL     1      -3.070  20.300  15.986  1.00  0.00    -0.036 C 
HETATM   19  C1  UNL     1      -2.515  21.409  15.441  1.00  0.00     0.007 C 
ENDBRANCH  17  18
ENDBRANCH   1  17
BRANCH   1  20
HETATM   20  C5  UNL     1      -4.916  17.601  15.604  1.00  0.00     0.017 C 
HETATM   21  C6  UNL     1      -5.362  18.155  14.304  1.00  0.00     0.006 C 
ENDBRANCH   1  20
BRANCH  16  22
HETATM   22  C20 UNL     1      -3.587  15.309  15.529  1.00  0.00    -0.069 C 
HETATM   23  C21 UNL     1      -3.650  14.784  14.295  1.00  0.00     0.016 C 
HETATM   24  C22 UNL     1      -4.397  14.599  16.537  1.00  0.00     0.044 C 
ENDBRANCH  16  22
BRANCH   6  25
HETATM   25  C9  UNL     1      -0.882  19.230  19.826  1.00  0.00     0.034 C 
BRANCH  25  26
HETATM   26  C10 UNL     1      -1.046  20.711  19.679  1.00  0.00    -0.002 C 
HETATM   27  C11 UNL     1      -0.275  21.123  18.443  1.00  0.00     0.005 C 
ENDBRANCH  25  26
ENDBRANCH   6  25
BRANCH  11  28
HETATM   28  C14 UNL     1       1.857  17.454  15.773  1.00  0.00     0.035 C 
BRANCH  28  29
HETATM   29  C15 UNL     1       2.658  18.572  16.257  1.00  0.00     0.002 C 
BRANCH  29  30
HETATM   30  C16 UNL     1       3.463  18.368  17.485  1.00  0.00    -0.004 C 
HETATM   31  C17 UNL     1       3.078  19.409  18.564  1.00  0.00     0.005 C 
ENDBRANCH  29  30
ENDBRANCH  28  29
ENDBRANCH  11  28
TORSDOF 9
ENDMDL
MODEL 4
REMARK VINA RESULT: -5.995707659      0.999      1.382
REMARK  9 active torsions:
REMARK  status: ('A' for Active; 'I' for Inactive)
REMARK    1  A    between atoms: C2_2  and  C3_3 
REMARK    2  A    between atoms: C3_3  and  C4_4 
REMARK    3  A    between atoms: C4_4  and  C5_5 
REMARK    4  A    between atoms: C8_11  and  C9_12 
REMARK    5  A    between atoms: C9_12  and  C10_13 
REMARK    6  A    between atoms: C13_19  and  C14_20 
REMARK    7  A    between atoms: C14_20  and  C15_21 
REMARK    8  A    between atoms: C15_21  and  C16_22 
REMARK    9  A    between atoms: C19_28  and  C20_29 
ROOT
HETATM    1  C4  UNL     1      -3.272  18.021  16.386  1.00  0.00     0.068 C 
HETATM    2  C7  UNL     1      -3.342  18.841  17.667  1.00  0.00     0.229 C 
HETATM    3  O1  UNL     1      -4.502  19.309  17.947  1.00  0.00    -0.273 OA
HETATM    4  N1  UNL     1      -2.326  19.141  18.558  1.00  0.00    -0.347 N 
ATOM      5  H1  UNL     1      -2.474  18.762  19.494  1.00  0.00     0.163 HD
HETATM    6  C8  UNL     1      -1.095  19.886  18.421  1.00  0.00     0.176 C 
HETATM    7  C12 UNL     1       0.097  19.059  18.746  1.00  0.00     0.241 C 
HETATM    8  O2  UNL     1       0.770  19.248  19.780  1.00  0.00    -0.271 OA
HETATM    9  N2  UNL     1       0.462  18.017  17.832  1.00  0.00    -0.346 N 
ATOM     10  H2  UNL     1       0.599  17.069  18.183  1.00  0.00     0.163 HD
HETATM   11  C13 UNL     1       0.639  18.283  16.438  1.00  0.00     0.176 C 
HETATM   12  C18 UNL     1       0.050  17.227  15.572  1.00  0.00     0.241 C 
HETATM   13  O3  UNL     1       0.859  16.690  14.732  1.00  0.00    -0.271 OA
HETATM   14  N3  UNL     1      -1.263  16.758  15.567  1.00  0.00    -0.350 N 
ATOM     15  H3  UNL     1      -1.525  16.227  14.737  1.00  0.00     0.163 HD
HETATM   16  C19 UNL     1      -2.309  16.907  16.549  1.00  0.00     0.130 C 
ENDROOT
BRANCH   1  17
HETATM   17  C3  UNL     1      -2.991  19.036  15.307  1.00  0.00     0.048 C 
BRANCH  17  18
HETATM   18  C2  UNL     1      -3.361  20.424  15.602  1.00  0.00    -0.036 C 
HETATM   19  C1  UNL     1      -2.462  21.409  15.366  1.00  0.00     0.007 C 
ENDBRANCH  17  18
ENDBRANCH   1  17
BRANCH   1  20
HETATM   20  C5  UNL     1      -4.653  17.442  16.123  1.00  0.00     0.017 C 
HETATM   21  C6  UNL     1      -5.162  17.469  14.731  1.00  0.00     0.006 C 
ENDBRANCH   1  20
BRANCH  16  22
HETATM   22  C20 UNL     1      -2.913  15.525  16.694  1.00  0.00    -0.069 C 
HETATM   23  C21 UNL     1      -2.873  14.657  15.670  1.00  0.00     0.016 C 
HETATM   24  C22 UNL     1      -3.571  15.007  17.908  1.00  0.00     0.044 C 
ENDBRANCH  16  22
BRANCH   6  25
HETATM   25  C9  UNL     1      -1.091  20.999  19.502  1.00  0.00     0.034 C 
BRANCH  25  26
HETATM   26  C10 UNL     1      -1.800  22.222  19.009  1.00  0.00    -0.002 C 
HETATM   27  C11 UNL     1      -0.735  23.244  18.667  1.00  0.00     0.005 C 
ENDBRANCH  25  26
ENDBRANCH   6  25
BRANCH  11  28
HETATM   28  C14 UNL     1       2.021  18.620  16.074  1.00  0.00     0.035 C 
BRANCH  28  29
HETATM   29  C15 UNL     1       3.196  18.060  16.731  1.00  0.00     0.002 C 
BRANCH  29  30
HETATM   30  C16 UNL     1       3.713  18.753  17.935  1.00  0.00    -0.004 C 
HETATM   31  C17 UNL     1       3.887  17.752  19.104  1.00  0.00     0.005 C 
ENDBRANCH  29  30
ENDBRANCH  28  29
ENDBRANCH  11  28
TORSDOF 9
ENDMDL
MODEL 5
REMARK VINA RESULT: -5.989445642      2.193      5.572
REMARK  9 active torsions:
REMARK  status: ('A' for Active; 'I' for Inactive)
REMARK    1  A    between atoms: C2_2  and  C3_3 
REMARK    2  A    between atoms: C3_3  and  C4_4 
REMARK    3  A    between atoms: C4_4  and  C5_5 
REMARK    4  A    between atoms: C8_11  and  C9_12 
REMARK    5  A    between atoms: C9_12  and  C10_13 
REMARK    6  A    between atoms: C13_19  and  C14_20 
REMARK    7  A    between atoms: C14_20  and  C15_21 
REMARK    8  A    between atoms: C15_21  and  C16_22 
REMARK    9  A    between atoms: C19_28  and  C20_29 
ROOT
HETATM    1  C4  UNL     1      -3.195  21.454  19.028  1.00  0.00     0.068 C 
HETATM    2  C7  UNL     1      -4.282  20.926  18.102  1.00  0.00     0.229 C 
HETATM    3  O1  UNL     1      -5.479  21.234  18.443  1.00  0.00    -0.273 OA
HETATM    4  N1  UNL     1      -4.144  20.166  16.953  1.00  0.00    -0.347 N 
ATOM      5  H1  UNL     1      -4.479  20.632  16.110  1.00  0.00     0.163 HD
HETATM    6  C8  UNL     1      -3.619  18.840  16.716  1.00  0.00     0.176 C 
HETATM    7  C12 UNL     1      -2.487  18.854  15.752  1.00  0.00     0.241 C 
HETATM    8  O2  UNL     1      -2.598  18.392  14.597  1.00  0.00    -0.271 OA
HETATM    9  N2  UNL     1      -1.244  19.422  16.182  1.00  0.00    -0.346 N 
ATOM     10  H2  UNL     1      -0.799  20.143  15.613  1.00  0.00     0.163 HD
HETATM   11  C13 UNL     1      -0.615  18.996  17.394  1.00  0.00     0.176 C 
HETATM   12  C18 UNL     1      -0.056  20.128  18.180  1.00  0.00     0.241 C 
HETATM   13  O3  UNL     1       1.192  20.036  18.466  1.00  0.00    -0.271 OA
HETATM   14  N3  UNL     1      -0.722  21.264  18.636  1.00  0.00    -0.350 N 
ATOM     15  H3  UNL     1      -0.233  21.784  19.365  1.00  0.00     0.163 HD
HETATM   16  C19 UNL     1      -1.993  21.821  18.242  1.00  0.00     0.130 C 
ENDROOT
BRANCH   1  17
HETATM   17  C3  UNL     1      -3.044  20.383  20.078  1.00  0.00     0.048 C 
BRANCH  17  18
HETATM   18  C2  UNL     1      -4.158  19.442  20.217  1.00  0.00    -0.036 C 
HETATM   19  C1  UNL     1      -4.678  19.212  21.447  1.00  0.00     0.007 C 
ENDBRANCH  17  18
ENDBRANCH   1  17
BRANCH   1  20
HETATM   20  C5  UNL     1      -3.728  22.700  19.717  1.00  0.00     0.017 C 
HETATM   21  C6  UNL     1      -3.578  22.797  21.188  1.00  0.00     0.006 C 
ENDBRANCH   1  20
BRANCH  16  22
HETATM   22  C20 UNL     1      -1.739  23.305  18.073  1.00  0.00    -0.069 C 
HETATM   23  C21 UNL     1      -0.723  23.896  18.722  1.00  0.00     0.016 C 
HETATM   24  C22 UNL     1      -2.531  24.212  17.223  1.00  0.00     0.044 C 
ENDBRANCH  16  22
BRANCH   6  25
HETATM   25  C9  UNL     1      -4.720  18.015  15.999  1.00  0.00     0.034 C 
BRANCH  25  26
HETATM   26  C10 UNL     1      -5.885  18.883  15.636  1.00  0.00    -0.002 C 
HETATM   27  C11 UNL     1      -6.023  18.832  14.129  1.00  0.00     0.005 C 
ENDBRANCH  25  26
ENDBRANCH   6  25
BRANCH  11  28
HETATM   28  C14 UNL     1       0.342  17.899  17.206  1.00  0.00     0.035 C 
BRANCH  28  29
HETATM   29  C15 UNL     1       0.972  17.577  15.931  1.00  0.00     0.002 C 
BRANCH  29  30
HETATM   30  C16 UNL     1       2.274  18.216  15.620  1.00  0.00    -0.004 C 
HETATM   31  C17 UNL     1       3.027  17.411  14.532  1.00  0.00     0.005 C 
ENDBRANCH  29  30
ENDBRANCH  28  29
ENDBRANCH  11  28
TORSDOF 9
ENDMDL
