MODEL 1
REMARK VINA RESULT: -8.802957741      0.000      0.000
REMARK  9 active torsions:
REMARK  status: ('A' for Active; 'I' for Inactive)
REMARK    1  A    between atoms: C2_2  and  C3_3 
REMARK    2  A    between atoms: C3_3  and  C4_4 
REMARK    3  A    between atoms: C4_4  and  N1_5 
REMARK       I    between atoms: N1_5  and  C5_7 
REMARK    4  A    between atoms: C5_7  and  C6_9 
REMARK    5  A    between atoms: C8_11  and  N2_12 
REMARK       I    between atoms: N2_12  and  C9_14 
REMARK    6  A    between atoms: C9_14  and  C10_16 
REMARK    7  A    between atoms: C10_16  and  N3_19 
REMARK       I    between atoms: N3_19  and  C13_21 
REMARK       I    between atoms: C13_21  and  N4_23 
REMARK    8  A    between atoms: N4_23  and  C14_25 
REMARK    9  A    between atoms: C14_25  and  C15_26 
ROOT
HETATM    1  N2  UNL     1       0.263  17.781  15.538  1.00  0.00    -0.354 N 
ATOM      2  H2  UNL     1       0.130  18.565  14.898  1.00  0.00     0.162 HD
HETATM    3  C9  UNL     1      -0.851  17.178  16.168  1.00  0.00     0.245 C 
HETATM    4  O2  UNL     1      -0.705  16.221  16.952  1.00  0.00    -0.271 OA
ENDROOT
BRANCH   3   5
HETATM    5  C10 UNL     1      -2.207  17.701  15.883  1.00  0.00     0.108 C 
HETATM    6  C11 UNL     1      -2.660  17.069  14.578  1.00  0.00     0.049 C 
HETATM    7  C12 UNL     1      -3.095  17.267  17.034  1.00  0.00     0.049 C 
BRANCH   5   8
HETATM    8  N3  UNL     1      -2.290  19.117  15.754  1.00  0.00    -0.326 N 
HETATM    9  C13 UNL     1      -1.643  19.958  16.697  1.00  0.00     0.317 C 
HETATM   10  O3  UNL     1      -0.987  19.510  17.668  1.00  0.00    -0.247 OA
HETATM   11  N4  UNL     1      -1.736  21.367  16.542  1.00  0.00    -0.343 N 
ATOM     12  H4  UNL     1      -2.257  21.734  15.747  1.00  0.00     0.164 HD
ATOM     13  H3  UNL     1      -2.815  19.529  14.982  1.00  0.00     0.165 HD
BRANCH  11  14
HETATM   14  C14 UNL     1      -1.133  22.296  17.448  1.00  0.00     0.129 C 
BRANCH  14  15
HETATM   15  C15 UNL     1      -2.082  22.751  18.499  1.00  0.00     0.003 C 
HETATM   16  C16 UNL     1      -3.217  23.576  17.902  1.00  0.00     0.006 C 
HETATM   17  C17 UNL     1      -2.656  24.751  17.126  1.00  0.00     0.000 C 
HETATM   18  C18 UNL     1      -1.729  25.575  17.958  1.00  0.00     0.000 C 
HETATM   19  C19 UNL     1      -0.737  24.785  18.756  1.00  0.00     0.000 C 
HETATM   20  C20 UNL     1      -1.334  23.633  19.486  1.00  0.00     0.006 C 
ENDBRANCH  14  15
ENDBRANCH  11  14
ENDBRANCH   5   8
ENDBRANCH   3   5
BRANCH   1  21
HETATM   21  C8  UNL     1       1.592  17.278  15.807  1.00  0.00     0.086 C 
HETATM   22  C7  UNL     1       2.451  17.088  14.572  1.00  0.00     0.039 C 
HETATM   23  C6  UNL     1       3.611  17.625  15.384  1.00  0.00     0.081 C 
HETATM   24  C21 UNL     1       2.586  18.334  16.245  1.00  0.00     0.039 C 
BRANCH  23  25
HETATM   25  C5  UNL     1       4.477  18.585  14.657  1.00  0.00     0.222 C 
HETATM   26  N1  UNL     1       4.463  18.726  13.252  1.00  0.00    -0.361 N 
ATOM     27  H1  UNL     1       3.839  18.154  12.683  1.00  0.00     0.162 HD
HETATM   28  O1  UNL     1       5.252  19.298  15.335  1.00  0.00    -0.273 OA
BRANCH  26  29
HETATM   29  C4  UNL     1       5.340  19.685  12.631  1.00  0.00     0.122 C 
BRANCH  29  30
HETATM   30  C3  UNL     1       4.965  19.979  11.204  1.00  0.00     0.019 C 
BRANCH  30  31
HETATM   31  C2  UNL     1       6.021  20.860  10.575  1.00  0.00    -0.003 C 
HETATM   32  C1  UNL     1       6.624  21.742  11.650  1.00  0.00     0.005 C 
ENDBRANCH  30  31
ENDBRANCH  29  30
ENDBRANCH  26  29
ENDBRANCH  23  25
ENDBRANCH   1  21
TORSDOF 9
ENDMDL
MODEL 2
REMARK VINA RESULT: -8.589572374      0.704      1.091
REMARK  9 active torsions:
REMARK  status: ('A' for Active; 'I' for Inactive)
REMARK    1  A    between atoms: C2_2  and  C3_3 
REMARK    2  A    between atoms: C3_3  and  C4_4 
REMARK    3  A    between atoms: C4_4  and  N1_5 
REMARK       I    between atoms: N1_5  and  C5_7 
REMARK    4  A    between atoms: C5_7  and  C6_9 
REMARK    5  A    between atoms: C8_11  and  N2_12 
REMARK       I    between atoms: N2_12  and  C9_14 
REMARK    6  A    between atoms: C9_14  and  C10_16 
REMARK    7  A    between atoms: C10_16  and  N3_19 
REMARK       I    between atoms: N3_19  and  C13_21 
REMARK       I    between atoms: C13_21  and  N4_23 
REMARK    8  A    between atoms: N4_23  and  C14_25 
REMARK    9  A    between atoms: C14_25  and  C15_26 
ROOT
HETATM    1  N2  UNL     1       0.775  17.744  15.600  1.00  0.00    -0.354 N 
ATOM      2  H2  UNL     1       0.555  18.366  14.822  1.00  0.00     0.162 HD
HETATM    3  C9  UNL     1      -0.264  17.203  16.395  1.00  0.00     0.245 C 
HETATM    4  O2  UNL     1      -0.013  16.444  17.349  1.00  0.00    -0.271 OA
ENDROOT
BRANCH   3   5
HETATM    5  C10 UNL     1      -1.668  17.554  16.078  1.00  0.00     0.108 C 
HETATM    6  C11 UNL     1      -2.024  16.834  14.789  1.00  0.00     0.049 C 
HETATM    7  C12 UNL     1      -2.516  17.055  17.232  1.00  0.00     0.049 C 
BRANCH   5   8
HETATM    8  N3  UNL     1      -1.914  18.947  15.902  1.00  0.00    -0.326 N 
HETATM    9  C13 UNL     1      -1.338  19.890  16.792  1.00  0.00     0.317 C 
HETATM   10  O3  UNL     1      -0.606  19.557  17.755  1.00  0.00    -0.247 OA
HETATM   11  N4  UNL     1      -1.594  21.273  16.592  1.00  0.00    -0.343 N 
ATOM     12  H4  UNL     1      -2.177  21.549  15.802  1.00  0.00     0.164 HD
ATOM     13  H3  UNL     1      -2.506  19.267  15.135  1.00  0.00     0.165 HD
BRANCH  11  14
HETATM   14  C14 UNL     1      -1.072  22.299  17.443  1.00  0.00     0.129 C 
BRANCH  14  15
HETATM   15  C15 UNL     1      -2.053  22.721  18.478  1.00  0.00     0.003 C 
HETATM   16  C16 UNL     1      -3.198  23.521  17.865  1.00  0.00     0.006 C 
HETATM   17  C17 UNL     1      -2.652  24.716  17.108  1.00  0.00     0.000 C 
HETATM   18  C18 UNL     1      -1.763  25.557  17.964  1.00  0.00     0.000 C 
HETATM   19  C19 UNL     1      -0.767  24.787  18.776  1.00  0.00     0.000 C 
HETATM   20  C20 UNL     1      -1.349  23.614  19.486  1.00  0.00     0.006 C 
ENDBRANCH  14  15
ENDBRANCH  11  14
ENDBRANCH   5   8
ENDBRANCH   3   5
BRANCH   1  21
HETATM   21  C8  UNL     1       2.149  17.408  15.899  1.00  0.00     0.086 C 
HETATM   22  C7  UNL     1       3.009  17.149  14.678  1.00  0.00     0.039 C 
HETATM   23  C6  UNL     1       4.120  17.890  15.392  1.00  0.00     0.081 C 
HETATM   24  C21 UNL     1       3.039  18.600  16.182  1.00  0.00     0.039 C 
BRANCH  23  25
HETATM   25  C5  UNL     1       4.881  18.831  14.534  1.00  0.00     0.222 C 
HETATM   26  N1  UNL     1       4.819  18.811  13.124  1.00  0.00    -0.361 N 
ATOM     27  H1  UNL     1       4.233  18.129  12.643  1.00  0.00     0.162 HD
HETATM   28  O1  UNL     1       5.608  19.678  15.102  1.00  0.00    -0.273 OA
BRANCH  26  29
HETATM   29  C4  UNL     1       5.593  19.765  12.371  1.00  0.00     0.122 C 
BRANCH  29  30
HETATM   30  C3  UNL     1       4.970  20.104  11.044  1.00  0.00     0.019 C 
BRANCH  30  31
HETATM   31  C2  UNL     1       3.667  19.353  10.890  1.00  0.00    -0.003 C 
HETATM   32  C1  UNL     1       2.688  20.225  10.129  1.00  0.00     0.005 C 
ENDBRANCH  30  31
ENDBRANCH  29  30
ENDBRANCH  26  29
ENDBRANCH  23  25
ENDBRANCH   1  21
TORSDOF 9
ENDMDL
MODEL 3
REMARK VINA RESULT: -8.271781678      1.019      1.066
REMARK  9 active torsions:
REMARK  status: ('A' for Active; 'I' for Inactive)
REMARK    1  A    between atoms: C2_2  and  C3_3 
REMARK    2  A    between atoms: C3_3  and  C4_4 
REMARK    3  A    between atoms: C4_4  and  N1_5 
REMARK       I    between atoms: N1_5  and  C5_7 
REMARK    4  A    between atoms: C5_7  and  C6_9 
REMARK    5  A    between atoms: C8_11  and  N2_12 
REMARK       I    between atoms: N2_12  and  C9_14 
REMARK    6  A    between atoms: C9_14  and  C10_16 
REMARK    7  A    between atoms: C10_16  and  N3_19 
REMARK       I    between atoms: N3_19  and  C13_21 
REMARK       I    between atoms: C13_21  and  N4_23 
REMARK    8  A    between atoms: N4_23  and  C14_25 
REMARK    9  A    between atoms: C14_25  and  C15_26 
ROOT
HETATM    1  N2  UNL     1       0.427  17.752  16.221  1.00  0.00    -0.354 N 
ATOM      2  H2  UNL     1       0.257  17.896  15.226  1.00  0.00     0.162 HD
HETATM    3  C9  UNL     1      -0.654  17.501  17.100  1.00  0.00     0.245 C 
HETATM    4  O2  UNL     1      -0.462  17.324  18.318  1.00  0.00    -0.271 OA
ENDROOT
BRANCH   3   5
HETATM    5  C10 UNL     1      -2.028  17.450  16.552  1.00  0.00     0.108 C 
HETATM    6  C11 UNL     1      -1.900  17.409  15.039  1.00  0.00     0.049 C 
HETATM    7  C12 UNL     1      -2.663  16.178  17.077  1.00  0.00     0.049 C 
BRANCH   5   8
HETATM    8  N3  UNL     1      -2.858  18.553  16.907  1.00  0.00    -0.326 N 
HETATM    9  C13 UNL     1      -2.356  19.877  16.829  1.00  0.00     0.317 C 
HETATM   10  O3  UNL     1      -1.187  20.139  16.458  1.00  0.00    -0.247 OA
HETATM   11  N4  UNL     1      -3.206  20.960  17.183  1.00  0.00    -0.343 N 
ATOM     12  H4  UNL     1      -4.161  20.751  17.473  1.00  0.00     0.164 HD
ATOM     13  H3  UNL     1      -3.816  18.389  17.218  1.00  0.00     0.165 HD
BRANCH  11  14
HETATM   14  C14 UNL     1      -2.787  22.328  17.153  1.00  0.00     0.129 C 
BRANCH  14  15
HETATM   15  C15 UNL     1      -3.198  23.067  18.375  1.00  0.00     0.003 C 
HETATM   16  C16 UNL     1      -3.476  24.536  18.068  1.00  0.00     0.006 C 
HETATM   17  C17 UNL     1      -2.260  25.173  17.426  1.00  0.00     0.000 C 
HETATM   18  C18 UNL     1      -1.032  24.987  18.254  1.00  0.00     0.000 C 
HETATM   19  C19 UNL     1      -0.839  23.598  18.782  1.00  0.00     0.000 C 
HETATM   20  C20 UNL     1      -2.065  23.010  19.388  1.00  0.00     0.006 C 
ENDBRANCH  14  15
ENDBRANCH  11  14
ENDBRANCH   5   8
ENDBRANCH   3   5
BRANCH   1  21
HETATM   21  C8  UNL     1       1.774  17.802  16.745  1.00  0.00     0.086 C 
HETATM   22  C7  UNL     1       2.806  17.105  15.882  1.00  0.00     0.039 C 
HETATM   23  C6  UNL     1       3.745  18.249  16.205  1.00  0.00     0.081 C 
HETATM   24  C21 UNL     1       2.512  19.093  16.455  1.00  0.00     0.039 C 
BRANCH  23  25
HETATM   25  C5  UNL     1       4.527  18.747  15.048  1.00  0.00     0.222 C 
HETATM   26  N1  UNL     1       4.276  18.346  13.717  1.00  0.00    -0.361 N 
ATOM     27  H1  UNL     1       3.529  17.684  13.510  1.00  0.00     0.162 HD
HETATM   28  O1  UNL     1       5.451  19.561  15.277  1.00  0.00    -0.273 OA
BRANCH  26  29
HETATM   29  C4  UNL     1       5.087  18.883  12.654  1.00  0.00     0.122 C 
BRANCH  29  30
HETATM   30  C3  UNL     1       4.280  19.619  11.620  1.00  0.00     0.019 C 
BRANCH  30  31
HETATM   31  C2  UNL     1       5.209  20.385  10.705  1.00  0.00    -0.003 C 
HETATM   32  C1  UNL     1       6.180  21.183  11.552  1.00  0.00     0.005 C 
ENDBRANCH  30  31
ENDBRANCH  29  30
ENDBRANCH  26  29
ENDBRANCH  23  25
ENDBRANCH   1  21
TORSDOF 9
ENDMDL
MODEL 4
REMARK VINA RESULT: -8.200001140      3.706      5.228
REMARK  9 active torsions:
REMARK  status: ('A' for Active; 'I' for Inactive)
REMARK    1  A    between atoms: C2_2  and  C3_3 
REMARK    2  A    between atoms: C3_3  and  C4_4 
REMARK    3  A    between atoms: C4_4  and  N1_5 
REMARK       I    between atoms: N1_5  and  C5_7 
REMARK    4  A    between atoms: C5_7  and  C6_9 
REMARK    5  A    between atoms: C8_11  and  N2_12 
REMARK       I    between atoms: N2_12  and  C9_14 
REMARK    6  A    between atoms: C9_14  and  C10_16 
REMARK    7  A    between atoms: C10_16  and  N3_19 
REMARK       I    between atoms: N3_19  and  C13_21 
REMARK       I    between atoms: C13_21  and  N4_23 
REMARK    8  A    between atoms: N4_23  and  C14_25 
REMARK    9  A    between atoms: C14_25  and  C15_26 
ROOT
HETATM    1  N2  UNL     1       1.403  17.627  17.736  1.00  0.00    -0.354 N 
ATOM      2  H2  UNL     1       1.764  17.620  16.782  1.00  0.00     0.162 HD
HETATM    3  C9  UNL     1       0.015  17.486  17.974  1.00  0.00     0.245 C 
HETATM    4  O2  UNL     1      -0.441  17.494  19.133  1.00  0.00    -0.271 OA
ENDROOT
BRANCH   3   5
HETATM    5  C10 UNL     1      -0.899  17.328  16.820  1.00  0.00     0.108 C 
HETATM    6  C11 UNL     1      -0.043  17.378  15.566  1.00  0.00     0.049 C 
HETATM    7  C12 UNL     1      -1.565  15.974  16.969  1.00  0.00     0.049 C 
BRANCH   5   8
HETATM    8  N3  UNL     1      -1.914  18.324  16.716  1.00  0.00    -0.326 N 
HETATM    9  C13 UNL     1      -1.580  19.697  16.840  1.00  0.00     0.317 C 
HETATM   10  O3  UNL     1      -0.408  20.095  17.048  1.00  0.00    -0.247 OA
HETATM   11  N4  UNL     1      -2.609  20.671  16.726  1.00  0.00    -0.343 N 
ATOM     12  H4  UNL     1      -3.560  20.351  16.545  1.00  0.00     0.164 HD
ATOM     13  H3  UNL     1      -2.882  18.049  16.551  1.00  0.00     0.165 HD
BRANCH  11  14
HETATM   14  C14 UNL     1      -2.375  22.077  16.854  1.00  0.00     0.129 C 
BRANCH  14  15
HETATM   15  C15 UNL     1      -2.928  22.625  18.120  1.00  0.00     0.003 C 
HETATM   16  C16 UNL     1      -3.405  24.063  17.941  1.00  0.00     0.006 C 
HETATM   17  C17 UNL     1      -2.274  24.927  17.418  1.00  0.00     0.000 C 
HETATM   18  C18 UNL     1      -1.059  24.832  18.281  1.00  0.00     0.000 C 
HETATM   19  C19 UNL     1      -0.684  23.439  18.683  1.00  0.00     0.000 C 
HETATM   20  C20 UNL     1      -1.832  22.627  19.174  1.00  0.00     0.006 C 
ENDBRANCH  14  15
ENDBRANCH  11  14
ENDBRANCH   5   8
ENDBRANCH   3   5
BRANCH   1  21
HETATM   21  C8  UNL     1       2.306  17.780  18.855  1.00  0.00     0.086 C 
HETATM   22  C7  UNL     1       2.588  16.498  19.611  1.00  0.00     0.039 C 
HETATM   23  C6  UNL     1       4.025  16.962  19.720  1.00  0.00     0.081 C 
HETATM   24  C21 UNL     1       3.773  17.796  18.480  1.00  0.00     0.039 C 
BRANCH  23  25
HETATM   25  C5  UNL     1       5.034  15.902  19.474  1.00  0.00     0.222 C 
HETATM   26  N1  UNL     1       4.992  14.638  20.101  1.00  0.00    -0.361 N 
ATOM     27  H1  UNL     1       4.246  14.413  20.760  1.00  0.00     0.162 HD
HETATM   28  O1  UNL     1       5.960  16.156  18.670  1.00  0.00    -0.273 OA
BRANCH  26  29
HETATM   29  C4  UNL     1       6.015  13.669  19.802  1.00  0.00     0.122 C 
BRANCH  29  30
HETATM   30  C3  UNL     1       5.469  12.276  19.642  1.00  0.00     0.019 C 
BRANCH  30  31
HETATM   31  C2  UNL     1       6.550  11.369  19.096  1.00  0.00    -0.003 C 
HETATM   32  C1  UNL     1       6.011  10.648  17.876  1.00  0.00     0.005 C 
ENDBRANCH  30  31
ENDBRANCH  29  30
ENDBRANCH  26  29
ENDBRANCH  23  25
ENDBRANCH   1  21
TORSDOF 9
ENDMDL
MODEL 5
REMARK VINA RESULT: -7.964352299      2.940      3.657
REMARK  9 active torsions:
REMARK  status: ('A' for Active; 'I' for Inactive)
REMARK    1  A    between atoms: C2_2  and  C3_3 
REMARK    2  A    between atoms: C3_3  and  C4_4 
REMARK    3  A    between atoms: C4_4  and  N1_5 
REMARK       I    between atoms: N1_5  and  C5_7 
REMARK    4  A    between atoms: C5_7  and  C6_9 
REMARK    5  A    between atoms: C8_11  and  N2_12 
REMARK       I    between atoms: N2_12  and  C9_14 
REMARK    6  A    between atoms: C9_14  and  C10_16 
REMARK    7  A    between atoms: C10_16  and  N3_19 
REMARK       I    between atoms: N3_19  and  C13_21 
REMARK       I    between atoms: C13_21  and  N4_23 
REMARK    8  A    between atoms: N4_23  and  C14_25 
REMARK    9  A    between atoms: C14_25  and  C15_26 
ROOT
HETATM    1  N2  UNL     1       0.236  18.577  19.442  1.00  0.00    -0.354 N 
ATOM      2  H2  UNL     1       0.742  19.422  19.706  1.00  0.00     0.162 HD
HETATM    3  C9  UNL     1      -0.650  17.961  20.359  1.00  0.00     0.245 C 
HETATM    4  O2  UNL     1      -1.274  16.928  20.052  1.00  0.00    -0.271 OA
ENDROOT
BRANCH   3   5
HETATM    5  C10 UNL     1      -0.830  18.564  21.699  1.00  0.00     0.108 C 
HETATM    6  C11 UNL     1      -2.133  18.020  22.259  1.00  0.00     0.049 C 
HETATM    7  C12 UNL     1       0.350  18.120  22.541  1.00  0.00     0.049 C 
BRANCH   5   8
HETATM    8  N3  UNL     1      -0.889  19.988  21.715  1.00  0.00    -0.326 N 
HETATM    9  C13 UNL     1      -1.693  20.678  20.770  1.00  0.00     0.317 C 
HETATM   10  O3  UNL     1      -2.370  20.088  19.895  1.00  0.00    -0.247 OA
HETATM   11  N4  UNL     1      -1.739  22.098  20.811  1.00  0.00    -0.343 N 
ATOM     12  H4  UNL     1      -1.200  22.580  21.529  1.00  0.00     0.164 HD
ATOM     13  H3  UNL     1      -0.352  20.513  22.406  1.00  0.00     0.165 HD
BRANCH  11  14
HETATM   14  C14 UNL     1      -2.506  22.883  19.893  1.00  0.00     0.129 C 
BRANCH  14  15
HETATM   15  C15 UNL     1      -2.054  22.704  18.487  1.00  0.00     0.003 C 
HETATM   16  C16 UNL     1      -0.738  23.432  18.230  1.00  0.00     0.006 C 
HETATM   17  C17 UNL     1      -0.879  24.901  18.576  1.00  0.00     0.000 C 
HETATM   18  C18 UNL     1      -2.029  25.532  17.863  1.00  0.00     0.000 C 
HETATM   19  C19 UNL     1      -3.295  24.731  17.887  1.00  0.00     0.000 C 
HETATM   20  C20 UNL     1      -3.102  23.293  17.556  1.00  0.00     0.006 C 
ENDBRANCH  14  15
ENDBRANCH  11  14
ENDBRANCH   5   8
ENDBRANCH   3   5
BRANCH   1  21
HETATM   21  C8  UNL     1       0.419  17.998  18.130  1.00  0.00     0.086 C 
HETATM   22  C7  UNL     1       0.856  18.985  17.067  1.00  0.00     0.039 C 
HETATM   23  C6  UNL     1       1.770  17.901  16.537  1.00  0.00     0.081 C 
HETATM   24  C21 UNL     1       1.751  17.305  17.930  1.00  0.00     0.039 C 
BRANCH  23  25
HETATM   25  C5  UNL     1       3.126  18.369  16.158  1.00  0.00     0.222 C 
HETATM   26  N1  UNL     1       3.604  18.355  14.830  1.00  0.00    -0.361 N 
ATOM     27  H1  UNL     1       3.012  18.011  14.073  1.00  0.00     0.162 HD
HETATM   28  O1  UNL     1       3.870  18.795  17.071  1.00  0.00    -0.273 OA
BRANCH  26  29
HETATM   29  C4  UNL     1       4.935  18.831  14.554  1.00  0.00     0.122 C 
BRANCH  29  30
HETATM   30  C3  UNL     1       5.251  18.862  13.083  1.00  0.00     0.019 C 
BRANCH  30  31
HETATM   31  C2  UNL     1       3.981  18.650  12.289  1.00  0.00    -0.003 C 
HETATM   32  C1  UNL     1       3.936  19.664  11.163  1.00  0.00     0.005 C 
ENDBRANCH  30  31
ENDBRANCH  29  30
ENDBRANCH  26  29
ENDBRANCH  23  25
ENDBRANCH   1  21
TORSDOF 9
ENDMDL
