MODEL 1
REMARK VINA RESULT: -8.860729277      0.000      0.000
REMARK  9 active torsions:
REMARK  status: ('A' for Active; 'I' for Inactive)
REMARK    1  A    between atoms: C2_2  and  C4_4 
REMARK    2  A    between atoms: C4_4  and  N1_5 
REMARK    3  A    between atoms: N1_5  and  C5_8 
REMARK    4  A    between atoms: C5_8  and  C6_9 
REMARK    5  A    between atoms: C6_9  and  N2_10 
REMARK       I    between atoms: N2_10  and  C7_12 
REMARK    6  A    between atoms: C7_12  and  C8_14 
REMARK    7  A    between atoms: C8_14  and  N3_15 
REMARK    8  A    between atoms: C8_14  and  C20_31 
REMARK       I    between atoms: N3_15  and  C9_17 
REMARK       I    between atoms: C9_17  and  N4_19 
REMARK    9  A    between atoms: N4_19  and  C10_21 
ROOT
HETATM    1  C8  UNL     1      -0.831  17.210  15.890  1.00  0.00     0.181 C 
ENDROOT
BRANCH   1   2
HETATM    2  C7  UNL     1       0.291  16.970  14.984  1.00  0.00     0.240 C 
HETATM    3  N2  UNL     1       1.533  17.631  15.019  1.00  0.00    -0.358 N 
ATOM      4  H2  UNL     1       1.703  18.343  15.729  1.00  0.00     0.162 HD
HETATM    5  O1  UNL     1       0.138  16.093  14.085  1.00  0.00    -0.271 OA
BRANCH   3   6
HETATM    6  C6  UNL     1       2.566  17.317  14.071  1.00  0.00     0.150 C 
BRANCH   6   7
HETATM    7  C5  UNL     1       3.844  18.094  14.289  1.00  0.00     0.251 C 
BRANCH   7   8
HETATM    8  N1  UNL     1       4.391  18.425  13.001  1.00  0.00    -0.073 N 
ATOM      9  H12 UNL     1       3.643  18.560  12.320  1.00  0.00     0.277 HD
ATOM     10  H11 UNL     1       4.854  17.614  12.591  1.00  0.00     0.277 HD
BRANCH   8  11
HETATM   11  C4  UNL     1       5.269  19.553  13.009  1.00  0.00     0.236 C 
BRANCH  11  12
HETATM   12  C2  UNL     1       5.560  19.960  11.558  1.00  0.00     0.003 C 
HETATM   13  C1  UNL     1       6.205  21.326  11.519  1.00  0.00     0.011 C 
HETATM   14  C3  UNL     1       4.235  19.991  10.846  1.00  0.00     0.011 C 
ENDBRANCH  11  12
ENDBRANCH   8  11
ENDBRANCH   7   8
ENDBRANCH   6   7
ENDBRANCH   3   6
ENDBRANCH   1   2
BRANCH   1  15
HETATM   15  N3  UNL     1      -1.372  18.542  15.688  1.00  0.00    -0.330 N 
HETATM   16  C9  UNL     1      -1.426  19.536  16.700  1.00  0.00     0.317 C 
HETATM   17  O2  UNL     1      -0.973  19.222  17.821  1.00  0.00    -0.247 OA
HETATM   18  N4  UNL     1      -1.957  20.816  16.474  1.00  0.00    -0.334 N 
ATOM     19  H4  UNL     1      -2.308  21.000  15.535  1.00  0.00     0.165 HD
ATOM     20  H3  UNL     1      -1.736  18.778  14.764  1.00  0.00     0.165 HD
BRANCH  18  21
HETATM   21  C10 UNL     1      -2.064  21.883  17.403  1.00  0.00     0.035 C 
HETATM   22  C11 UNL     1      -2.541  23.133  16.709  1.00  0.00     0.035 C 
HETATM   23  C12 UNL     1      -2.646  24.307  17.664  1.00  0.00    -0.012 C 
HETATM   24  C13 UNL     1      -1.293  24.569  18.240  1.00  0.00     0.009 C 
HETATM   25  C17 UNL     1      -3.616  23.962  18.761  1.00  0.00     0.009 C 
HETATM   26  C14 UNL     1      -0.844  23.340  18.991  1.00  0.00    -0.012 C 
HETATM   27  C15 UNL     1      -1.806  22.989  20.105  1.00  0.00     0.009 C 
HETATM   28  C19 UNL     1      -0.732  22.157  18.090  1.00  0.00     0.035 C 
HETATM   29  C16 UNL     1      -3.140  22.709  19.463  1.00  0.00    -0.012 C 
HETATM   30  C18 UNL     1      -3.039  21.554  18.521  1.00  0.00     0.035 C 
ENDBRANCH  18  21
ENDBRANCH   1  15
BRANCH   1  31
HETATM   31  C20 UNL     1      -1.968  16.260  15.821  1.00  0.00     0.009 C 
HETATM   32  C21 UNL     1      -2.389  15.762  17.204  1.00  0.00     0.012 C 
HETATM   33  C22 UNL     1      -3.180  16.707  15.093  1.00  0.00     0.012 C 
ENDBRANCH   1  31
TORSDOF 9
ENDMDL
MODEL 2
REMARK VINA RESULT: -8.842608105      0.056      1.388
REMARK  9 active torsions:
REMARK  status: ('A' for Active; 'I' for Inactive)
REMARK    1  A    between atoms: C2_2  and  C4_4 
REMARK    2  A    between atoms: C4_4  and  N1_5 
REMARK    3  A    between atoms: N1_5  and  C5_8 
REMARK    4  A    between atoms: C5_8  and  C6_9 
REMARK    5  A    between atoms: C6_9  and  N2_10 
REMARK       I    between atoms: N2_10  and  C7_12 
REMARK    6  A    between atoms: C7_12  and  C8_14 
REMARK    7  A    between atoms: C8_14  and  N3_15 
REMARK    8  A    between atoms: C8_14  and  C20_31 
REMARK       I    between atoms: N3_15  and  C9_17 
REMARK       I    between atoms: C9_17  and  N4_19 
REMARK    9  A    between atoms: N4_19  and  C10_21 
ROOT
HETATM    1  C8  UNL     1      -0.823  17.182  15.907  1.00  0.00     0.181 C 
ENDROOT
BRANCH   1   2
HETATM    2  C7  UNL     1       0.300  16.957  14.999  1.00  0.00     0.240 C 
HETATM    3  N2  UNL     1       1.549  17.604  15.058  1.00  0.00    -0.358 N 
ATOM      4  H2  UNL     1       1.723  18.294  15.789  1.00  0.00     0.162 HD
HETATM    5  O1  UNL     1       0.142  16.109  14.073  1.00  0.00    -0.271 OA
BRANCH   3   6
HETATM    6  C6  UNL     1       2.583  17.308  14.105  1.00  0.00     0.150 C 
BRANCH   6   7
HETATM    7  C5  UNL     1       3.851  18.101  14.322  1.00  0.00     0.251 C 
BRANCH   7   8
HETATM    8  N1  UNL     1       4.398  18.430  13.033  1.00  0.00    -0.073 N 
ATOM      9  H12 UNL     1       3.650  18.562  12.351  1.00  0.00     0.277 HD
ATOM     10  H11 UNL     1       4.863  17.619  12.625  1.00  0.00     0.277 HD
BRANCH   8  11
HETATM   11  C4  UNL     1       5.274  19.560  13.039  1.00  0.00     0.236 C 
BRANCH  11  12
HETATM   12  C2  UNL     1       5.560  19.968  11.587  1.00  0.00     0.003 C 
HETATM   13  C1  UNL     1       6.190  21.340  11.546  1.00  0.00     0.011 C 
HETATM   14  C3  UNL     1       4.234  19.985  10.875  1.00  0.00     0.011 C 
ENDBRANCH  11  12
ENDBRANCH   8  11
ENDBRANCH   7   8
ENDBRANCH   6   7
ENDBRANCH   3   6
ENDBRANCH   1   2
BRANCH   1  15
HETATM   15  N3  UNL     1      -1.385  18.505  15.703  1.00  0.00    -0.330 N 
HETATM   16  C9  UNL     1      -1.424  19.511  16.704  1.00  0.00     0.317 C 
HETATM   17  O2  UNL     1      -0.939  19.217  17.816  1.00  0.00    -0.247 OA
HETATM   18  N4  UNL     1      -1.977  20.782  16.477  1.00  0.00    -0.334 N 
ATOM     19  H4  UNL     1      -2.354  20.950  15.544  1.00  0.00     0.165 HD
ATOM     20  H3  UNL     1      -1.776  18.725  14.786  1.00  0.00     0.165 HD
BRANCH  18  21
HETATM   21  C10 UNL     1      -2.072  21.859  17.394  1.00  0.00     0.035 C 
HETATM   22  C11 UNL     1      -3.060  21.531  18.484  1.00  0.00     0.035 C 
HETATM   23  C12 UNL     1      -3.210  22.669  19.476  1.00  0.00    -0.012 C 
HETATM   24  C13 UNL     1      -3.694  23.876  18.740  1.00  0.00     0.009 C 
HETATM   25  C17 UNL     1      -1.872  22.951  20.104  1.00  0.00     0.009 C 
HETATM   26  C14 UNL     1      -2.672  24.243  17.693  1.00  0.00    -0.012 C 
HETATM   27  C15 UNL     1      -1.325  24.540  18.314  1.00  0.00     0.009 C 
HETATM   28  C19 UNL     1      -2.488  23.148  16.697  1.00  0.00     0.035 C 
HETATM   29  C16 UNL     1      -0.876  23.284  19.015  1.00  0.00    -0.012 C 
HETATM   30  C18 UNL     1      -0.730  22.161  18.040  1.00  0.00     0.035 C 
ENDBRANCH  18  21
ENDBRANCH   1  15
BRANCH   1  31
HETATM   31  C20 UNL     1      -1.945  16.215  15.843  1.00  0.00     0.009 C 
HETATM   32  C21 UNL     1      -2.335  15.691  17.226  1.00  0.00     0.012 C 
HETATM   33  C22 UNL     1      -3.176  16.651  15.141  1.00  0.00     0.012 C 
ENDBRANCH   1  31
TORSDOF 9
ENDMDL
MODEL 3
REMARK VINA RESULT: -8.839826543      0.064      1.404
REMARK  9 active torsions:
REMARK  status: ('A' for Active; 'I' for Inactive)
REMARK    1  A    between atoms: C2_2  and  C4_4 
REMARK    2  A    between atoms: C4_4  and  N1_5 
REMARK    3  A    between atoms: N1_5  and  C5_8 
REMARK    4  A    between atoms: C5_8  and  C6_9 
REMARK    5  A    between atoms: C6_9  and  N2_10 
REMARK       I    between atoms: N2_10  and  C7_12 
REMARK    6  A    between atoms: C7_12  and  C8_14 
REMARK    7  A    between atoms: C8_14  and  N3_15 
REMARK    8  A    between atoms: C8_14  and  C20_31 
REMARK       I    between atoms: N3_15  and  C9_17 
REMARK       I    between atoms: C9_17  and  N4_19 
REMARK    9  A    between atoms: N4_19  and  C10_21 
ROOT
HETATM    1  C8  UNL     1      -0.824  17.192  15.906  1.00  0.00     0.181 C 
ENDROOT
BRANCH   1   2
HETATM    2  C7  UNL     1       0.294  16.962  14.992  1.00  0.00     0.240 C 
HETATM    3  N2  UNL     1       1.526  17.643  15.011  1.00  0.00    -0.358 N 
ATOM      4  H2  UNL     1       1.691  18.364  15.713  1.00  0.00     0.162 HD
HETATM    5  O1  UNL     1       0.147  16.076  14.101  1.00  0.00    -0.271 OA
BRANCH   3   6
HETATM    6  C6  UNL     1       2.556  17.338  14.056  1.00  0.00     0.150 C 
BRANCH   6   7
HETATM    7  C5  UNL     1       3.831  18.119  14.272  1.00  0.00     0.251 C 
BRANCH   7   8
HETATM    8  N1  UNL     1       4.394  18.418  12.982  1.00  0.00    -0.073 N 
ATOM      9  H12 UNL     1       3.656  18.535  12.288  1.00  0.00     0.277 HD
ATOM     10  H11 UNL     1       4.865  17.599  12.599  1.00  0.00     0.277 HD
BRANCH   8  11
HETATM   11  C4  UNL     1       5.271  19.548  12.974  1.00  0.00     0.236 C 
BRANCH  11  12
HETATM   12  C2  UNL     1       5.531  19.957  11.517  1.00  0.00     0.003 C 
HETATM   13  C1  UNL     1       6.203  21.309  11.467  1.00  0.00     0.011 C 
HETATM   14  C3  UNL     1       4.188  20.019  10.840  1.00  0.00     0.011 C 
ENDBRANCH  11  12
ENDBRANCH   8  11
ENDBRANCH   7   8
ENDBRANCH   6   7
ENDBRANCH   3   6
ENDBRANCH   1   2
BRANCH   1  15
HETATM   15  N3  UNL     1      -1.393  18.511  15.692  1.00  0.00    -0.330 N 
HETATM   16  C9  UNL     1      -1.444  19.521  16.688  1.00  0.00     0.317 C 
HETATM   17  O2  UNL     1      -0.963  19.236  17.804  1.00  0.00    -0.247 OA
HETATM   18  N4  UNL     1      -2.003  20.788  16.451  1.00  0.00    -0.334 N 
ATOM     19  H4  UNL     1      -2.376  20.949  15.515  1.00  0.00     0.165 HD
ATOM     20  H3  UNL     1      -1.779  18.723  14.772  1.00  0.00     0.165 HD
BRANCH  18  21
HETATM   21  C10 UNL     1      -2.110  21.869  17.362  1.00  0.00     0.035 C 
HETATM   22  C11 UNL     1      -0.779  22.131  18.019  1.00  0.00     0.035 C 
HETATM   23  C12 UNL     1      -0.855  23.268  19.021  1.00  0.00    -0.012 C 
HETATM   24  C13 UNL     1      -1.844  22.899  20.078  1.00  0.00     0.009 C 
HETATM   25  C17 UNL     1      -1.300  24.518  18.312  1.00  0.00     0.009 C 
HETATM   26  C14 UNL     1      -3.192  22.702  19.428  1.00  0.00    -0.012 C 
HETATM   27  C15 UNL     1      -3.655  23.956  18.721  1.00  0.00     0.009 C 
HETATM   28  C19 UNL     1      -3.162  21.594  18.429  1.00  0.00     0.035 C 
HETATM   29  C16 UNL     1      -2.637  24.261  17.653  1.00  0.00    -0.012 C 
HETATM   30  C18 UNL     1      -2.559  23.143  16.665  1.00  0.00     0.035 C 
ENDBRANCH  18  21
ENDBRANCH   1  15
BRANCH   1  31
HETATM   31  C20 UNL     1      -1.942  16.219  15.861  1.00  0.00     0.009 C 
HETATM   32  C21 UNL     1      -2.324  15.713  17.252  1.00  0.00     0.012 C 
HETATM   33  C22 UNL     1      -3.178  16.641  15.158  1.00  0.00     0.012 C 
ENDBRANCH   1  31
TORSDOF 9
ENDMDL
MODEL 4
REMARK VINA RESULT: -8.593551066      0.970      1.882
REMARK  9 active torsions:
REMARK  status: ('A' for Active; 'I' for Inactive)
REMARK    1  A    between atoms: C2_2  and  C4_4 
REMARK    2  A    between atoms: C4_4  and  N1_5 
REMARK    3  A    between atoms: N1_5  and  C5_8 
REMARK    4  A    between atoms: C5_8  and  C6_9 
REMARK    5  A    between atoms: C6_9  and  N2_10 
REMARK       I    between atoms: N2_10  and  C7_12 
REMARK    6  A    between atoms: C7_12  and  C8_14 
REMARK    7  A    between atoms: C8_14  and  N3_15 
REMARK    8  A    between atoms: C8_14  and  C20_31 
REMARK       I    between atoms: N3_15  and  C9_17 
REMARK       I    between atoms: C9_17  and  N4_19 
REMARK    9  A    between atoms: N4_19  and  C10_21 
ROOT
HETATM    1  C8  UNL     1      -1.752  17.285  15.654  1.00  0.00     0.181 C 
ENDROOT
BRANCH   1   2
HETATM    2  C7  UNL     1      -0.340  17.059  15.349  1.00  0.00     0.240 C 
HETATM    3  N2  UNL     1       0.750  17.669  15.998  1.00  0.00    -0.358 N 
ATOM      4  H2  UNL     1       0.578  18.328  16.757  1.00  0.00     0.162 HD
HETATM    5  O1  UNL     1      -0.067  16.248  14.417  1.00  0.00    -0.271 OA
BRANCH   3   6
HETATM    6  C6  UNL     1       2.102  17.377  15.608  1.00  0.00     0.150 C 
BRANCH   6   7
HETATM    7  C5  UNL     1       2.717  18.431  14.718  1.00  0.00     0.251 C 
BRANCH   7   8
HETATM    8  N1  UNL     1       2.388  18.111  13.355  1.00  0.00    -0.073 N 
ATOM      9  H12 UNL     1       1.742  18.801  12.972  1.00  0.00     0.277 HD
ATOM     10  H11 UNL     1       1.799  17.280  13.316  1.00  0.00     0.277 HD
BRANCH   8  11
HETATM   11  C4  UNL     1       3.523  17.961  12.498  1.00  0.00     0.236 C 
BRANCH  11  12
HETATM   12  C2  UNL     1       4.194  19.331  12.326  1.00  0.00     0.003 C 
HETATM   13  C1  UNL     1       4.071  19.795  10.894  1.00  0.00     0.011 C 
HETATM   14  C3  UNL     1       5.644  19.150  12.690  1.00  0.00     0.011 C 
ENDBRANCH  11  12
ENDBRANCH   8  11
ENDBRANCH   7   8
ENDBRANCH   6   7
ENDBRANCH   3   6
ENDBRANCH   1   2
BRANCH   1  15
HETATM   15  N3  UNL     1      -2.092  18.686  15.485  1.00  0.00    -0.330 N 
HETATM   16  C9  UNL     1      -2.013  19.650  16.525  1.00  0.00     0.317 C 
HETATM   17  O2  UNL     1      -1.625  19.245  17.639  1.00  0.00    -0.247 OA
HETATM   18  N4  UNL     1      -2.351  21.000  16.330  1.00  0.00    -0.334 N 
ATOM     19  H4  UNL     1      -2.659  21.257  15.393  1.00  0.00     0.165 HD
ATOM     20  H3  UNL     1      -2.406  18.997  14.565  1.00  0.00     0.165 HD
BRANCH  18  21
HETATM   21  C10 UNL     1      -2.313  22.046  17.287  1.00  0.00     0.035 C 
HETATM   22  C11 UNL     1      -0.953  22.115  17.931  1.00  0.00     0.035 C 
HETATM   23  C12 UNL     1      -0.877  23.208  18.980  1.00  0.00    -0.012 C 
HETATM   24  C13 UNL     1      -1.891  22.918  20.038  1.00  0.00     0.009 C 
HETATM   25  C17 UNL     1      -1.173  24.533  18.331  1.00  0.00     0.009 C 
HETATM   26  C14 UNL     1      -3.260  22.915  19.404  1.00  0.00    -0.012 C 
HETATM   27  C15 UNL     1      -3.574  24.246  18.757  1.00  0.00     0.009 C 
HETATM   28  C19 UNL     1      -3.378  21.857  18.360  1.00  0.00     0.035 C 
HETATM   29  C16 UNL     1      -2.539  24.470  17.685  1.00  0.00    -0.012 C 
HETATM   30  C18 UNL     1      -2.611  23.394  16.651  1.00  0.00     0.035 C 
ENDBRANCH  18  21
ENDBRANCH   1  15
BRANCH   1  31
HETATM   31  C20 UNL     1      -2.742  16.497  14.882  1.00  0.00     0.009 C 
HETATM   32  C21 UNL     1      -3.173  15.228  15.618  1.00  0.00     0.012 C 
HETATM   33  C22 UNL     1      -3.959  17.208  14.419  1.00  0.00     0.012 C 
ENDBRANCH   1  31
TORSDOF 9
ENDMDL
MODEL 5
REMARK VINA RESULT: -8.591578405      1.236      1.626
REMARK  9 active torsions:
REMARK  status: ('A' for Active; 'I' for Inactive)
REMARK    1  A    between atoms: C2_2  and  C4_4 
REMARK    2  A    between atoms: C4_4  and  N1_5 
REMARK    3  A    between atoms: N1_5  and  C5_8 
REMARK    4  A    between atoms: C5_8  and  C6_9 
REMARK    5  A    between atoms: C6_9  and  N2_10 
REMARK       I    between atoms: N2_10  and  C7_12 
REMARK    6  A    between atoms: C7_12  and  C8_14 
REMARK    7  A    between atoms: C8_14  and  N3_15 
REMARK    8  A    between atoms: C8_14  and  C20_31 
REMARK       I    between atoms: N3_15  and  C9_17 
REMARK       I    between atoms: C9_17  and  N4_19 
REMARK    9  A    between atoms: N4_19  and  C10_21 
ROOT
HETATM    1  C8  UNL     1      -1.046  17.210  15.938  1.00  0.00     0.181 C 
ENDROOT
BRANCH   1   2
HETATM    2  C7  UNL     1       0.412  17.186  15.834  1.00  0.00     0.240 C 
HETATM    3  N2  UNL     1       1.316  17.553  16.850  1.00  0.00    -0.358 N 
ATOM      4  H2  UNL     1       0.958  17.863  17.752  1.00  0.00     0.162 HD
HETATM    5  O1  UNL     1       0.913  16.806  14.736  1.00  0.00    -0.271 OA
BRANCH   3   6
HETATM    6  C6  UNL     1       2.735  17.496  16.634  1.00  0.00     0.150 C 
BRANCH   6   7
HETATM    7  C5  UNL     1       3.452  18.780  16.984  1.00  0.00     0.251 C 
BRANCH   7   8
HETATM    8  N1  UNL     1       4.466  19.010  15.991  1.00  0.00    -0.073 N 
ATOM      9  H12 UNL     1       5.393  18.998  16.417  1.00  0.00     0.277 HD
ATOM     10  H11 UNL     1       4.436  19.976  15.667  1.00  0.00     0.277 HD
BRANCH   8  11
HETATM   11  C4  UNL     1       4.415  18.109  14.882  1.00  0.00     0.236 C 
BRANCH  11  12
HETATM   12  C2  UNL     1       4.316  18.928  13.587  1.00  0.00     0.003 C 
HETATM   13  C1  UNL     1       3.347  18.276  12.630  1.00  0.00     0.011 C 
HETATM   14  C3  UNL     1       5.697  18.956  12.989  1.00  0.00     0.011 C 
ENDBRANCH  11  12
ENDBRANCH   8  11
ENDBRANCH   7   8
ENDBRANCH   6   7
ENDBRANCH   3   6
ENDBRANCH   1   2
BRANCH   1  15
HETATM   15  N3  UNL     1      -1.550  18.555  15.722  1.00  0.00    -0.330 N 
HETATM   16  C9  UNL     1      -1.582  19.558  16.726  1.00  0.00     0.317 C 
HETATM   17  O2  UNL     1      -1.145  19.241  17.852  1.00  0.00    -0.247 OA
HETATM   18  N4  UNL     1      -2.078  20.850  16.487  1.00  0.00    -0.334 N 
ATOM     19  H4  UNL     1      -2.417  21.036  15.543  1.00  0.00     0.165 HD
ATOM     20  H3  UNL     1      -1.901  18.793  14.794  1.00  0.00     0.165 HD
BRANCH  18  21
HETATM   21  C10 UNL     1      -2.161  21.927  17.406  1.00  0.00     0.035 C 
HETATM   22  C11 UNL     1      -2.590  23.186  16.698  1.00  0.00     0.035 C 
HETATM   23  C12 UNL     1      -2.669  24.370  17.642  1.00  0.00    -0.012 C 
HETATM   24  C13 UNL     1      -1.315  24.593  18.233  1.00  0.00     0.009 C 
HETATM   25  C17 UNL     1      -3.662  24.064  18.731  1.00  0.00     0.009 C 
HETATM   26  C14 UNL     1      -0.914  23.356  18.999  1.00  0.00    -0.012 C 
HETATM   27  C15 UNL     1      -1.900  23.045  20.103  1.00  0.00     0.009 C 
HETATM   28  C19 UNL     1      -0.829  22.163  18.107  1.00  0.00     0.035 C 
HETATM   29  C16 UNL     1      -3.235  22.803  19.447  1.00  0.00    -0.012 C 
HETATM   30  C18 UNL     1      -3.160  21.637  18.515  1.00  0.00     0.035 C 
ENDBRANCH  18  21
ENDBRANCH   1  15
BRANCH   1  31
HETATM   31  C20 UNL     1      -1.800  16.309  15.034  1.00  0.00     0.009 C 
HETATM   32  C21 UNL     1      -1.836  14.870  15.550  1.00  0.00     0.012 C 
HETATM   33  C22 UNL     1      -3.181  16.714  14.673  1.00  0.00     0.012 C 
ENDBRANCH   1  31
TORSDOF 9
ENDMDL
