MODEL 1
REMARK VINA RESULT: -8.671131275      0.000      0.000
REMARK  13 active torsions:
REMARK  status: ('A' for Active; 'I' for Inactive)
REMARK    1  A    between atoms: C2_2  and  C3_3 
REMARK    2  A    between atoms: C2_2  and  C24_37 
REMARK    3  A    between atoms: C3_3  and  C4_4 
REMARK    4  A    between atoms: C4_4  and  C5_5 
REMARK       I    between atoms: C5_5  and  N1_7 
REMARK    5  A    between atoms: C6_9  and  C7_10 
REMARK    6  A    between atoms: C6_9  and  C12_16 
REMARK    7  A    between atoms: C7_10  and  C8_11 
REMARK    8  A    between atoms: C12_16  and  O3_18 
REMARK    9  A    between atoms: O3_18  and  C13_19 
REMARK   10  A    between atoms: C13_19  and  C14_20 
REMARK   11  A    between atoms: C14_20  and  C15_21 
REMARK   12  A    between atoms: C18_27  and  C19_28 
REMARK   13  A    between atoms: C19_28  and  N2_29 
ROOT
HETATM    1  C5  UNL     1      21.500  33.660  38.746  1.00  0.00     0.231 C 
HETATM    2  O1  UNL     1      21.520  32.659  39.497  1.00  0.00    -0.272 OA
HETATM    3  N1  UNL     1      20.268  34.262  38.445  1.00  0.00    -0.325 N 
ATOM      4  H1  UNL     1      20.177  35.242  38.711  1.00  0.00     0.169 HD
HETATM    5  C6  UNL     1      19.248  33.744  37.881  1.00  0.00     0.092 C 
ENDROOT
BRANCH   5   6
HETATM    6  C7  UNL     1      19.249  32.361  37.453  1.00  0.00     0.109 C 
BRANCH   6   7
HETATM    7  C8  UNL     1      18.681  32.075  36.126  1.00  0.00    -0.012 A 
HETATM    8  C9  UNL     1      17.616  31.342  35.705  1.00  0.00     0.015 A 
HETATM    9  C10 UNL     1      17.383  31.281  34.378  1.00  0.00     0.008 A 
HETATM   10  C11 UNL     1      18.245  31.966  33.561  1.00  0.00     0.050 A 
HETATM   11  S1  UNL     1      19.338  32.663  34.676  1.00  0.00    -0.106 SA
ENDBRANCH   6   7
ENDBRANCH   5   6
BRANCH   5  12
HETATM   12  C12 UNL     1      18.080  34.588  37.691  1.00  0.00     0.306 C 
HETATM   13  O2  UNL     1      18.162  35.814  37.407  1.00  0.00    -0.258 OA
BRANCH  12  14
HETATM   14  O3  UNL     1      16.781  34.096  37.811  1.00  0.00    -0.316 OA
BRANCH  14  15
HETATM   15  C13 UNL     1      16.053  34.274  39.018  1.00  0.00     0.184 C 
BRANCH  15  16
HETATM   16  C14 UNL     1      16.473  33.269  40.032  1.00  0.00     0.074 C 
BRANCH  16  17
HETATM   17  C15 UNL     1      16.494  33.870  41.413  1.00  0.00    -0.003 A 
HETATM   18  S2  UNL     1      17.262  35.331  41.878  1.00  0.00    -0.083 SA
HETATM   19  C16 UNL     1      16.881  35.325  43.533  1.00  0.00     0.091 A 
HETATM   20 BR1  UNL     1      17.339  36.611  44.900  1.00  0.00    -0.040 Br
HETATM   21  C17 UNL     1      16.156  34.170  43.682  1.00  0.00     0.149 A 
HETATM   22  F1  UNL     1      15.668  33.832  44.941  1.00  0.00    -0.203 F 
HETATM   23  C18 UNL     1      15.958  33.420  42.589  1.00  0.00     0.021 A 
BRANCH  23  24
HETATM   24  C19 UNL     1      15.157  32.130  42.599  1.00  0.00     0.272 C 
BRANCH  24  25
HETATM   25  N2  UNL     1      14.344  32.005  43.763  1.00  0.00    -0.075 N 
ATOM     26  H23 UNL     1      13.929  32.900  44.020  1.00  0.00     0.274 HD
ATOM     27  H22 UNL     1      13.492  31.482  43.563  1.00  0.00     0.274 HD
ATOM     28  H21 UNL     1      14.851  31.595  44.548  1.00  0.00     0.274 HD
ENDBRANCH  24  25
ENDBRANCH  23  24
ENDBRANCH  16  17
ENDBRANCH  15  16
ENDBRANCH  14  15
ENDBRANCH  12  14
ENDBRANCH   5  12
BRANCH   1  29
HETATM   29  C4  UNL     1      22.806  34.166  38.200  1.00  0.00     0.042 C 
HETATM   30  C20 UNL     1      23.450  33.004  37.383  1.00  0.00     0.019 C 
HETATM   31  C21 UNL     1      22.969  33.129  35.988  1.00  0.00     0.001 C 
HETATM   32  C22 UNL     1      22.566  34.549  35.800  1.00  0.00     0.001 C 
HETATM   33  C23 UNL     1      22.529  35.195  37.173  1.00  0.00     0.019 C 
BRANCH  29  34
HETATM   34  C3  UNL     1      23.808  34.473  39.240  1.00  0.00     0.034 C 
BRANCH  34  35
HETATM   35  C2  UNL     1      24.424  35.813  39.326  1.00  0.00     0.084 C 
HETATM   36  C1  UNL     1      24.186  36.262  40.804  1.00  0.00     0.021 C 
BRANCH  35  37
HETATM   37  C24 UNL     1      25.889  35.840  39.166  1.00  0.00     0.176 C 
HETATM   38  O4  UNL     1      26.484  34.762  38.817  1.00  0.00    -0.648 OA
HETATM   39  O5  UNL     1      26.682  36.968  39.370  1.00  0.00    -0.648 OA
ENDBRANCH  35  37
ENDBRANCH  34  35
ENDBRANCH  29  34
ENDBRANCH   1  29
TORSDOF 13
ENDMDL
MODEL 2
REMARK VINA RESULT: -8.493656726      4.064      8.074
REMARK  13 active torsions:
REMARK  status: ('A' for Active; 'I' for Inactive)
REMARK    1  A    between atoms: C2_2  and  C3_3 
REMARK    2  A    between atoms: C2_2  and  C24_37 
REMARK    3  A    between atoms: C3_3  and  C4_4 
REMARK    4  A    between atoms: C4_4  and  C5_5 
REMARK       I    between atoms: C5_5  and  N1_7 
REMARK    5  A    between atoms: C6_9  and  C7_10 
REMARK    6  A    between atoms: C6_9  and  C12_16 
REMARK    7  A    between atoms: C7_10  and  C8_11 
REMARK    8  A    between atoms: C12_16  and  O3_18 
REMARK    9  A    between atoms: O3_18  and  C13_19 
REMARK   10  A    between atoms: C13_19  and  C14_20 
REMARK   11  A    between atoms: C14_20  and  C15_21 
REMARK   12  A    between atoms: C18_27  and  C19_28 
REMARK   13  A    between atoms: C19_28  and  N2_29 
ROOT
HETATM    1  C5  UNL     1      17.820  34.986  40.715  1.00  0.00     0.231 C 
HETATM    2  O1  UNL     1      17.687  36.188  40.393  1.00  0.00    -0.272 OA
HETATM    3  N1  UNL     1      18.958  34.287  40.282  1.00  0.00    -0.325 N 
ATOM      4  H1  UNL     1      19.546  33.898  41.019  1.00  0.00     0.169 HD
HETATM    5  C6  UNL     1      19.353  34.074  39.088  1.00  0.00     0.092 C 
ENDROOT
BRANCH   5   6
HETATM    6  C7  UNL     1      18.607  34.572  37.951  1.00  0.00     0.109 C 
BRANCH   6   7
HETATM    7  C8  UNL     1      18.004  33.567  37.060  1.00  0.00    -0.012 A 
HETATM    8  C9  UNL     1      17.166  32.517  37.270  1.00  0.00     0.015 A 
HETATM    9  C10 UNL     1      16.813  31.774  36.201  1.00  0.00     0.008 A 
HETATM   10  C11 UNL     1      17.331  32.143  34.986  1.00  0.00     0.050 A 
HETATM   11  S1  UNL     1      18.284  33.505  35.388  1.00  0.00    -0.106 SA
ENDBRANCH   6   7
ENDBRANCH   5   6
BRANCH   5  12
HETATM   12  C12 UNL     1      20.583  33.321  38.907  1.00  0.00     0.306 C 
HETATM   13  O2  UNL     1      21.421  33.149  39.833  1.00  0.00    -0.258 OA
BRANCH  12  14
HETATM   14  O3  UNL     1      20.922  32.735  37.688  1.00  0.00    -0.316 OA
BRANCH  14  15
HETATM   15  C13 UNL     1      22.286  32.525  37.346  1.00  0.00     0.184 C 
BRANCH  15  16
HETATM   16  C14 UNL     1      22.850  33.736  36.692  1.00  0.00     0.074 C 
BRANCH  16  17
HETATM   17  C15 UNL     1      24.245  34.017  37.185  1.00  0.00    -0.003 A 
HETATM   18  S2  UNL     1      25.696  33.314  36.599  1.00  0.00    -0.083 SA
HETATM   19  C16 UNL     1      26.806  34.079  37.631  1.00  0.00     0.091 A 
HETATM   20 BR1  UNL     1      28.728  33.900  37.709  1.00  0.00    -0.040 Br
HETATM   21  C17 UNL     1      26.008  34.872  38.415  1.00  0.00     0.149 A 
HETATM   22  F1  UNL     1      26.595  35.663  39.399  1.00  0.00    -0.203 F 
HETATM   23  C18 UNL     1      24.689  34.840  38.185  1.00  0.00     0.021 A 
BRANCH  23  24
HETATM   24  C19 UNL     1      23.688  35.680  38.959  1.00  0.00     0.272 C 
BRANCH  24  25
HETATM   25  N2  UNL     1      23.482  35.194  40.284  1.00  0.00    -0.075 N 
ATOM     26  H23 UNL     1      22.690  34.552  40.322  1.00  0.00     0.274 HD
ATOM     27  H22 UNL     1      24.224  34.552  40.560  1.00  0.00     0.274 HD
ATOM     28  H21 UNL     1      23.377  35.949  40.962  1.00  0.00     0.274 HD
ENDBRANCH  24  25
ENDBRANCH  23  24
ENDBRANCH  16  17
ENDBRANCH  15  16
ENDBRANCH  14  15
ENDBRANCH  12  14
ENDBRANCH   5  12
BRANCH   1  29
HETATM   29  C4  UNL     1      16.746  34.349  41.551  1.00  0.00     0.042 C 
HETATM   30  C20 UNL     1      15.388  34.996  41.136  1.00  0.00     0.019 C 
HETATM   31  C21 UNL     1      14.833  34.179  40.033  1.00  0.00     0.001 C 
HETATM   32  C22 UNL     1      15.448  32.829  40.148  1.00  0.00     0.001 C 
HETATM   33  C23 UNL     1      16.592  32.936  41.139  1.00  0.00     0.019 C 
BRANCH  29  34
HETATM   34  C3  UNL     1      16.858  34.645  42.993  1.00  0.00     0.034 C 
BRANCH  34  35
HETATM   35  C2  UNL     1      15.883  35.528  43.663  1.00  0.00     0.084 C 
HETATM   36  C1  UNL     1      15.375  34.699  44.887  1.00  0.00     0.021 C 
BRANCH  35  37
HETATM   37  C24 UNL     1      16.450  36.751  44.259  1.00  0.00     0.176 C 
HETATM   38  O4  UNL     1      17.499  36.644  44.985  1.00  0.00    -0.648 OA
HETATM   39  O5  UNL     1      15.921  38.028  44.086  1.00  0.00    -0.648 OA
ENDBRANCH  35  37
ENDBRANCH  34  35
ENDBRANCH  29  34
ENDBRANCH   1  29
TORSDOF 13
ENDMDL
MODEL 3
REMARK VINA RESULT: -8.429239822      4.301      8.727
REMARK  13 active torsions:
REMARK  status: ('A' for Active; 'I' for Inactive)
REMARK    1  A    between atoms: C2_2  and  C3_3 
REMARK    2  A    between atoms: C2_2  and  C24_37 
REMARK    3  A    between atoms: C3_3  and  C4_4 
REMARK    4  A    between atoms: C4_4  and  C5_5 
REMARK       I    between atoms: C5_5  and  N1_7 
REMARK    5  A    between atoms: C6_9  and  C7_10 
REMARK    6  A    between atoms: C6_9  and  C12_16 
REMARK    7  A    between atoms: C7_10  and  C8_11 
REMARK    8  A    between atoms: C12_16  and  O3_18 
REMARK    9  A    between atoms: O3_18  and  C13_19 
REMARK   10  A    between atoms: C13_19  and  C14_20 
REMARK   11  A    between atoms: C14_20  and  C15_21 
REMARK   12  A    between atoms: C18_27  and  C19_28 
REMARK   13  A    between atoms: C19_28  and  N2_29 
ROOT
HETATM    1  C5  UNL     1      15.917  35.606  42.331  1.00  0.00     0.231 C 
HETATM    2  O1  UNL     1      14.772  35.669  41.830  1.00  0.00    -0.272 OA
HETATM    3  N1  UNL     1      17.017  35.375  41.490  1.00  0.00    -0.325 N 
ATOM      4  H1  UNL     1      17.738  36.096  41.494  1.00  0.00     0.169 HD
HETATM    5  C6  UNL     1      17.232  34.380  40.720  1.00  0.00     0.092 C 
ENDROOT
BRANCH   5   6
HETATM    6  C7  UNL     1      16.287  33.289  40.622  1.00  0.00     0.109 C 
BRANCH   6   7
HETATM    7  C8  UNL     1      15.586  33.128  39.337  1.00  0.00    -0.012 A 
HETATM    8  C9  UNL     1      15.885  32.464  38.189  1.00  0.00     0.015 A 
HETATM    9  C10 UNL     1      15.001  32.540  37.173  1.00  0.00     0.008 A 
HETATM   10  C11 UNL     1      13.870  33.286  37.386  1.00  0.00     0.050 A 
HETATM   11  S1  UNL     1      14.089  33.844  38.987  1.00  0.00    -0.106 SA
ENDBRANCH   6   7
ENDBRANCH   5   6
BRANCH   5  12
HETATM   12  C12 UNL     1      18.458  34.385  39.938  1.00  0.00     0.306 C 
HETATM   13  O2  UNL     1      19.456  33.672  40.227  1.00  0.00    -0.258 OA
BRANCH  12  14
HETATM   14  O3  UNL     1      18.612  35.185  38.806  1.00  0.00    -0.316 OA
BRANCH  14  15
HETATM   15  C13 UNL     1      18.449  34.632  37.507  1.00  0.00     0.184 C 
BRANCH  15  16
HETATM   16  C14 UNL     1      19.225  33.370  37.378  1.00  0.00     0.074 C 
BRANCH  16  17
HETATM   17  C15 UNL     1      20.421  33.558  36.482  1.00  0.00    -0.003 A 
HETATM   18  S2  UNL     1      20.422  33.546  34.767  1.00  0.00    -0.083 SA
HETATM   19  C16 UNL     1      22.080  33.786  34.494  1.00  0.00     0.091 A 
HETATM   20 BR1  UNL     1      23.039  33.914  32.821  1.00  0.00    -0.040 Br
HETATM   21  C17 UNL     1      22.596  33.871  35.761  1.00  0.00     0.149 A 
HETATM   22  F1  UNL     1      23.964  34.072  35.926  1.00  0.00    -0.203 F 
HETATM   23  C18 UNL     1      21.740  33.753  36.785  1.00  0.00     0.021 A 
BRANCH  23  24
HETATM   24  C19 UNL     1      22.165  33.849  38.241  1.00  0.00     0.272 C 
BRANCH  24  25
HETATM   25  N2  UNL     1      21.876  35.125  38.807  1.00  0.00    -0.075 N 
ATOM     26  H23 UNL     1      22.266  35.877  38.239  1.00  0.00     0.274 HD
ATOM     27  H22 UNL     1      20.886  35.351  38.719  1.00  0.00     0.274 HD
ATOM     28  H21 UNL     1      22.185  35.198  39.777  1.00  0.00     0.274 HD
ENDBRANCH  24  25
ENDBRANCH  23  24
ENDBRANCH  16  17
ENDBRANCH  15  16
ENDBRANCH  14  15
ENDBRANCH  12  14
ENDBRANCH   5  12
BRANCH   1  29
HETATM   29  C4  UNL     1      16.055  35.780  43.817  1.00  0.00     0.042 C 
HETATM   30  C20 UNL     1      14.691  35.380  44.461  1.00  0.00     0.019 C 
HETATM   31  C21 UNL     1      14.754  33.930  44.756  1.00  0.00     0.001 C 
HETATM   32  C22 UNL     1      16.196  33.578  44.862  1.00  0.00     0.001 C 
HETATM   33  C23 UNL     1      16.991  34.758  44.335  1.00  0.00     0.019 C 
BRANCH  29  34
HETATM   34  C3  UNL     1      16.253  37.181  44.238  1.00  0.00     0.034 C 
BRANCH  34  35
HETATM   35  C2  UNL     1      15.169  37.933  44.902  1.00  0.00     0.084 C 
HETATM   36  C1  UNL     1      15.863  39.216  45.463  1.00  0.00     0.021 C 
BRANCH  35  37
HETATM   37  C24 UNL     1      14.120  38.447  44.003  1.00  0.00     0.176 C 
HETATM   38  O4  UNL     1      14.366  39.504  43.324  1.00  0.00    -0.648 OA
HETATM   39  O5  UNL     1      12.868  37.859  43.836  1.00  0.00    -0.648 OA
ENDBRANCH  35  37
ENDBRANCH  34  35
ENDBRANCH  29  34
ENDBRANCH   1  29
TORSDOF 13
ENDMDL
MODEL 4
REMARK VINA RESULT: -8.388259256      4.203      8.465
REMARK  13 active torsions:
REMARK  status: ('A' for Active; 'I' for Inactive)
REMARK    1  A    between atoms: C2_2  and  C3_3 
REMARK    2  A    between atoms: C2_2  and  C24_37 
REMARK    3  A    between atoms: C3_3  and  C4_4 
REMARK    4  A    between atoms: C4_4  and  C5_5 
REMARK       I    between atoms: C5_5  and  N1_7 
REMARK    5  A    between atoms: C6_9  and  C7_10 
REMARK    6  A    between atoms: C6_9  and  C12_16 
REMARK    7  A    between atoms: C7_10  and  C8_11 
REMARK    8  A    between atoms: C12_16  and  O3_18 
REMARK    9  A    between atoms: O3_18  and  C13_19 
REMARK   10  A    between atoms: C13_19  and  C14_20 
REMARK   11  A    between atoms: C14_20  and  C15_21 
REMARK   12  A    between atoms: C18_27  and  C19_28 
REMARK   13  A    between atoms: C19_28  and  N2_29 
ROOT
HETATM    1  C5  UNL     1      15.796  35.609  42.350  1.00  0.00     0.231 C 
HETATM    2  O1  UNL     1      14.647  35.750  41.875  1.00  0.00    -0.272 OA
HETATM    3  N1  UNL     1      16.865  35.340  41.480  1.00  0.00    -0.325 N 
ATOM      4  H1  UNL     1      17.625  36.019  41.488  1.00  0.00     0.169 HD
HETATM    5  C6  UNL     1      17.008  34.356  40.680  1.00  0.00     0.092 C 
ENDROOT
BRANCH   5   6
HETATM    6  C7  UNL     1      16.000  33.322  40.574  1.00  0.00     0.109 C 
BRANCH   6   7
HETATM    7  C8  UNL     1      15.392  33.119  39.249  1.00  0.00    -0.012 A 
HETATM    8  C9  UNL     1      15.809  32.490  38.117  1.00  0.00     0.015 A 
HETATM    9  C10 UNL     1      14.984  32.507  37.051  1.00  0.00     0.008 A 
HETATM   10  C11 UNL     1      13.787  33.161  37.199  1.00  0.00     0.050 A 
HETATM   11  S1  UNL     1      13.867  33.720  38.812  1.00  0.00    -0.106 SA
ENDBRANCH   6   7
ENDBRANCH   5   6
BRANCH   5  12
HETATM   12  C12 UNL     1      18.216  34.314  39.872  1.00  0.00     0.306 C 
HETATM   13  O2  UNL     1      19.318  33.890  40.313  1.00  0.00    -0.258 OA
BRANCH  12  14
HETATM   14  O3  UNL     1      18.236  34.743  38.545  1.00  0.00    -0.316 OA
BRANCH  14  15
HETATM   15  C13 UNL     1      19.246  35.637  38.095  1.00  0.00     0.184 C 
BRANCH  15  16
HETATM   16  C14 UNL     1      20.276  34.905  37.310  1.00  0.00     0.074 C 
BRANCH  16  17
HETATM   17  C15 UNL     1      19.689  33.682  36.654  1.00  0.00    -0.003 A 
HETATM   18  S2  UNL     1      18.455  33.657  35.464  1.00  0.00    -0.083 SA
HETATM   19  C16 UNL     1      18.319  31.978  35.247  1.00  0.00     0.091 A 
HETATM   20 BR1  UNL     1      17.151  30.986  34.071  1.00  0.00    -0.040 Br
HETATM   21  C17 UNL     1      19.251  31.475  36.119  1.00  0.00     0.149 A 
HETATM   22  F1  UNL     1      19.419  30.096  36.212  1.00  0.00    -0.203 F 
HETATM   23  C18 UNL     1      19.956  32.354  36.844  1.00  0.00     0.021 A 
BRANCH  23  24
HETATM   24  C19 UNL     1      21.034  31.943  37.832  1.00  0.00     0.272 C 
BRANCH  24  25
HETATM   25  N2  UNL     1      22.168  31.366  37.188  1.00  0.00    -0.075 N 
ATOM     26  H23 UNL     1      21.893  30.592  36.582  1.00  0.00     0.274 HD
ATOM     27  H22 UNL     1      22.551  31.996  36.483  1.00  0.00     0.274 HD
ATOM     28  H21 UNL     1      22.886  31.076  37.852  1.00  0.00     0.274 HD
ENDBRANCH  24  25
ENDBRANCH  23  24
ENDBRANCH  16  17
ENDBRANCH  15  16
ENDBRANCH  14  15
ENDBRANCH  12  14
ENDBRANCH   5  12
BRANCH   1  29
HETATM   29  C4  UNL     1      15.973  35.735  43.837  1.00  0.00     0.042 C 
HETATM   30  C20 UNL     1      14.622  35.326  44.502  1.00  0.00     0.019 C 
HETATM   31  C21 UNL     1      14.679  33.867  44.749  1.00  0.00     0.001 C 
HETATM   32  C22 UNL     1      16.120  33.499  44.808  1.00  0.00     0.001 C 
HETATM   33  C23 UNL     1      16.912  34.688  44.298  1.00  0.00     0.019 C 
BRANCH  29  34
HETATM   34  C3  UNL     1      16.195  37.120  44.297  1.00  0.00     0.034 C 
BRANCH  34  35
HETATM   35  C2  UNL     1      15.109  37.888  44.938  1.00  0.00     0.084 C 
HETATM   36  C1  UNL     1      15.812  39.156  45.521  1.00  0.00     0.021 C 
BRANCH  35  37
HETATM   37  C24 UNL     1      14.092  38.425  44.015  1.00  0.00     0.176 C 
HETATM   38  O4  UNL     1      14.372  39.482  43.350  1.00  0.00    -0.648 OA
HETATM   39  O5  UNL     1      12.836  37.859  43.812  1.00  0.00    -0.648 OA
ENDBRANCH  35  37
ENDBRANCH  34  35
ENDBRANCH  29  34
ENDBRANCH   1  29
TORSDOF 13
ENDMDL
MODEL 5
REMARK VINA RESULT: -8.329233753      4.727      8.421
REMARK  13 active torsions:
REMARK  status: ('A' for Active; 'I' for Inactive)
REMARK    1  A    between atoms: C2_2  and  C3_3 
REMARK    2  A    between atoms: C2_2  and  C24_37 
REMARK    3  A    between atoms: C3_3  and  C4_4 
REMARK    4  A    between atoms: C4_4  and  C5_5 
REMARK       I    between atoms: C5_5  and  N1_7 
REMARK    5  A    between atoms: C6_9  and  C7_10 
REMARK    6  A    between atoms: C6_9  and  C12_16 
REMARK    7  A    between atoms: C7_10  and  C8_11 
REMARK    8  A    between atoms: C12_16  and  O3_18 
REMARK    9  A    between atoms: O3_18  and  C13_19 
REMARK   10  A    between atoms: C13_19  and  C14_20 
REMARK   11  A    between atoms: C14_20  and  C15_21 
REMARK   12  A    between atoms: C18_27  and  C19_28 
REMARK   13  A    between atoms: C19_28  and  N2_29 
ROOT
HETATM    1  C5  UNL     1      17.825  34.883  40.479  1.00  0.00     0.231 C 
HETATM    2  O1  UNL     1      17.651  36.067  40.114  1.00  0.00    -0.272 OA
HETATM    3  N1  UNL     1      19.023  34.234  40.140  1.00  0.00    -0.325 N 
ATOM      4  H1  UNL     1      19.581  33.897  40.923  1.00  0.00     0.169 HD
HETATM    5  C6  UNL     1      19.504  34.012  38.979  1.00  0.00     0.092 C 
ENDROOT
BRANCH   5   6
HETATM    6  C7  UNL     1      18.808  34.439  37.784  1.00  0.00     0.109 C 
BRANCH   6   7
HETATM    7  C8  UNL     1      18.184  33.387  36.965  1.00  0.00    -0.012 A 
HETATM    8  C9  UNL     1      17.647  32.173  37.258  1.00  0.00     0.015 A 
HETATM    9  C10 UNL     1      17.161  31.440  36.236  1.00  0.00     0.008 A 
HETATM   10  C11 UNL     1      17.251  31.983  34.980  1.00  0.00     0.050 A 
HETATM   11  S1  UNL     1      18.005  33.488  35.281  1.00  0.00    -0.106 SA
ENDBRANCH   6   7
ENDBRANCH   5   6
BRANCH   5  12
HETATM   12  C12 UNL     1      20.780  33.321  38.899  1.00  0.00     0.306 C 
HETATM   13  O2  UNL     1      21.512  33.118  39.905  1.00  0.00    -0.258 OA
BRANCH  12  14
HETATM   14  O3  UNL     1      21.285  32.833  37.694  1.00  0.00    -0.316 OA
BRANCH  14  15
HETATM   15  C13 UNL     1      21.310  31.435  37.439  1.00  0.00     0.184 C 
BRANCH  15  16
HETATM   16  C14 UNL     1      21.056  31.164  35.999  1.00  0.00     0.074 C 
BRANCH  16  17
HETATM   17  C15 UNL     1      22.261  31.507  35.163  1.00  0.00    -0.003 A 
HETATM   18  S2  UNL     1      23.622  30.503  34.877  1.00  0.00    -0.083 SA
HETATM   19  C16 UNL     1      24.536  31.553  33.904  1.00  0.00     0.091 A 
HETATM   20 BR1  UNL     1      26.265  31.273  33.090  1.00  0.00    -0.040 Br
HETATM   21  C17 UNL     1      23.747  32.672  33.827  1.00  0.00     0.149 A 
HETATM   22  F1  UNL     1      24.192  33.766  33.090  1.00  0.00    -0.203 F 
HETATM   23  C18 UNL     1      22.575  32.647  34.476  1.00  0.00     0.021 A 
BRANCH  23  24
HETATM   24  C19 UNL     1      21.591  33.805  34.461  1.00  0.00     0.272 C 
BRANCH  24  25
HETATM   25  N2  UNL     1      21.770  34.682  35.570  1.00  0.00    -0.075 N 
ATOM     26  H23 UNL     1      22.123  34.180  36.384  1.00  0.00     0.274 HD
ATOM     27  H22 UNL     1      22.554  35.315  35.416  1.00  0.00     0.274 HD
ATOM     28  H21 UNL     1      20.920  35.199  35.797  1.00  0.00     0.274 HD
ENDBRANCH  24  25
ENDBRANCH  23  24
ENDBRANCH  16  17
ENDBRANCH  15  16
ENDBRANCH  14  15
ENDBRANCH  12  14
ENDBRANCH   5  12
BRANCH   1  29
HETATM   29  C4  UNL     1      16.733  34.212  41.264  1.00  0.00     0.042 C 
HETATM   30  C20 UNL     1      15.401  34.956  40.938  1.00  0.00     0.019 C 
HETATM   31  C21 UNL     1      14.796  34.281  39.768  1.00  0.00     0.001 C 
HETATM   32  C22 UNL     1      15.351  32.901  39.736  1.00  0.00     0.001 C 
HETATM   33  C23 UNL     1      16.510  32.856  40.714  1.00  0.00     0.019 C 
BRANCH  29  34
HETATM   34  C3  UNL     1      16.875  34.354  42.726  1.00  0.00     0.034 C 
BRANCH  34  35
HETATM   35  C2  UNL     1      15.921  35.169  43.505  1.00  0.00     0.084 C 
HETATM   36  C1  UNL     1      15.426  34.218  44.642  1.00  0.00     0.021 C 
BRANCH  35  37
HETATM   37  C24 UNL     1      16.511  36.316  44.217  1.00  0.00     0.176 C 
HETATM   38  O4  UNL     1      17.388  36.086  45.120  1.00  0.00    -0.648 OA
HETATM   39  O5  UNL     1      16.179  37.648  43.976  1.00  0.00    -0.648 OA
ENDBRANCH  35  37
ENDBRANCH  34  35
ENDBRANCH  29  34
ENDBRANCH   1  29
TORSDOF 13
ENDMDL
