MODEL 1
REMARK VINA RESULT: -9.137038950      0.000      0.000
REMARK  14 active torsions:
REMARK  status: ('A' for Active; 'I' for Inactive)
REMARK    1  A    between atoms: C6_6  and  C7_7 
REMARK    2  A    between atoms: C7_7  and  C10_10 
REMARK    3  A    between atoms: C12_15  and  C13_16 
REMARK    4  A    between atoms: N1_17  and  N2_19 
REMARK       I    between atoms: N2_19  and  C14_21 
REMARK    5  A    between atoms: C14_21  and  C15_23 
REMARK    6  A    between atoms: C15_23  and  S1_24 
REMARK    7  A    between atoms: S1_24  and  C16_25 
REMARK    8  A    between atoms: C17_30  and  C18_31 
REMARK    9  A    between atoms: C18_31  and  O2_32 
REMARK   10  A    between atoms: N5_34  and  C19_35 
REMARK   11  A    between atoms: C19_35  and  C20_36 
REMARK   12  A    between atoms: C20_36  and  C21_37 
REMARK   13  A    between atoms: C21_37  and  C22_38 
REMARK   14  A    between atoms: C22_38  and  C23_39 
REMARK       I    between atoms: C23_39  and  N6_41 
ROOT
HETATM    1  C15 UNL     1      21.600  34.685  37.269  1.00  0.00     0.186 C 
ENDROOT
BRANCH   1   2
HETATM    2  C14 UNL     1      20.865  34.284  38.503  1.00  0.00     0.245 C 
HETATM    3  N2  UNL     1      19.592  34.861  38.743  1.00  0.00    -0.270 N 
ATOM      4  H2  UNL     1      19.226  35.528  38.064  1.00  0.00     0.190 HD
HETATM    5  O1  UNL     1      21.335  33.462  39.320  1.00  0.00    -0.271 OA
BRANCH   3   6
HETATM    6  N1  UNL     1      18.818  34.564  39.854  1.00  0.00    -0.308 N 
HETATM    7  C13 UNL     1      17.631  34.940  40.045  1.00  0.00     0.119 C 
ATOM      8  H1  UNL     1      19.248  33.992  40.580  1.00  0.00     0.186 HD
BRANCH   7   9
HETATM    9  C12 UNL     1      16.877  34.589  41.239  1.00  0.00    -0.013 A 
HETATM   10  C2  UNL     1      16.165  33.415  41.280  1.00  0.00    -0.050 A 
HETATM   11  C1  UNL     1      16.112  32.427  40.164  1.00  0.00     0.049 C 
HETATM   12  C3  UNL     1      15.476  33.158  42.439  1.00  0.00     0.015 A 
HETATM   13  C4  UNL     1      15.466  34.020  43.556  1.00  0.00    -0.054 A 
HETATM   14  C5  UNL     1      14.641  33.657  44.696  1.00  0.00     0.049 C 
HETATM   15  C6  UNL     1      16.167  35.185  43.530  1.00  0.00    -0.035 A 
HETATM   16  C11 UNL     1      16.871  35.446  42.339  1.00  0.00     0.022 A 
BRANCH  15  17
HETATM   17  C7  UNL     1      16.318  36.122  44.586  1.00  0.00     0.078 C 
HETATM   18  C8  UNL     1      15.917  35.394  45.924  1.00  0.00     0.029 C 
HETATM   19  C9  UNL     1      17.513  36.868  44.901  1.00  0.00     0.029 C 
BRANCH  17  20
HETATM   20  C10 UNL     1      15.154  37.143  44.542  1.00  0.00     0.398 C 
HETATM   21  F1  UNL     1      14.570  37.254  45.792  1.00  0.00    -0.170 F 
HETATM   22  F2  UNL     1      14.213  36.841  43.649  1.00  0.00    -0.170 F 
HETATM   23  F3  UNL     1      15.694  38.406  44.263  1.00  0.00    -0.170 F 
ENDBRANCH  17  20
ENDBRANCH  15  17
ENDBRANCH   7   9
ENDBRANCH   3   6
ENDBRANCH   1   2
BRANCH   1  24
HETATM   24  S1  UNL     1      23.356  34.367  37.422  1.00  0.00    -0.083 SA
BRANCH  24  25
HETATM   25  C16 UNL     1      23.980  33.211  36.212  1.00  0.00     0.163 A 
HETATM   26  N3  UNL     1      24.969  33.496  35.358  1.00  0.00    -0.278 N 
HETATM   27  N4  UNL     1      25.187  32.425  34.621  1.00  0.00    -0.285 N 
ATOM     28  H3  UNL     1      25.466  34.384  35.290  1.00  0.00     0.189 HD
HETATM   29  C17 UNL     1      24.339  31.455  35.001  1.00  0.00     0.124 A 
ATOM     30  H4  UNL     1      25.887  32.346  33.882  1.00  0.00     0.188 HD
HETATM   31  N5  UNL     1      23.594  31.956  35.988  1.00  0.00    -0.313 N 
BRANCH  29  32
HETATM   32  C18 UNL     1      24.254  30.068  34.406  1.00  0.00     0.242 C 
BRANCH  32  33
HETATM   33  O2  UNL     1      23.403  30.065  33.319  1.00  0.00    -0.393 OA
ATOM     34  H2  UNL     1      23.210  29.173  33.054  1.00  0.00     0.209 HD
ENDBRANCH  32  33
ENDBRANCH  29  32
BRANCH  31  35
HETATM   35  C19 UNL     1      22.534  31.256  36.690  1.00  0.00     0.133 C 
BRANCH  35  36
HETATM   36  C20 UNL     1      21.246  31.262  35.887  1.00  0.00     0.021 C 
BRANCH  36  37
HETATM   37  C21 UNL     1      20.055  30.833  36.708  1.00  0.00     0.011 C 
BRANCH  37  38
HETATM   38  C22 UNL     1      18.775  30.968  35.909  1.00  0.00     0.103 C 
BRANCH  38  39
HETATM   39  C23 UNL     1      17.840  31.901  36.561  1.00  0.00     0.219 C 
HETATM   40  O3  UNL     1      18.163  32.366  37.713  1.00  0.00    -0.273 OA
HETATM   41  N6  UNL     1      16.607  32.333  36.018  1.00  0.00    -0.352 N 
HETATM   42  C24 UNL     1      16.199  31.814  34.733  1.00  0.00     0.125 C 
HETATM   43  C28 UNL     1      15.806  33.277  36.771  1.00  0.00     0.125 C 
HETATM   44  C25 UNL     1      14.718  31.514  34.683  1.00  0.00     0.020 C 
HETATM   45  C26 UNL     1      13.909  32.553  35.427  1.00  0.00     0.003 C 
HETATM   46  C27 UNL     1      14.407  32.728  36.849  1.00  0.00     0.020 C 
ENDBRANCH  38  39
ENDBRANCH  37  38
ENDBRANCH  36  37
ENDBRANCH  35  36
ENDBRANCH  31  35
ENDBRANCH  24  25
ENDBRANCH   1  24
TORSDOF 14
ENDMDL
MODEL 2
REMARK VINA RESULT: -9.058278916      4.029      7.795
REMARK  14 active torsions:
REMARK  status: ('A' for Active; 'I' for Inactive)
REMARK    1  A    between atoms: C6_6  and  C7_7 
REMARK    2  A    between atoms: C7_7  and  C10_10 
REMARK    3  A    between atoms: C12_15  and  C13_16 
REMARK    4  A    between atoms: N1_17  and  N2_19 
REMARK       I    between atoms: N2_19  and  C14_21 
REMARK    5  A    between atoms: C14_21  and  C15_23 
REMARK    6  A    between atoms: C15_23  and  S1_24 
REMARK    7  A    between atoms: S1_24  and  C16_25 
REMARK    8  A    between atoms: C17_30  and  C18_31 
REMARK    9  A    between atoms: C18_31  and  O2_32 
REMARK   10  A    between atoms: N5_34  and  C19_35 
REMARK   11  A    between atoms: C19_35  and  C20_36 
REMARK   12  A    between atoms: C20_36  and  C21_37 
REMARK   13  A    between atoms: C21_37  and  C22_38 
REMARK   14  A    between atoms: C22_38  and  C23_39 
REMARK       I    between atoms: C23_39  and  N6_41 
ROOT
HETATM    1  C15 UNL     1      22.935  31.688  36.599  1.00  0.00     0.186 C 
ENDROOT
BRANCH   1   2
HETATM    2  C14 UNL     1      21.651  32.067  37.255  1.00  0.00     0.245 C 
HETATM    3  N2  UNL     1      20.499  32.214  36.441  1.00  0.00    -0.270 N 
ATOM      4  H2  UNL     1      20.592  32.054  35.438  1.00  0.00     0.190 HD
HETATM    5  O1  UNL     1      21.565  32.256  38.488  1.00  0.00    -0.271 OA
BRANCH   3   6
HETATM    6  N1  UNL     1      19.254  32.563  36.938  1.00  0.00    -0.308 N 
HETATM    7  C13 UNL     1      18.148  32.124  36.525  1.00  0.00     0.119 C 
ATOM      8  H1  UNL     1      19.231  33.234  37.706  1.00  0.00     0.186 HD
BRANCH   7   9
HETATM    9  C12 UNL     1      16.874  32.536  37.098  1.00  0.00    -0.013 A 
HETATM   10  C2  UNL     1      15.704  32.259  36.435  1.00  0.00    -0.050 A 
HETATM   11  C1  UNL     1      15.627  31.533  35.135  1.00  0.00     0.049 C 
HETATM   12  C3  UNL     1      14.545  32.685  37.038  1.00  0.00     0.015 A 
HETATM   13  C4  UNL     1      14.506  33.372  38.270  1.00  0.00    -0.054 A 
HETATM   14  C5  UNL     1      13.215  33.822  38.763  1.00  0.00     0.049 C 
HETATM   15  C6  UNL     1      15.657  33.650  38.938  1.00  0.00    -0.035 A 
HETATM   16  C11 UNL     1      16.843  33.214  38.316  1.00  0.00     0.022 A 
BRANCH  15  17
HETATM   17  C7  UNL     1      15.786  34.266  40.210  1.00  0.00     0.078 C 
HETATM   18  C8  UNL     1      17.255  34.823  40.319  1.00  0.00     0.029 C 
HETATM   19  C9  UNL     1      14.942  35.308  40.743  1.00  0.00     0.029 C 
BRANCH  17  20
HETATM   20  C10 UNL     1      15.890  33.174  41.305  1.00  0.00     0.398 C 
HETATM   21  F1  UNL     1      17.214  32.821  41.500  1.00  0.00    -0.170 F 
HETATM   22  F2  UNL     1      15.185  32.078  41.033  1.00  0.00    -0.170 F 
HETATM   23  F3  UNL     1      15.463  33.732  42.517  1.00  0.00    -0.170 F 
ENDBRANCH  17  20
ENDBRANCH  15  17
ENDBRANCH   7   9
ENDBRANCH   3   6
ENDBRANCH   1   2
BRANCH   1  24
HETATM   24  S1  UNL     1      23.889  33.134  36.144  1.00  0.00    -0.083 SA
BRANCH  24  25
HETATM   25  C16 UNL     1      24.045  34.330  37.461  1.00  0.00     0.163 A 
HETATM   26  N3  UNL     1      23.033  35.090  37.893  1.00  0.00    -0.278 N 
HETATM   27  N4  UNL     1      23.485  35.845  38.875  1.00  0.00    -0.285 N 
ATOM     28  H3  UNL     1      22.080  35.086  37.528  1.00  0.00     0.189 HD
HETATM   29  C17 UNL     1      24.785  35.571  39.071  1.00  0.00     0.124 A 
ATOM     30  H4  UNL     1      22.937  36.527  39.400  1.00  0.00     0.188 HD
HETATM   31  N5  UNL     1      25.121  34.630  38.187  1.00  0.00    -0.313 N 
BRANCH  29  32
HETATM   32  C18 UNL     1      25.683  36.220  40.099  1.00  0.00     0.242 C 
BRANCH  32  33
HETATM   33  O2  UNL     1      26.311  37.323  39.556  1.00  0.00    -0.393 OA
ATOM     34  H2  UNL     1      27.183  37.091  39.257  1.00  0.00     0.209 HD
ENDBRANCH  32  33
ENDBRANCH  29  32
BRANCH  31  35
HETATM   35  C19 UNL     1      26.439  34.042  38.032  1.00  0.00     0.133 C 
BRANCH  35  36
HETATM   36  C20 UNL     1      27.214  34.716  36.915  1.00  0.00     0.021 C 
BRANCH  36  37
HETATM   37  C21 UNL     1      28.534  35.273  37.386  1.00  0.00     0.011 C 
BRANCH  37  38
HETATM   38  C22 UNL     1      29.600  35.099  36.323  1.00  0.00     0.103 C 
BRANCH  38  39
HETATM   39  C23 UNL     1      29.434  36.085  35.241  1.00  0.00     0.219 C 
HETATM   40  O3  UNL     1      29.741  37.306  35.491  1.00  0.00    -0.273 OA
HETATM   41  N6  UNL     1      28.964  35.795  33.938  1.00  0.00    -0.352 N 
HETATM   42  C24 UNL     1      28.587  34.436  33.626  1.00  0.00     0.125 C 
HETATM   43  C28 UNL     1      28.880  36.872  32.972  1.00  0.00     0.125 C 
HETATM   44  C25 UNL     1      27.346  34.370  32.766  1.00  0.00     0.020 C 
HETATM   45  C26 UNL     1      27.322  35.471  31.730  1.00  0.00     0.003 C 
HETATM   46  C27 UNL     1      27.502  36.836  32.368  1.00  0.00     0.020 C 
ENDBRANCH  38  39
ENDBRANCH  37  38
ENDBRANCH  36  37
ENDBRANCH  35  36
ENDBRANCH  31  35
ENDBRANCH  24  25
ENDBRANCH   1  24
TORSDOF 14
ENDMDL
MODEL 3
REMARK VINA RESULT: -9.023956359      3.495      6.956
REMARK  14 active torsions:
REMARK  status: ('A' for Active; 'I' for Inactive)
REMARK    1  A    between atoms: C6_6  and  C7_7 
REMARK    2  A    between atoms: C7_7  and  C10_10 
REMARK    3  A    between atoms: C12_15  and  C13_16 
REMARK    4  A    between atoms: N1_17  and  N2_19 
REMARK       I    between atoms: N2_19  and  C14_21 
REMARK    5  A    between atoms: C14_21  and  C15_23 
REMARK    6  A    between atoms: C15_23  and  S1_24 
REMARK    7  A    between atoms: S1_24  and  C16_25 
REMARK    8  A    between atoms: C17_30  and  C18_31 
REMARK    9  A    between atoms: C18_31  and  O2_32 
REMARK   10  A    between atoms: N5_34  and  C19_35 
REMARK   11  A    between atoms: C19_35  and  C20_36 
REMARK   12  A    between atoms: C20_36  and  C21_37 
REMARK   13  A    between atoms: C21_37  and  C22_38 
REMARK   14  A    between atoms: C22_38  and  C23_39 
REMARK       I    between atoms: C23_39  and  N6_41 
ROOT
HETATM    1  C15 UNL     1      24.079  34.737  38.510  1.00  0.00     0.186 C 
ENDROOT
BRANCH   1   2
HETATM    2  C14 UNL     1      22.666  34.470  38.903  1.00  0.00     0.245 C 
HETATM    3  N2  UNL     1      21.633  35.113  38.174  1.00  0.00    -0.270 N 
ATOM      4  H2  UNL     1      21.895  35.733  37.408  1.00  0.00     0.190 HD
HETATM    5  O1  UNL     1      22.371  33.704  39.847  1.00  0.00    -0.271 OA
BRANCH   3   6
HETATM    6  N1  UNL     1      20.286  34.942  38.449  1.00  0.00    -0.308 N 
HETATM    7  C13 UNL     1      19.536  34.070  37.934  1.00  0.00     0.119 C 
ATOM      8  H1  UNL     1      19.865  35.576  39.126  1.00  0.00     0.186 HD
BRANCH   7   9
HETATM    9  C12 UNL     1      18.125  33.947  38.271  1.00  0.00    -0.013 A 
HETATM   10  C2  UNL     1      17.231  33.504  37.328  1.00  0.00    -0.050 A 
HETATM   11  C1  UNL     1      17.603  33.111  35.939  1.00  0.00     0.049 C 
HETATM   12  C3  UNL     1      15.918  33.420  37.722  1.00  0.00     0.015 A 
HETATM   13  C4  UNL     1      15.461  33.759  39.013  1.00  0.00    -0.054 A 
HETATM   14  C5  UNL     1      14.034  33.685  39.278  1.00  0.00     0.049 C 
HETATM   15  C6  UNL     1      16.336  34.198  39.958  1.00  0.00    -0.035 A 
HETATM   16  C11 UNL     1      17.681  34.284  39.550  1.00  0.00     0.022 A 
BRANCH  15  17
HETATM   17  C7  UNL     1      16.053  34.510  41.313  1.00  0.00     0.078 C 
HETATM   18  C8  UNL     1      17.346  35.169  41.926  1.00  0.00     0.029 C 
HETATM   19  C9  UNL     1      14.952  35.310  41.793  1.00  0.00     0.029 C 
BRANCH  17  20
HETATM   20  C10 UNL     1      16.058  33.209  42.155  1.00  0.00     0.398 C 
HETATM   21  F1  UNL     1      17.168  32.444  41.843  1.00  0.00    -0.170 F 
HETATM   22  F2  UNL     1      14.962  32.468  41.998  1.00  0.00    -0.170 F 
HETATM   23  F3  UNL     1      16.208  33.564  43.502  1.00  0.00    -0.170 F 
ENDBRANCH  17  20
ENDBRANCH  15  17
ENDBRANCH   7   9
ENDBRANCH   3   6
ENDBRANCH   1   2
BRANCH   1  24
HETATM   24  S1  UNL     1      24.506  33.890  36.990  1.00  0.00    -0.083 SA
BRANCH  24  25
HETATM   25  C16 UNL     1      23.239  32.768  36.418  1.00  0.00     0.163 A 
HETATM   26  N3  UNL     1      22.965  31.599  37.007  1.00  0.00    -0.278 N 
HETATM   27  N4  UNL     1      21.975  31.035  36.344  1.00  0.00    -0.285 N 
ATOM     28  H3  UNL     1      23.438  31.213  37.824  1.00  0.00     0.189 HD
HETATM   29  C17 UNL     1      21.615  31.840  35.331  1.00  0.00     0.124 A 
ATOM     30  H4  UNL     1      21.552  30.133  36.565  1.00  0.00     0.188 HD
HETATM   31  N5  UNL     1      22.408  32.912  35.387  1.00  0.00    -0.313 N 
BRANCH  29  32
HETATM   32  C18 UNL     1      20.522  31.564  34.325  1.00  0.00     0.242 C 
BRANCH  32  33
HETATM   33  O2  UNL     1      19.918  30.352  34.595  1.00  0.00    -0.393 OA
ATOM     34  H2  UNL     1      19.970  29.782  33.836  1.00  0.00     0.209 HD
ENDBRANCH  32  33
ENDBRANCH  29  32
BRANCH  31  35
HETATM   35  C19 UNL     1      22.378  34.038  34.472  1.00  0.00     0.133 C 
BRANCH  35  36
HETATM   36  C20 UNL     1      22.914  33.649  33.106  1.00  0.00     0.021 C 
BRANCH  36  37
HETATM   37  C21 UNL     1      24.342  33.168  33.164  1.00  0.00     0.011 C 
BRANCH  37  38
HETATM   38  C22 UNL     1      25.304  34.339  33.159  1.00  0.00     0.103 C 
BRANCH  38  39
HETATM   39  C23 UNL     1      26.125  34.345  31.936  1.00  0.00     0.219 C 
HETATM   40  O3  UNL     1      25.967  33.380  31.104  1.00  0.00    -0.273 OA
HETATM   41  N6  UNL     1      27.077  35.335  31.596  1.00  0.00    -0.352 N 
HETATM   42  C24 UNL     1      27.297  36.426  32.518  1.00  0.00     0.125 C 
HETATM   43  C28 UNL     1      27.789  35.216  30.341  1.00  0.00     0.125 C 
HETATM   44  C25 UNL     1      28.759  36.797  32.624  1.00  0.00     0.020 C 
HETATM   45  C26 UNL     1      29.456  36.720  31.284  1.00  0.00     0.003 C 
HETATM   46  C27 UNL     1      29.257  35.364  30.633  1.00  0.00     0.020 C 
ENDBRANCH  38  39
ENDBRANCH  37  38
ENDBRANCH  36  37
ENDBRANCH  35  36
ENDBRANCH  31  35
ENDBRANCH  24  25
ENDBRANCH   1  24
TORSDOF 14
ENDMDL
MODEL 4
REMARK VINA RESULT: -8.998352401      7.613     12.662
REMARK  14 active torsions:
REMARK  status: ('A' for Active; 'I' for Inactive)
REMARK    1  A    between atoms: C6_6  and  C7_7 
REMARK    2  A    between atoms: C7_7  and  C10_10 
REMARK    3  A    between atoms: C12_15  and  C13_16 
REMARK    4  A    between atoms: N1_17  and  N2_19 
REMARK       I    between atoms: N2_19  and  C14_21 
REMARK    5  A    between atoms: C14_21  and  C15_23 
REMARK    6  A    between atoms: C15_23  and  S1_24 
REMARK    7  A    between atoms: S1_24  and  C16_25 
REMARK    8  A    between atoms: C17_30  and  C18_31 
REMARK    9  A    between atoms: C18_31  and  O2_32 
REMARK   10  A    between atoms: N5_34  and  C19_35 
REMARK   11  A    between atoms: C19_35  and  C20_36 
REMARK   12  A    between atoms: C20_36  and  C21_37 
REMARK   13  A    between atoms: C21_37  and  C22_38 
REMARK   14  A    between atoms: C22_38  and  C23_39 
REMARK       I    between atoms: C23_39  and  N6_41 
ROOT
HETATM    1  C15 UNL     1      17.247  31.227  34.346  1.00  0.00     0.186 C 
ENDROOT
BRANCH   1   2
HETATM    2  C14 UNL     1      17.476  30.679  32.979  1.00  0.00     0.245 C 
HETATM    3  N2  UNL     1      17.441  31.576  31.881  1.00  0.00    -0.270 N 
ATOM      4  H2  UNL     1      17.261  32.562  32.067  1.00  0.00     0.190 HD
HETATM    5  O1  UNL     1      17.696  29.464  32.777  1.00  0.00    -0.271 OA
BRANCH   3   6
HETATM    6  N1  UNL     1      17.639  31.181  30.568  1.00  0.00    -0.308 N 
HETATM    7  C13 UNL     1      16.844  31.383  29.612  1.00  0.00     0.119 C 
ATOM      8  H1  UNL     1      18.503  30.682  30.357  1.00  0.00     0.186 HD
BRANCH   7   9
HETATM    9  C12 UNL     1      17.118  30.939  28.252  1.00  0.00    -0.013 A 
HETATM   10  C2  UNL     1      16.875  31.780  27.195  1.00  0.00    -0.050 A 
HETATM   11  C1  UNL     1      16.346  33.168  27.330  1.00  0.00     0.049 C 
HETATM   12  C3  UNL     1      17.154  31.285  25.944  1.00  0.00     0.015 A 
HETATM   13  C4  UNL     1      17.664  29.992  25.705  1.00  0.00    -0.054 A 
HETATM   14  C5  UNL     1      17.854  29.572  24.327  1.00  0.00     0.049 C 
HETATM   15  C6  UNL     1      17.911  29.149  26.744  1.00  0.00    -0.035 A 
HETATM   16  C11 UNL     1      17.622  29.659  28.024  1.00  0.00     0.022 A 
BRANCH  15  17
HETATM   17  C7  UNL     1      18.485  27.852  26.682  1.00  0.00     0.078 C 
HETATM   18  C8  UNL     1      18.315  27.191  28.101  1.00  0.00     0.029 C 
HETATM   19  C9  UNL     1      18.151  26.816  25.735  1.00  0.00     0.029 C 
BRANCH  17  20
HETATM   20  C10 UNL     1      20.030  27.970  26.686  1.00  0.00     0.398 C 
HETATM   21  F1  UNL     1      20.406  29.302  26.716  1.00  0.00    -0.170 F 
HETATM   22  F2  UNL     1      20.613  27.378  25.645  1.00  0.00    -0.170 F 
HETATM   23  F3  UNL     1      20.505  27.415  27.882  1.00  0.00    -0.170 F 
ENDBRANCH  17  20
ENDBRANCH  15  17
ENDBRANCH   7   9
ENDBRANCH   3   6
ENDBRANCH   1   2
BRANCH   1  24
HETATM   24  S1  UNL     1      17.451  33.007  34.379  1.00  0.00    -0.083 SA
BRANCH  24  25
HETATM   25  C16 UNL     1      18.688  33.563  35.541  1.00  0.00     0.163 A 
HETATM   26  N3  UNL     1      19.784  34.241  35.186  1.00  0.00    -0.278 N 
HETATM   27  N4  UNL     1      20.468  34.505  36.282  1.00  0.00    -0.285 N 
ATOM     28  H3  UNL     1      20.045  34.507  34.236  1.00  0.00     0.189 HD
HETATM   29  C17 UNL     1      19.813  33.996  37.337  1.00  0.00     0.124 A 
ATOM     30  H4  UNL     1      21.353  35.012  36.321  1.00  0.00     0.188 HD
HETATM   31  N5  UNL     1      18.710  33.412  36.865  1.00  0.00    -0.313 N 
BRANCH  29  32
HETATM   32  C18 UNL     1      20.258  34.072  38.780  1.00  0.00     0.242 C 
BRANCH  32  33
HETATM   33  O2  UNL     1      21.438  34.783  38.879  1.00  0.00    -0.393 OA
ATOM     34  H2  UNL     1      21.259  35.715  38.914  1.00  0.00     0.209 HD
ENDBRANCH  32  33
ENDBRANCH  29  32
BRANCH  31  35
HETATM   35  C19 UNL     1      17.709  32.720  37.656  1.00  0.00     0.133 C 
BRANCH  35  36
HETATM   36  C20 UNL     1      16.507  33.609  37.920  1.00  0.00     0.021 C 
BRANCH  36  37
HETATM   37  C21 UNL     1      15.836  33.294  39.234  1.00  0.00     0.011 C 
BRANCH  37  38
HETATM   38  C22 UNL     1      16.717  33.702  40.398  1.00  0.00     0.103 C 
BRANCH  38  39
HETATM   39  C23 UNL     1      16.077  33.378  41.685  1.00  0.00     0.219 C 
HETATM   40  O3  UNL     1      15.214  32.428  41.703  1.00  0.00    -0.273 OA
HETATM   41  N6  UNL     1      16.338  34.031  42.912  1.00  0.00    -0.352 N 
HETATM   42  C24 UNL     1      17.286  35.121  42.927  1.00  0.00     0.125 C 
HETATM   43  C28 UNL     1      15.645  33.581  44.102  1.00  0.00     0.125 C 
HETATM   44  C25 UNL     1      16.840  36.254  43.823  1.00  0.00     0.020 C 
HETATM   45  C26 UNL     1      16.176  35.746  45.083  1.00  0.00     0.003 C 
HETATM   46  C27 UNL     1      15.042  34.790  44.765  1.00  0.00     0.020 C 
ENDBRANCH  38  39
ENDBRANCH  37  38
ENDBRANCH  36  37
ENDBRANCH  35  36
ENDBRANCH  31  35
ENDBRANCH  24  25
ENDBRANCH   1  24
TORSDOF 14
ENDMDL
MODEL 5
REMARK VINA RESULT: -8.953954625      4.226      8.045
REMARK  14 active torsions:
REMARK  status: ('A' for Active; 'I' for Inactive)
REMARK    1  A    between atoms: C6_6  and  C7_7 
REMARK    2  A    between atoms: C7_7  and  C10_10 
REMARK    3  A    between atoms: C12_15  and  C13_16 
REMARK    4  A    between atoms: N1_17  and  N2_19 
REMARK       I    between atoms: N2_19  and  C14_21 
REMARK    5  A    between atoms: C14_21  and  C15_23 
REMARK    6  A    between atoms: C15_23  and  S1_24 
REMARK    7  A    between atoms: S1_24  and  C16_25 
REMARK    8  A    between atoms: C17_30  and  C18_31 
REMARK    9  A    between atoms: C18_31  and  O2_32 
REMARK   10  A    between atoms: N5_34  and  C19_35 
REMARK   11  A    between atoms: C19_35  and  C20_36 
REMARK   12  A    between atoms: C20_36  and  C21_37 
REMARK   13  A    between atoms: C21_37  and  C22_38 
REMARK   14  A    between atoms: C22_38  and  C23_39 
REMARK       I    between atoms: C23_39  and  N6_41 
ROOT
HETATM    1  C15 UNL     1      23.118  31.680  36.514  1.00  0.00     0.186 C 
ENDROOT
BRANCH   1   2
HETATM    2  C14 UNL     1      21.777  31.912  37.123  1.00  0.00     0.245 C 
HETATM    3  N2  UNL     1      20.828  32.669  36.388  1.00  0.00    -0.270 N 
ATOM      4  H2  UNL     1      21.099  33.026  35.472  1.00  0.00     0.190 HD
HETATM    5  O1  UNL     1      21.470  31.462  38.249  1.00  0.00    -0.271 OA
BRANCH   3   6
HETATM    6  N1  UNL     1      19.553  32.949  36.852  1.00  0.00    -0.308 N 
HETATM    7  C13 UNL     1      18.541  32.214  36.707  1.00  0.00     0.119 C 
ATOM      8  H1  UNL     1      19.423  33.826  37.356  1.00  0.00     0.186 HD
BRANCH   7   9
HETATM    9  C12 UNL     1      17.227  32.571  37.223  1.00  0.00    -0.013 A 
HETATM   10  C2  UNL     1      16.098  32.237  36.516  1.00  0.00    -0.050 A 
HETATM   11  C1  UNL     1      16.108  31.497  35.221  1.00  0.00     0.049 C 
HETATM   12  C3  UNL     1      14.898  32.614  37.067  1.00  0.00     0.015 A 
HETATM   13  C4  UNL     1      14.777  33.309  38.289  1.00  0.00    -0.054 A 
HETATM   14  C5  UNL     1      13.448  33.703  38.725  1.00  0.00     0.049 C 
HETATM   15  C6  UNL     1      15.886  33.645  39.000  1.00  0.00    -0.035 A 
HETATM   16  C11 UNL     1      17.115  33.258  38.432  1.00  0.00     0.022 A 
BRANCH  15  17
HETATM   17  C7  UNL     1      15.935  34.276  40.271  1.00  0.00     0.078 C 
HETATM   18  C8  UNL     1      17.382  34.870  40.448  1.00  0.00     0.029 C 
HETATM   19  C9  UNL     1      15.039  35.302  40.749  1.00  0.00     0.029 C 
BRANCH  17  20
HETATM   20  C10 UNL     1      16.010  33.198  41.381  1.00  0.00     0.398 C 
HETATM   21  F1  UNL     1      17.331  32.890  41.658  1.00  0.00    -0.170 F 
HETATM   22  F2  UNL     1      15.357  32.076  41.081  1.00  0.00    -0.170 F 
HETATM   23  F3  UNL     1      15.495  33.752  42.561  1.00  0.00    -0.170 F 
ENDBRANCH  17  20
ENDBRANCH  15  17
ENDBRANCH   7   9
ENDBRANCH   3   6
ENDBRANCH   1   2
BRANCH   1  24
HETATM   24  S1  UNL     1      23.882  33.220  36.009  1.00  0.00    -0.083 SA
BRANCH  24  25
HETATM   25  C16 UNL     1      24.096  34.384  37.348  1.00  0.00     0.163 A 
HETATM   26  N3  UNL     1      23.118  35.175  37.802  1.00  0.00    -0.278 N 
HETATM   27  N4  UNL     1      23.608  35.892  38.794  1.00  0.00    -0.285 N 
ATOM     28  H3  UNL     1      22.164  35.216  37.445  1.00  0.00     0.189 HD
HETATM   29  C17 UNL     1      24.897  35.562  38.975  1.00  0.00     0.124 A 
ATOM     30  H4  UNL     1      23.092  36.585  39.336  1.00  0.00     0.188 HD
HETATM   31  N5  UNL     1      25.189  34.626  38.070  1.00  0.00    -0.313 N 
BRANCH  29  32
HETATM   32  C18 UNL     1      25.829  36.155  40.007  1.00  0.00     0.242 C 
BRANCH  32  33
HETATM   33  O2  UNL     1      26.385  37.326  39.533  1.00  0.00    -0.393 OA
ATOM     34  H2  UNL     1      27.316  37.348  39.721  1.00  0.00     0.209 HD
ENDBRANCH  32  33
ENDBRANCH  29  32
BRANCH  31  35
HETATM   35  C19 UNL     1      26.480  33.988  37.894  1.00  0.00     0.133 C 
BRANCH  35  36
HETATM   36  C20 UNL     1      27.317  34.719  36.859  1.00  0.00     0.021 C 
BRANCH  36  37
HETATM   37  C21 UNL     1      27.587  33.876  35.638  1.00  0.00     0.011 C 
BRANCH  37  38
HETATM   38  C22 UNL     1      28.626  34.531  34.751  1.00  0.00     0.103 C 
BRANCH  38  39
HETATM   39  C23 UNL     1      27.989  35.278  33.652  1.00  0.00     0.219 C 
HETATM   40  O3  UNL     1      26.773  34.990  33.358  1.00  0.00    -0.273 OA
HETATM   41  N6  UNL     1      28.609  36.296  32.890  1.00  0.00    -0.352 N 
HETATM   42  C24 UNL     1      29.985  36.632  33.178  1.00  0.00     0.125 C 
HETATM   43  C28 UNL     1      27.841  36.958  31.856  1.00  0.00     0.125 C 
HETATM   44  C25 UNL     1      30.782  36.899  31.921  1.00  0.00     0.020 C 
HETATM   45  C26 UNL     1      29.968  37.646  30.888  1.00  0.00     0.003 C 
HETATM   46  C27 UNL     1      28.660  36.935  30.594  1.00  0.00     0.020 C 
ENDBRANCH  38  39
ENDBRANCH  37  38
ENDBRANCH  36  37
ENDBRANCH  35  36
ENDBRANCH  31  35
ENDBRANCH  24  25
ENDBRANCH   1  24
TORSDOF 14
ENDMDL
