MODEL 1
REMARK VINA RESULT: -7.809337696      0.000      0.000
REMARK  11 active torsions:
REMARK  status: ('A' for Active; 'I' for Inactive)
REMARK    1  A    between atoms: C2_2  and  C3_3 
REMARK    2  A    between atoms: C3_3  and  C4_4 
REMARK    3  A    between atoms: C4_4  and  C5_5 
REMARK    4  A    between atoms: C5_5  and  C6_6 
REMARK    5  A    between atoms: C6_6  and  C7_7 
REMARK    6  A    between atoms: C7_7  and  C8_8 
REMARK    7  A    between atoms: C7_7  and  C12_17 
REMARK       I    between atoms: C8_8  and  N1_10 
REMARK    8  A    between atoms: C14_22  and  C15_23 
REMARK    9  A    between atoms: C15_23  and  C17_25 
REMARK   10  A    between atoms: C20_31  and  C21_32 
REMARK   11  A    between atoms: C21_32  and  C22_33 
ROOT
HETATM    1  C12 UNL     1      19.953  34.036  36.863  1.00  0.00     0.159 C 
HETATM    2  N2  UNL     1      18.998  34.376  35.847  1.00  0.00    -0.345 N 
ATOM      3  H2  UNL     1      19.084  35.309  35.447  1.00  0.00     0.163 HD
HETATM    4  C13 UNL     1      17.964  33.585  35.340  1.00  0.00     0.241 C 
HETATM    5  O2  UNL     1      17.691  33.644  34.093  1.00  0.00    -0.271 OA
HETATM    6  C14 UNL     1      17.131  32.658  36.142  1.00  0.00     0.180 C 
HETATM    7  N3  UNL     1      15.972  33.392  36.583  1.00  0.00    -0.347 N 
ATOM      8  H3  UNL     1      15.476  33.962  35.898  1.00  0.00     0.163 HD
HETATM    9  C19 UNL     1      15.479  33.368  37.917  1.00  0.00     0.222 C 
HETATM   10  O3  UNL     1      14.231  33.410  38.058  1.00  0.00    -0.273 OA
HETATM   11  C20 UNL     1      16.352  33.300  39.112  1.00  0.00     0.084 C 
HETATM   12  C23 UNL     1      17.256  34.509  39.216  1.00  0.00     0.024 C 
HETATM   13  C24 UNL     1      18.678  34.156  39.583  1.00  0.00     0.077 C 
HETATM   14  S4  UNL     1      19.839  34.897  38.406  1.00  0.00    -0.143 SA
ENDROOT
BRANCH   1  15
HETATM   15  C7  UNL     1      21.368  34.014  36.309  1.00  0.00     0.111 C 
BRANCH  15  16
HETATM   16  C6  UNL     1      22.335  34.899  36.998  1.00  0.00     0.017 C 
BRANCH  16  17
HETATM   17  C5  UNL     1      23.748  34.397  37.104  1.00  0.00     0.001 C 
BRANCH  17  18
HETATM   18  C4  UNL     1      24.396  34.905  38.385  1.00  0.00     0.000 C 
BRANCH  18  19
HETATM   19  C3  UNL     1      23.469  34.828  39.564  1.00  0.00    -0.000 C 
BRANCH  19  20
HETATM   20  C2  UNL     1      24.058  35.498  40.792  1.00  0.00    -0.005 C 
HETATM   21  C1  UNL     1      25.362  36.168  40.431  1.00  0.00     0.005 C 
ENDBRANCH  19  20
ENDBRANCH  18  19
ENDBRANCH  17  18
ENDBRANCH  16  17
ENDBRANCH  15  16
BRANCH  15  22
HETATM   22  C8  UNL     1      21.832  32.629  36.072  1.00  0.00     0.228 C 
HETATM   23  O1  UNL     1      21.593  31.816  37.002  1.00  0.00    -0.273 OA
HETATM   24  N1  UNL     1      22.505  32.148  34.923  1.00  0.00    -0.333 N 
HETATM   25  C9  UNL     1      22.767  33.080  33.865  1.00  0.00     0.207 C 
HETATM   26  C11 UNL     1      22.864  30.759  34.911  1.00  0.00     0.207 C 
HETATM   27  S1  UNL     1      22.924  32.298  32.217  1.00  0.00    -0.091 SA
HETATM   28  C10 UNL     1      24.207  31.064  32.405  1.00  0.00     0.107 C 
HETATM   29  S2  UNL     1      24.933  30.560  31.340  1.00  0.00    -0.065 SA
HETATM   30  S3  UNL     1      24.473  30.532  34.092  1.00  0.00    -0.091 SA
ENDBRANCH  15  22
ENDBRANCH   1  15
BRANCH   6  31
HETATM   31  C15 UNL     1      16.897  31.333  35.557  1.00  0.00     0.013 C 
HETATM   32  C16 UNL     1      18.238  30.715  35.105  1.00  0.00     0.012 C 
BRANCH  31  33
HETATM   33  C17 UNL     1      15.914  31.163  34.472  1.00  0.00     0.002 C 
HETATM   34  C18 UNL     1      16.497  30.650  33.177  1.00  0.00     0.005 C 
ENDBRANCH  31  33
ENDBRANCH   6  31
BRANCH  11  35
HETATM   35  C21 UNL     1      15.480  33.139  40.326  1.00  0.00     0.085 C 
BRANCH  35  36
HETATM   36  C22 UNL     1      16.227  32.687  41.549  1.00  0.00     0.354 C 
HETATM   37  F1  UNL     1      15.512  31.744  42.234  1.00  0.00    -0.214 F 
HETATM   38  F2  UNL     1      16.347  33.801  42.379  1.00  0.00    -0.214 F 
ENDBRANCH  35  36
ENDBRANCH  11  35
TORSDOF 11
ENDMDL
MODEL 2
REMARK VINA RESULT: -7.730145268      3.162      6.911
REMARK  11 active torsions:
REMARK  status: ('A' for Active; 'I' for Inactive)
REMARK    1  A    between atoms: C2_2  and  C3_3 
REMARK    2  A    between atoms: C3_3  and  C4_4 
REMARK    3  A    between atoms: C4_4  and  C5_5 
REMARK    4  A    between atoms: C5_5  and  C6_6 
REMARK    5  A    between atoms: C6_6  and  C7_7 
REMARK    6  A    between atoms: C7_7  and  C8_8 
REMARK    7  A    between atoms: C7_7  and  C12_17 
REMARK       I    between atoms: C8_8  and  N1_10 
REMARK    8  A    between atoms: C14_22  and  C15_23 
REMARK    9  A    between atoms: C15_23  and  C17_25 
REMARK   10  A    between atoms: C20_31  and  C21_32 
REMARK   11  A    between atoms: C21_32  and  C22_33 
ROOT
HETATM    1  C12 UNL     1      20.315  32.231  36.665  1.00  0.00     0.159 C 
HETATM    2  N2  UNL     1      21.386  31.298  36.460  1.00  0.00    -0.345 N 
ATOM      3  H2  UNL     1      21.304  30.407  36.949  1.00  0.00     0.163 HD
HETATM    4  C13 UNL     1      22.528  31.461  35.672  1.00  0.00     0.241 C 
HETATM    5  O2  UNL     1      22.977  30.462  35.014  1.00  0.00    -0.271 OA
HETATM    6  C14 UNL     1      23.289  32.725  35.529  1.00  0.00     0.180 C 
HETATM    7  N3  UNL     1      24.325  32.720  36.530  1.00  0.00    -0.347 N 
ATOM      8  H3  UNL     1      24.880  31.873  36.642  1.00  0.00     0.163 HD
HETATM    9  C19 UNL     1      24.618  33.829  37.373  1.00  0.00     0.222 C 
HETATM   10  O3  UNL     1      25.827  34.015  37.660  1.00  0.00    -0.273 OA
HETATM   11  C20 UNL     1      23.585  34.744  37.912  1.00  0.00     0.084 C 
HETATM   12  C23 UNL     1      22.605  34.018  38.808  1.00  0.00     0.024 C 
HETATM   13  C24 UNL     1      21.168  34.409  38.552  1.00  0.00     0.077 C 
HETATM   14  S4  UNL     1      20.150  32.935  38.280  1.00  0.00    -0.143 SA
ENDROOT
BRANCH   1  15
HETATM   15  C7  UNL     1      19.000  31.692  36.124  1.00  0.00     0.111 C 
BRANCH  15  16
HETATM   16  C6  UNL     1      17.858  31.737  37.067  1.00  0.00     0.017 C 
BRANCH  16  17
HETATM   17  C5  UNL     1      16.486  31.625  36.466  1.00  0.00     0.001 C 
BRANCH  17  18
HETATM   18  C4  UNL     1      15.504  32.514  37.217  1.00  0.00     0.000 C 
BRANCH  18  19
HETATM   19  C3  UNL     1      16.197  33.516  38.095  1.00  0.00    -0.000 C 
BRANCH  19  20
HETATM   20  C2  UNL     1      15.645  33.507  39.510  1.00  0.00    -0.005 C 
HETATM   21  C1  UNL     1      16.784  33.507  40.501  1.00  0.00     0.005 C 
ENDBRANCH  19  20
ENDBRANCH  18  19
ENDBRANCH  17  18
ENDBRANCH  16  17
ENDBRANCH  15  16
BRANCH  15  22
HETATM   22  C8  UNL     1      18.722  32.211  34.767  1.00  0.00     0.228 C 
HETATM   23  O1  UNL     1      18.329  33.405  34.719  1.00  0.00    -0.273 OA
HETATM   24  N1  UNL     1      18.855  31.503  33.548  1.00  0.00    -0.333 N 
HETATM   25  C9  UNL     1      19.310  30.145  33.613  1.00  0.00     0.207 C 
HETATM   26  C11 UNL     1      18.528  32.211  32.344  1.00  0.00     0.207 C 
HETATM   27  S1  UNL     1      20.143  29.575  32.085  1.00  0.00    -0.091 SA
HETATM   28  C10 UNL     1      18.962  29.862  30.772  1.00  0.00     0.107 C 
HETATM   29  S2  UNL     1      19.001  29.194  29.561  1.00  0.00    -0.065 SA
HETATM   30  S3  UNL     1      17.722  31.093  31.156  1.00  0.00    -0.091 SA
ENDBRANCH  15  22
ENDBRANCH   1  15
BRANCH   6  31
HETATM   31  C15 UNL     1      23.685  33.087  34.163  1.00  0.00     0.013 C 
HETATM   32  C16 UNL     1      25.059  33.791  34.184  1.00  0.00     0.012 C 
BRANCH  31  33
HETATM   33  C17 UNL     1      22.772  33.867  33.308  1.00  0.00     0.002 C 
HETATM   34  C18 UNL     1      23.334  34.216  31.951  1.00  0.00     0.005 C 
ENDBRANCH  31  33
ENDBRANCH   6  31
BRANCH  11  35
HETATM   35  C21 UNL     1      24.278  35.871  38.625  1.00  0.00     0.085 C 
BRANCH  35  36
HETATM   36  C22 UNL     1      24.328  35.698  40.117  1.00  0.00     0.354 C 
HETATM   37  F1  UNL     1      23.591  36.665  40.743  1.00  0.00    -0.214 F 
HETATM   38  F2  UNL     1      25.658  35.880  40.496  1.00  0.00    -0.214 F 
ENDBRANCH  35  36
ENDBRANCH  11  35
TORSDOF 11
ENDMDL
MODEL 3
REMARK VINA RESULT: -7.649618728      4.126      7.620
REMARK  11 active torsions:
REMARK  status: ('A' for Active; 'I' for Inactive)
REMARK    1  A    between atoms: C2_2  and  C3_3 
REMARK    2  A    between atoms: C3_3  and  C4_4 
REMARK    3  A    between atoms: C4_4  and  C5_5 
REMARK    4  A    between atoms: C5_5  and  C6_6 
REMARK    5  A    between atoms: C6_6  and  C7_7 
REMARK    6  A    between atoms: C7_7  and  C8_8 
REMARK    7  A    between atoms: C7_7  and  C12_17 
REMARK       I    between atoms: C8_8  and  N1_10 
REMARK    8  A    between atoms: C14_22  and  C15_23 
REMARK    9  A    between atoms: C15_23  and  C17_25 
REMARK   10  A    between atoms: C20_31  and  C21_32 
REMARK   11  A    between atoms: C21_32  and  C22_33 
ROOT
HETATM    1  C12 UNL     1      19.474  31.816  34.427  1.00  0.00     0.159 C 
HETATM    2  N2  UNL     1      19.138  33.207  34.535  1.00  0.00    -0.345 N 
ATOM      3  H2  UNL     1      18.902  33.679  33.663  1.00  0.00     0.163 HD
HETATM    4  C13 UNL     1      19.094  33.993  35.689  1.00  0.00     0.241 C 
HETATM    5  O2  UNL     1      18.177  34.875  35.806  1.00  0.00    -0.271 OA
HETATM    6  C14 UNL     1      20.045  33.894  36.822  1.00  0.00     0.180 C 
HETATM    7  N3  UNL     1      21.115  34.826  36.568  1.00  0.00    -0.347 N 
ATOM      8  H3  UNL     1      20.868  35.769  36.270  1.00  0.00     0.163 HD
HETATM    9  C19 UNL     1      22.494  34.507  36.709  1.00  0.00     0.222 C 
HETATM   10  O3  UNL     1      23.242  35.418  37.143  1.00  0.00    -0.273 OA
HETATM   11  C20 UNL     1      23.068  33.183  36.372  1.00  0.00     0.084 C 
HETATM   12  C23 UNL     1      22.898  32.856  34.904  1.00  0.00     0.024 C 
HETATM   13  C24 UNL     1      22.446  31.434  34.662  1.00  0.00     0.077 C 
HETATM   14  S4  UNL     1      20.982  31.407  33.596  1.00  0.00    -0.143 SA
ENDROOT
BRANCH   1  15
HETATM   15  C7  UNL     1      18.293  30.997  33.931  1.00  0.00     0.111 C 
BRANCH  15  16
HETATM   16  C6  UNL     1      17.075  31.064  34.772  1.00  0.00     0.017 C 
BRANCH  16  17
HETATM   17  C5  UNL     1      15.759  31.098  34.047  1.00  0.00     0.001 C 
BRANCH  17  18
HETATM   18  C4  UNL     1      14.820  32.103  34.700  1.00  0.00     0.000 C 
BRANCH  18  19
HETATM   19  C3  UNL     1      15.409  32.713  35.940  1.00  0.00    -0.000 C 
BRANCH  19  20
HETATM   20  C2  UNL     1      14.585  32.395  37.175  1.00  0.00    -0.005 C 
HETATM   21  C1  UNL     1      13.234  33.061  37.072  1.00  0.00     0.005 C 
ENDBRANCH  19  20
ENDBRANCH  18  19
ENDBRANCH  17  18
ENDBRANCH  16  17
ENDBRANCH  15  16
BRANCH  15  22
HETATM   22  C8  UNL     1      18.074  31.191  32.481  1.00  0.00     0.228 C 
HETATM   23  O1  UNL     1      17.799  32.368  32.132  1.00  0.00    -0.273 OA
HETATM   24  N1  UNL     1      18.143  30.196  31.475  1.00  0.00    -0.333 N 
HETATM   25  C9  UNL     1      18.463  28.859  31.882  1.00  0.00     0.207 C 
HETATM   26  C11 UNL     1      17.892  30.614  30.126  1.00  0.00     0.207 C 
HETATM   27  S1  UNL     1      19.245  27.857  30.564  1.00  0.00    -0.091 SA
HETATM   28  C10 UNL     1      18.104  27.922  29.188  1.00  0.00     0.107 C 
HETATM   29  S2  UNL     1      18.083  26.976  28.178  1.00  0.00    -0.065 SA
HETATM   30  S3  UNL     1      16.987  29.318  29.224  1.00  0.00    -0.091 SA
ENDBRANCH  15  22
ENDBRANCH   1  15
BRANCH   6  31
HETATM   31  C15 UNL     1      19.453  33.910  38.164  1.00  0.00     0.013 C 
HETATM   32  C16 UNL     1      20.498  33.456  39.204  1.00  0.00     0.012 C 
BRANCH  31  33
HETATM   33  C17 UNL     1      18.190  33.195  38.426  1.00  0.00     0.002 C 
HETATM   34  C18 UNL     1      17.182  33.983  39.227  1.00  0.00     0.005 C 
ENDBRANCH  31  33
ENDBRANCH   6  31
BRANCH  11  35
HETATM   35  C21 UNL     1      24.511  33.172  36.791  1.00  0.00     0.085 C 
BRANCH  35  36
HETATM   36  C22 UNL     1      25.473  33.234  35.639  1.00  0.00     0.354 C 
HETATM   37  F1  UNL     1      26.073  32.021  35.441  1.00  0.00    -0.214 F 
HETATM   38  F2  UNL     1      26.473  34.137  36.001  1.00  0.00    -0.214 F 
ENDBRANCH  35  36
ENDBRANCH  11  35
TORSDOF 11
ENDMDL
MODEL 4
REMARK VINA RESULT: -7.642987808      1.171      1.365
REMARK  11 active torsions:
REMARK  status: ('A' for Active; 'I' for Inactive)
REMARK    1  A    between atoms: C2_2  and  C3_3 
REMARK    2  A    between atoms: C3_3  and  C4_4 
REMARK    3  A    between atoms: C4_4  and  C5_5 
REMARK    4  A    between atoms: C5_5  and  C6_6 
REMARK    5  A    between atoms: C6_6  and  C7_7 
REMARK    6  A    between atoms: C7_7  and  C8_8 
REMARK    7  A    between atoms: C7_7  and  C12_17 
REMARK       I    between atoms: C8_8  and  N1_10 
REMARK    8  A    between atoms: C14_22  and  C15_23 
REMARK    9  A    between atoms: C15_23  and  C17_25 
REMARK   10  A    between atoms: C20_31  and  C21_32 
REMARK   11  A    between atoms: C21_32  and  C22_33 
ROOT
HETATM    1  C12 UNL     1      20.801  33.695  36.758  1.00  0.00     0.159 C 
HETATM    2  N2  UNL     1      20.115  33.935  35.521  1.00  0.00    -0.345 N 
ATOM      3  H2  UNL     1      20.306  34.828  35.069  1.00  0.00     0.163 HD
HETATM    4  C13 UNL     1      19.216  33.094  34.859  1.00  0.00     0.241 C 
HETATM    5  O2  UNL     1      19.242  33.038  33.583  1.00  0.00    -0.271 OA
HETATM    6  C14 UNL     1      18.204  32.239  35.525  1.00  0.00     0.180 C 
HETATM    7  N3  UNL     1      16.986  33.003  35.615  1.00  0.00    -0.347 N 
ATOM      8  H3  UNL     1      16.673  33.505  34.785  1.00  0.00     0.163 HD
HETATM    9  C19 UNL     1      16.195  33.098  36.794  1.00  0.00     0.222 C 
HETATM   10  O3  UNL     1      14.950  33.144  36.635  1.00  0.00    -0.273 OA
HETATM   11  C20 UNL     1      16.765  33.144  38.161  1.00  0.00     0.084 C 
HETATM   12  C23 UNL     1      17.638  34.364  38.363  1.00  0.00     0.024 C 
HETATM   13  C24 UNL     1      18.930  34.054  39.083  1.00  0.00     0.077 C 
HETATM   14  S4  UNL     1      20.344  34.692  38.147  1.00  0.00    -0.143 SA
ENDROOT
BRANCH   1  15
HETATM   15  C7  UNL     1      22.306  33.631  36.553  1.00  0.00     0.111 C 
BRANCH  15  16
HETATM   16  C6  UNL     1      23.119  34.297  37.597  1.00  0.00     0.017 C 
BRANCH  16  17
HETATM   17  C5  UNL     1      24.611  34.219  37.438  1.00  0.00     0.001 C 
BRANCH  17  18
HETATM   18  C4  UNL     1      25.305  34.957  38.576  1.00  0.00     0.000 C 
BRANCH  18  19
HETATM   19  C3  UNL     1      24.438  36.028  39.175  1.00  0.00    -0.000 C 
BRANCH  19  20
HETATM   20  C2  UNL     1      24.515  36.036  40.691  1.00  0.00    -0.005 C 
HETATM   21  C1  UNL     1      23.809  34.821  41.244  1.00  0.00     0.005 C 
ENDBRANCH  19  20
ENDBRANCH  18  19
ENDBRANCH  17  18
ENDBRANCH  16  17
ENDBRANCH  15  16
BRANCH  15  22
HETATM   22  C8  UNL     1      22.742  32.266  36.185  1.00  0.00     0.228 C 
HETATM   23  O1  UNL     1      22.619  31.400  37.089  1.00  0.00    -0.273 OA
HETATM   24  N1  UNL     1      23.274  31.857  34.937  1.00  0.00    -0.333 N 
HETATM   25  C9  UNL     1      23.405  32.849  33.911  1.00  0.00     0.207 C 
HETATM   26  C11 UNL     1      23.632  30.474  34.804  1.00  0.00     0.207 C 
HETATM   27  S1  UNL     1      23.365  32.163  32.214  1.00  0.00    -0.091 SA
HETATM   28  C10 UNL     1      24.664  30.933  32.177  1.00  0.00     0.107 C 
HETATM   29  S2  UNL     1      25.259  30.496  31.006  1.00  0.00    -0.065 SA
HETATM   30  S3  UNL     1      25.132  30.308  33.787  1.00  0.00    -0.091 SA
ENDBRANCH  15  22
ENDBRANCH   1  15
BRANCH   6  31
HETATM   31  C15 UNL     1      18.094  30.864  35.024  1.00  0.00     0.013 C 
HETATM   32  C16 UNL     1      19.501  30.278  34.783  1.00  0.00     0.012 C 
BRANCH  31  33
HETATM   33  C17 UNL     1      17.256  30.568  33.847  1.00  0.00     0.002 C 
HETATM   34  C18 UNL     1      17.923  29.699  32.810  1.00  0.00     0.005 C 
ENDBRANCH  31  33
ENDBRANCH   6  31
BRANCH  11  35
HETATM   35  C21 UNL     1      15.631  33.089  39.147  1.00  0.00     0.085 C 
BRANCH  35  36
HETATM   36  C22 UNL     1      15.615  34.242  40.111  1.00  0.00     0.354 C 
HETATM   37  F1  UNL     1      15.824  33.807  41.391  1.00  0.00    -0.214 F 
HETATM   38  F2  UNL     1      14.333  34.787  40.061  1.00  0.00    -0.214 F 
ENDBRANCH  35  36
ENDBRANCH  11  35
TORSDOF 11
ENDMDL
MODEL 5
REMARK VINA RESULT: -7.604601033      0.940      1.190
REMARK  11 active torsions:
REMARK  status: ('A' for Active; 'I' for Inactive)
REMARK    1  A    between atoms: C2_2  and  C3_3 
REMARK    2  A    between atoms: C3_3  and  C4_4 
REMARK    3  A    between atoms: C4_4  and  C5_5 
REMARK    4  A    between atoms: C5_5  and  C6_6 
REMARK    5  A    between atoms: C6_6  and  C7_7 
REMARK    6  A    between atoms: C7_7  and  C8_8 
REMARK    7  A    between atoms: C7_7  and  C12_17 
REMARK       I    between atoms: C8_8  and  N1_10 
REMARK    8  A    between atoms: C14_22  and  C15_23 
REMARK    9  A    between atoms: C15_23  and  C17_25 
REMARK   10  A    between atoms: C20_31  and  C21_32 
REMARK   11  A    between atoms: C21_32  and  C22_33 
ROOT
HETATM    1  C12 UNL     1      20.154  34.017  36.638  1.00  0.00     0.159 C 
HETATM    2  N2  UNL     1      19.194  34.308  35.611  1.00  0.00    -0.345 N 
ATOM      3  H2  UNL     1      19.257  35.235  35.190  1.00  0.00     0.163 HD
HETATM    4  C13 UNL     1      18.185  33.479  35.118  1.00  0.00     0.241 C 
HETATM    5  O2  UNL     1      17.915  33.503  33.869  1.00  0.00    -0.271 OA
HETATM    6  C14 UNL     1      17.373  32.547  35.937  1.00  0.00     0.180 C 
HETATM    7  N3  UNL     1      16.193  33.259  36.357  1.00  0.00    -0.347 N 
ATOM      8  H3  UNL     1      15.685  33.800  35.658  1.00  0.00     0.163 HD
HETATM    9  C19 UNL     1      15.695  33.251  37.690  1.00  0.00     0.222 C 
HETATM   10  O3  UNL     1      14.447  33.261  37.825  1.00  0.00    -0.273 OA
HETATM   11  C20 UNL     1      16.565  33.233  38.889  1.00  0.00     0.084 C 
HETATM   12  C23 UNL     1      17.435  34.468  38.970  1.00  0.00     0.024 C 
HETATM   13  C24 UNL     1      18.865  34.162  39.350  1.00  0.00     0.077 C 
HETATM   14  S4  UNL     1      20.010  34.908  38.160  1.00  0.00    -0.143 SA
ENDROOT
BRANCH   1  15
HETATM   15  C7  UNL     1      21.571  34.022  36.089  1.00  0.00     0.111 C 
BRANCH  15  16
HETATM   16  C6  UNL     1      22.507  34.959  36.752  1.00  0.00     0.017 C 
BRANCH  16  17
HETATM   17  C5  UNL     1      23.728  34.354  37.386  1.00  0.00     0.001 C 
BRANCH  17  18
HETATM   18  C4  UNL     1      23.983  34.981  38.750  1.00  0.00     0.000 C 
BRANCH  18  19
HETATM   19  C3  UNL     1      25.434  35.299  38.970  1.00  0.00    -0.000 C 
BRANCH  19  20
HETATM   20  C2  UNL     1      26.333  34.525  38.022  1.00  0.00    -0.005 C 
HETATM   21  C1  UNL     1      27.732  35.092  38.070  1.00  0.00     0.005 C 
ENDBRANCH  19  20
ENDBRANCH  18  19
ENDBRANCH  17  18
ENDBRANCH  16  17
ENDBRANCH  15  16
BRANCH  15  22
HETATM   22  C8  UNL     1      22.080  32.645  35.900  1.00  0.00     0.228 C 
HETATM   23  O1  UNL     1      21.818  31.843  36.833  1.00  0.00    -0.273 OA
HETATM   24  N1  UNL     1      22.818  32.161  34.792  1.00  0.00    -0.333 N 
HETATM   25  C9  UNL     1      23.107  33.082  33.732  1.00  0.00     0.207 C 
HETATM   26  C11 UNL     1      23.211  30.782  34.823  1.00  0.00     0.207 C 
HETATM   27  S1  UNL     1      23.361  32.275  32.107  1.00  0.00    -0.091 SA
HETATM   28  C10 UNL     1      24.663  31.078  32.378  1.00  0.00     0.107 C 
HETATM   29  S2  UNL     1      25.450  30.574  31.357  1.00  0.00    -0.065 SA
HETATM   30  S3  UNL     1      24.862  30.581  34.085  1.00  0.00    -0.091 SA
ENDBRANCH  15  22
ENDBRANCH   1  15
BRANCH   6  31
HETATM   31  C15 UNL     1      17.179  31.203  35.381  1.00  0.00     0.013 C 
HETATM   32  C16 UNL     1      18.546  30.576  35.033  1.00  0.00     0.012 C 
BRANCH  31  33
HETATM   33  C17 UNL     1      16.265  30.996  34.242  1.00  0.00     0.002 C 
HETATM   34  C18 UNL     1      16.911  30.368  33.031  1.00  0.00     0.005 C 
ENDBRANCH  31  33
ENDBRANCH   6  31
BRANCH  11  35
HETATM   35  C21 UNL     1      15.692  33.075  40.103  1.00  0.00     0.085 C 
BRANCH  35  36
HETATM   36  C22 UNL     1      15.650  34.296  40.977  1.00  0.00     0.354 C 
HETATM   37  F1  UNL     1      15.388  33.955  42.276  1.00  0.00    -0.214 F 
HETATM   38  F2  UNL     1      14.581  35.072  40.528  1.00  0.00    -0.214 F 
ENDBRANCH  35  36
ENDBRANCH  11  35
TORSDOF 11
ENDMDL
