MODEL 1
REMARK VINA RESULT: -6.892336293      0.000      0.000
REMARK  3 active torsions:
REMARK  status: ('A' for Active; 'I' for Inactive)
REMARK    1  A    between atoms: N1_1  and  C1_4 
REMARK       I    between atoms: N5_15  and  C6_16 
REMARK       I    between atoms: C6_16  and  N6_18 
REMARK    2  A    between atoms: N6_18  and  N7_20 
REMARK    3  A    between atoms: N7_20  and  N8_21 
ROOT
HETATM    1  C1  UNL     1      24.538  73.597  11.186  1.00  0.00     0.131 A 
HETATM    2  N2  UNL     1      23.581  73.689  10.246  1.00  0.00    -0.337 N 
ATOM      3  H2  UNL     1      22.959  72.896  10.092  1.00  0.00     0.168 HD
HETATM    4  C2  UNL     1      23.423  74.804   9.503  1.00  0.00     0.183 A 
HETATM    5  N3  UNL     1      24.216  75.880   9.662  1.00  0.00    -0.336 N 
ATOM      6  H3  UNL     1      24.080  76.713   9.090  1.00  0.00     0.168 HD
HETATM    7  C3  UNL     1      25.194  75.838  10.594  1.00  0.00     0.148 A 
HETATM    8  C4  UNL     1      25.352  74.687  11.358  1.00  0.00     0.122 A 
HETATM    9  N4  UNL     1      26.372  74.917  12.180  1.00  0.00    -0.346 N 
ATOM     10  H4  UNL     1      26.729  74.253  12.866  1.00  0.00     0.167 HD
HETATM   11  C5  UNL     1      26.865  76.150  11.977  1.00  0.00     0.195 A 
HETATM   12  N5  UNL     1      26.120  76.730  10.976  1.00  0.00    -0.242 N 
HETATM   13  C6  UNL     1      26.350  78.040  10.495  1.00  0.00     0.346 C 
HETATM   14  O1  UNL     1      27.304  78.721  11.022  1.00  0.00    -0.245 OA
HETATM   15  N6  UNL     1      25.640  78.710   9.481  1.00  0.00    -0.235 N 
ATOM     16  H6  UNL     1      24.868  78.229   9.019  1.00  0.00     0.189 HD
ENDROOT
BRANCH  15  17
HETATM   17  N7  UNL     1      25.959  80.021   9.085  1.00  0.00    -0.026 NA
BRANCH  17  18
HETATM   18  N8  UNL     1      25.643  80.300   7.772  1.00  0.00    -0.329 N 
ATOM     19  H82 UNL     1      25.580  79.571   7.062  1.00  0.00     0.174 HD
ATOM     20  H81 UNL     1      25.481  81.291   7.588  1.00  0.00     0.174 HD
ENDBRANCH  17  18
ENDBRANCH  15  17
BRANCH   1  21
HETATM   21  N1  UNL     1      24.686  72.524  11.901  1.00  0.00    -0.383 N 
ATOM     22  H12 UNL     1      24.676  72.559  12.920  1.00  0.00     0.157 HD
ATOM     23  H11 UNL     1      24.814  71.609  11.469  1.00  0.00     0.157 HD
ENDBRANCH   1  21
TORSDOF 3
ENDMDL
MODEL 2
REMARK VINA RESULT: -6.788689561      2.612      3.664
REMARK  3 active torsions:
REMARK  status: ('A' for Active; 'I' for Inactive)
REMARK    1  A    between atoms: N1_1  and  C1_4 
REMARK       I    between atoms: N5_15  and  C6_16 
REMARK       I    between atoms: C6_16  and  N6_18 
REMARK    2  A    between atoms: N6_18  and  N7_20 
REMARK    3  A    between atoms: N7_20  and  N8_21 
ROOT
HETATM    1  C1  UNL     1      24.194  72.558   8.793  1.00  0.00     0.131 A 
HETATM    2  N2  UNL     1      25.153  71.645   9.022  1.00  0.00    -0.337 N 
ATOM      3  H2  UNL     1      25.084  70.729   8.578  1.00  0.00     0.168 HD
HETATM    4  C2  UNL     1      26.206  71.908   9.825  1.00  0.00     0.183 A 
HETATM    5  N3  UNL     1      26.350  73.097  10.437  1.00  0.00    -0.336 N 
ATOM      6  H3  UNL     1      27.153  73.276  11.040  1.00  0.00     0.168 HD
HETATM    7  C3  UNL     1      25.412  74.050  10.240  1.00  0.00     0.148 A 
HETATM    8  C4  UNL     1      24.329  73.774   9.412  1.00  0.00     0.122 A 
HETATM    9  N4  UNL     1      23.575  74.870   9.399  1.00  0.00    -0.346 N 
ATOM     10  H4  UNL     1      22.706  74.973   8.877  1.00  0.00     0.167 HD
HETATM   11  C5  UNL     1      24.123  75.822  10.172  1.00  0.00     0.195 A 
HETATM   12  N5  UNL     1      25.283  75.303  10.703  1.00  0.00    -0.242 N 
HETATM   13  C6  UNL     1      26.134  76.028  11.568  1.00  0.00     0.346 C 
HETATM   14  O1  UNL     1      25.805  77.232  11.874  1.00  0.00    -0.245 OA
HETATM   15  N6  UNL     1      27.333  75.579  12.153  1.00  0.00    -0.235 N 
ATOM     16  H6  UNL     1      27.655  74.633  11.953  1.00  0.00     0.189 HD
ENDROOT
BRANCH  15  17
HETATM   17  N7  UNL     1      28.103  76.394  13.002  1.00  0.00    -0.026 NA
BRANCH  17  18
HETATM   18  N8  UNL     1      28.651  77.493  12.376  1.00  0.00    -0.329 N 
ATOM     19  H82 UNL     1      28.332  77.813  11.461  1.00  0.00     0.174 HD
ATOM     20  H81 UNL     1      29.393  77.946  12.910  1.00  0.00     0.174 HD
ENDBRANCH  17  18
ENDBRANCH  15  17
BRANCH   1  21
HETATM   21  N1  UNL     1      23.184  72.302   8.019  1.00  0.00    -0.383 N 
ATOM     22  H12 UNL     1      23.048  72.803   7.141  1.00  0.00     0.157 HD
ATOM     23  H11 UNL     1      22.494  71.591   8.260  1.00  0.00     0.157 HD
ENDBRANCH   1  21
TORSDOF 3
ENDMDL
MODEL 3
REMARK VINA RESULT: -6.628536897      3.373      6.027
REMARK  3 active torsions:
REMARK  status: ('A' for Active; 'I' for Inactive)
REMARK    1  A    between atoms: N1_1  and  C1_4 
REMARK       I    between atoms: N5_15  and  C6_16 
REMARK       I    between atoms: C6_16  and  N6_18 
REMARK    2  A    between atoms: N6_18  and  N7_20 
REMARK    3  A    between atoms: N7_20  and  N8_21 
ROOT
HETATM    1  C1  UNL     1      26.344  75.465  11.040  1.00  0.00     0.131 A 
HETATM    2  N2  UNL     1      27.373  75.127  10.244  1.00  0.00    -0.337 N 
ATOM      3  H2  UNL     1      28.234  75.672  10.287  1.00  0.00     0.168 HD
HETATM    4  C2  UNL     1      27.295  74.086   9.389  1.00  0.00     0.183 A 
HETATM    5  N3  UNL     1      26.184  73.334   9.288  1.00  0.00    -0.336 N 
ATOM      6  H3  UNL     1      26.145  72.551   8.635  1.00  0.00     0.168 HD
HETATM    7  C3  UNL     1      25.121  73.632  10.066  1.00  0.00     0.148 A 
HETATM    8  C4  UNL     1      25.206  74.706  10.946  1.00  0.00     0.122 A 
HETATM    9  N4  UNL     1      24.036  74.772  11.576  1.00  0.00    -0.346 N 
ATOM     10  H4  UNL     1      23.794  75.462  12.286  1.00  0.00     0.167 HD
HETATM   11  C5  UNL     1      23.218  73.799  11.142  1.00  0.00     0.195 A 
HETATM   12  N5  UNL     1      23.904  73.080  10.189  1.00  0.00    -0.242 N 
HETATM   13  C6  UNL     1      23.356  71.967   9.510  1.00  0.00     0.346 C 
HETATM   14  O1  UNL     1      22.155  71.611   9.800  1.00  0.00    -0.245 OA
HETATM   15  N6  UNL     1      23.983  71.177   8.529  1.00  0.00    -0.235 N 
ATOM     16  H6  UNL     1      24.938  71.402   8.250  1.00  0.00     0.189 HD
ENDROOT
BRANCH  15  17
HETATM   17  N7  UNL     1      23.337  70.087   7.920  1.00  0.00    -0.026 NA
BRANCH  17  18
HETATM   18  N8  UNL     1      23.200  68.989   8.742  1.00  0.00    -0.329 N 
ATOM     19  H82 UNL     1      22.583  68.992   9.555  1.00  0.00     0.174 HD
ATOM     20  H81 UNL     1      23.766  68.188   8.460  1.00  0.00     0.174 HD
ENDBRANCH  17  18
ENDBRANCH  15  17
BRANCH   1  21
HETATM   21  N1  UNL     1      26.423  76.466  11.863  1.00  0.00    -0.383 N 
ATOM     22  H12 UNL     1      25.588  76.947  12.196  1.00  0.00     0.157 HD
ATOM     23  H11 UNL     1      27.322  76.804  12.206  1.00  0.00     0.157 HD
ENDBRANCH   1  21
TORSDOF 3
ENDMDL
MODEL 4
REMARK VINA RESULT: -6.546413549      2.370      3.211
REMARK  3 active torsions:
REMARK  status: ('A' for Active; 'I' for Inactive)
REMARK    1  A    between atoms: N1_1  and  C1_4 
REMARK       I    between atoms: N5_15  and  C6_16 
REMARK       I    between atoms: C6_16  and  N6_18 
REMARK    2  A    between atoms: N6_18  and  N7_20 
REMARK    3  A    between atoms: N7_20  and  N8_21 
ROOT
HETATM    1  C1  UNL     1      23.415  71.576   8.717  1.00  0.00     0.131 A 
HETATM    2  N2  UNL     1      22.255  72.251   8.640  1.00  0.00    -0.337 N 
ATOM      3  H2  UNL     1      21.401  71.745   8.402  1.00  0.00     0.168 HD
HETATM    4  C2  UNL     1      22.191  73.579   8.869  1.00  0.00     0.183 A 
HETATM    5  N3  UNL     1      23.284  74.297   9.184  1.00  0.00    -0.336 N 
ATOM      6  H3  UNL     1      23.215  75.301   9.353  1.00  0.00     0.168 HD
HETATM    7  C3  UNL     1      24.476  73.666   9.274  1.00  0.00     0.148 A 
HETATM    8  C4  UNL     1      24.536  72.297   9.038  1.00  0.00     0.122 A 
HETATM    9  N4  UNL     1      25.810  71.944   9.191  1.00  0.00    -0.346 N 
ATOM     10  H4  UNL     1      26.169  70.996   9.080  1.00  0.00     0.167 HD
HETATM   11  C5  UNL     1      26.555  73.014   9.510  1.00  0.00     0.195 A 
HETATM   12  N5  UNL     1      25.712  74.101   9.563  1.00  0.00    -0.242 N 
HETATM   13  C6  UNL     1      26.148  75.408   9.878  1.00  0.00     0.346 C 
HETATM   14  O1  UNL     1      27.395  75.589  10.128  1.00  0.00    -0.245 OA
HETATM   15  N6  UNL     1      25.358  76.571   9.956  1.00  0.00    -0.235 N 
ATOM     16  H6  UNL     1      24.358  76.502   9.771  1.00  0.00     0.189 HD
ENDROOT
BRANCH  15  17
HETATM   17  N7  UNL     1      25.904  77.826  10.282  1.00  0.00    -0.026 NA
BRANCH  17  18
HETATM   18  N8  UNL     1      26.505  77.868  11.522  1.00  0.00    -0.329 N 
ATOM     19  H82 UNL     1      25.987  78.101  12.370  1.00  0.00     0.174 HD
ATOM     20  H81 UNL     1      27.501  77.647  11.507  1.00  0.00     0.174 HD
ENDBRANCH  17  18
ENDBRANCH  15  17
BRANCH   1  21
HETATM   21  N1  UNL     1      23.473  70.298   8.499  1.00  0.00    -0.383 N 
ATOM     22  H12 UNL     1      23.454  69.627   9.266  1.00  0.00     0.157 HD
ATOM     23  H11 UNL     1      23.537  69.921   7.553  1.00  0.00     0.157 HD
ENDBRANCH   1  21
TORSDOF 3
ENDMDL
MODEL 5
REMARK VINA RESULT: -6.435405509      2.814      4.037
REMARK  3 active torsions:
REMARK  status: ('A' for Active; 'I' for Inactive)
REMARK    1  A    between atoms: N1_1  and  C1_4 
REMARK       I    between atoms: N5_15  and  C6_16 
REMARK       I    between atoms: C6_16  and  N6_18 
REMARK    2  A    between atoms: N6_18  and  N7_20 
REMARK    3  A    between atoms: N7_20  and  N8_21 
ROOT
HETATM    1  C1  UNL     1      23.349  71.558   8.856  1.00  0.00     0.131 A 
HETATM    2  N2  UNL     1      24.447  71.209   8.164  1.00  0.00    -0.337 N 
ATOM      3  H2  UNL     1      24.392  70.438   7.499  1.00  0.00     0.168 HD
HETATM    4  C2  UNL     1      25.621  71.854   8.327  1.00  0.00     0.183 A 
HETATM    5  N3  UNL     1      25.754  72.878   9.191  1.00  0.00    -0.336 N 
ATOM      6  H3  UNL     1      26.650  73.352   9.300  1.00  0.00     0.168 HD
HETATM    7  C3  UNL     1      24.679  73.267   9.912  1.00  0.00     0.148 A 
HETATM    8  C4  UNL     1      23.471  72.599   9.740  1.00  0.00     0.122 A 
HETATM    9  N4  UNL     1      22.599  73.179  10.561  1.00  0.00    -0.346 N 
ATOM     10  H4  UNL     1      21.622  72.905  10.660  1.00  0.00     0.167 HD
HETATM   11  C5  UNL     1      23.191  74.175  11.240  1.00  0.00     0.195 A 
HETATM   12  N5  UNL     1      24.503  74.230  10.829  1.00  0.00    -0.242 N 
HETATM   13  C6  UNL     1      25.436  75.167  11.330  1.00  0.00     0.346 C 
HETATM   14  O1  UNL     1      25.036  76.009  12.213  1.00  0.00    -0.245 OA
HETATM   15  N6  UNL     1      26.790  75.295  10.967  1.00  0.00    -0.235 N 
ATOM     16  H6  UNL     1      27.176  74.659  10.269  1.00  0.00     0.189 HD
ENDROOT
BRANCH  15  17
HETATM   17  N7  UNL     1      27.628  76.272  11.533  1.00  0.00    -0.026 NA
BRANCH  17  18
HETATM   18  N8  UNL     1      28.183  75.900  12.739  1.00  0.00    -0.329 N 
ATOM     19  H82 UNL     1      27.817  75.123  13.289  1.00  0.00     0.174 HD
ATOM     20  H81 UNL     1      28.982  76.469  13.019  1.00  0.00     0.174 HD
ENDBRANCH  17  18
ENDBRANCH  15  17
BRANCH   1  21
HETATM   21  N1  UNL     1      22.220  70.937   8.695  1.00  0.00    -0.383 N 
ATOM     22  H12 UNL     1      21.903  70.231   9.360  1.00  0.00     0.157 HD
ATOM     23  H11 UNL     1      21.612  71.134   7.901  1.00  0.00     0.157 HD
ENDBRANCH   1  21
TORSDOF 3
ENDMDL
