MODEL 1
REMARK VINA RESULT: -6.605388152      0.000      0.000
REMARK  2 active torsions:
REMARK  status: ('A' for Active; 'I' for Inactive)
REMARK    1  A    between atoms: N1_1  and  C1_4 
REMARK    2  A    between atoms: N3_9  and  C4_10 
ROOT
HETATM    1  C1  UNL     1      28.366  77.056  12.671  1.00  0.00     0.677 A 
HETATM    2  N2  UNL     1      27.921  75.798  12.424  1.00  0.00    -0.190 N 
ATOM      3  H2  UNL     1      28.354  75.005  12.897  1.00  0.00     0.184 HD
HETATM    4  C2  UNL     1      26.907  75.592  11.554  1.00  0.00     0.084 A 
HETATM    5  C3  UNL     1      26.232  74.482  11.088  1.00  0.00     0.134 A 
HETATM    6  N3  UNL     1      25.282  74.862  10.207  1.00  0.00    -0.264 N 
HETATM    7  C5  UNL     1      25.311  76.210  10.078  1.00  0.00     0.269 A 
HETATM    8  O2  UNL     1      24.578  76.907   9.350  1.00  0.00    -0.266 OA
HETATM    9  C6  UNL     1      26.298  76.738  10.886  1.00  0.00     0.103 A 
HETATM   10  C7  UNL     1      26.788  77.981  11.175  1.00  0.00     0.149 A 
HETATM   11  N4  UNL     1      26.230  79.110  10.552  1.00  0.00    -0.081 NA
HETATM   12  N5  UNL     1      27.801  78.120  12.051  1.00  0.00    -0.178 N 
ATOM     13  H5  UNL     1      28.154  79.055  12.253  1.00  0.00     0.185 HD
ENDROOT
BRANCH   1  14
HETATM   14  N1  UNL     1      29.332  77.214  13.504  1.00  0.00    -0.234 N 
ATOM     15  H12 UNL     1      29.162  77.214  14.510  1.00  0.00     0.174 HD
ATOM     16  H11 UNL     1      30.275  77.341  13.138  1.00  0.00     0.174 HD
ENDBRANCH   1  14
BRANCH   6  17
HETATM   17  C4  UNL     1      24.391  74.008   9.519  1.00  0.00     0.362 C 
HETATM   18  O1  UNL     1      24.846  73.116   8.742  1.00  0.00    -0.283 OA
ENDBRANCH   6  17
TORSDOF 2
ENDMDL
MODEL 2
REMARK VINA RESULT: -6.394753144      2.739      4.342
REMARK  2 active torsions:
REMARK  status: ('A' for Active; 'I' for Inactive)
REMARK    1  A    between atoms: N1_1  and  C1_4 
REMARK    2  A    between atoms: N3_9  and  C4_10 
ROOT
HETATM    1  C1  UNL     1      26.801  75.268  10.420  1.00  0.00     0.677 A 
HETATM    2  N2  UNL     1      25.559  75.636  10.823  1.00  0.00    -0.190 N 
ATOM      3  H2  UNL     1      25.376  76.606  11.082  1.00  0.00     0.184 HD
HETATM    4  C2  UNL     1      24.564  74.724  10.884  1.00  0.00     0.084 A 
HETATM    5  C3  UNL     1      23.230  74.757  11.238  1.00  0.00     0.134 A 
HETATM    6  N3  UNL     1      22.693  73.526  11.109  1.00  0.00    -0.264 N 
HETATM    7  C5  UNL     1      23.647  72.669  10.674  1.00  0.00     0.269 A 
HETATM    8  O2  UNL     1      23.510  71.451  10.444  1.00  0.00    -0.266 OA
HETATM    9  C6  UNL     1      24.842  73.341  10.510  1.00  0.00     0.103 A 
HETATM   10  C7  UNL     1      26.112  73.029  10.111  1.00  0.00     0.149 A 
HETATM   11  N4  UNL     1      26.421  71.709   9.743  1.00  0.00    -0.081 NA
HETATM   12  N5  UNL     1      27.060  73.984  10.073  1.00  0.00    -0.178 N 
ATOM     13  H5  UNL     1      28.002  73.733   9.774  1.00  0.00     0.185 HD
ENDROOT
BRANCH   1  14
HETATM   14  N1  UNL     1      27.724  76.162  10.375  1.00  0.00    -0.234 N 
ATOM     15  H12 UNL     1      27.915  76.758  11.180  1.00  0.00     0.174 HD
ATOM     16  H11 UNL     1      28.263  76.264   9.514  1.00  0.00     0.174 HD
ENDBRANCH   1  14
BRANCH   6  17
HETATM   17  C4  UNL     1      21.353  73.166  11.379  1.00  0.00     0.362 C 
HETATM   18  O1  UNL     1      21.069  72.563  12.458  1.00  0.00    -0.283 OA
ENDBRANCH   6  17
TORSDOF 2
ENDMDL
MODEL 3
REMARK VINA RESULT: -6.375588080      2.063      3.365
REMARK  2 active torsions:
REMARK  status: ('A' for Active; 'I' for Inactive)
REMARK    1  A    between atoms: N1_1  and  C1_4 
REMARK    2  A    between atoms: N3_9  and  C4_10 
ROOT
HETATM    1  C1  UNL     1      27.060  75.759  11.472  1.00  0.00     0.677 A 
HETATM    2  N2  UNL     1      25.752  75.758  11.833  1.00  0.00    -0.190 N 
ATOM      3  H2  UNL     1      25.437  76.351  12.601  1.00  0.00     0.184 HD
HETATM    4  C2  UNL     1      24.866  74.976  11.179  1.00  0.00     0.084 A 
HETATM    5  C3  UNL     1      23.510  74.740  11.283  1.00  0.00     0.134 A 
HETATM    6  N3  UNL     1      23.129  73.839  10.353  1.00  0.00    -0.264 N 
HETATM    7  C5  UNL     1      24.211  73.468   9.627  1.00  0.00     0.269 A 
HETATM    8  O2  UNL     1      24.236  72.654   8.684  1.00  0.00    -0.266 OA
HETATM    9  C6  UNL     1      25.332  74.134  10.082  1.00  0.00     0.103 A 
HETATM   10  C7  UNL     1      26.661  74.177   9.764  1.00  0.00     0.149 A 
HETATM   11  N4  UNL     1      27.151  73.381   8.714  1.00  0.00    -0.081 NA
HETATM   12  N5  UNL     1      27.495  74.978  10.454  1.00  0.00    -0.178 N 
ATOM     13  H5  UNL     1      28.483  74.996  10.203  1.00  0.00     0.185 HD
ENDROOT
BRANCH   1  14
HETATM   14  N1  UNL     1      27.876  76.516  12.116  1.00  0.00    -0.234 N 
ATOM     15  H12 UNL     1      28.877  76.493  11.922  1.00  0.00     0.174 HD
ATOM     16  H11 UNL     1      27.500  77.142  12.829  1.00  0.00     0.174 HD
ENDBRANCH   1  14
BRANCH   6  17
HETATM   17  C4  UNL     1      21.820  73.348  10.151  1.00  0.00     0.362 C 
HETATM   18  O1  UNL     1      21.407  72.358  10.828  1.00  0.00    -0.283 OA
ENDBRANCH   6  17
TORSDOF 2
ENDMDL
MODEL 4
REMARK VINA RESULT: -6.249072387      2.390      4.923
REMARK  2 active torsions:
REMARK  status: ('A' for Active; 'I' for Inactive)
REMARK    1  A    between atoms: N1_1  and  C1_4 
REMARK    2  A    between atoms: N3_9  and  C4_10 
ROOT
HETATM    1  C1  UNL     1      25.626  72.462   9.058  1.00  0.00     0.677 A 
HETATM    2  N2  UNL     1      26.555  73.447   8.958  1.00  0.00    -0.190 N 
ATOM      3  H2  UNL     1      27.295  73.377   8.260  1.00  0.00     0.184 HD
HETATM    4  C2  UNL     1      26.503  74.519   9.779  1.00  0.00     0.084 A 
HETATM    5  C3  UNL     1      27.261  75.660   9.942  1.00  0.00     0.134 A 
HETATM    6  N3  UNL     1      26.745  76.413  10.937  1.00  0.00    -0.264 N 
HETATM    7  C5  UNL     1      25.652  75.792  11.442  1.00  0.00     0.269 A 
HETATM    8  O2  UNL     1      24.925  76.195  12.370  1.00  0.00    -0.266 OA
HETATM    9  C6  UNL     1      25.437  74.604  10.772  1.00  0.00     0.103 A 
HETATM   10  C7  UNL     1      24.530  73.582  10.826  1.00  0.00     0.149 A 
HETATM   11  N4  UNL     1      23.488  73.626  11.768  1.00  0.00    -0.081 NA
HETATM   12  N5  UNL     1      24.636  72.540   9.980  1.00  0.00    -0.178 N 
ATOM     13  H5  UNL     1      23.951  71.787  10.035  1.00  0.00     0.185 HD
ENDROOT
BRANCH   1  14
HETATM   14  N1  UNL     1      25.707  71.457   8.260  1.00  0.00    -0.234 N 
ATOM     15  H12 UNL     1      26.175  71.541   7.358  1.00  0.00     0.174 HD
ATOM     16  H11 UNL     1      25.292  70.571   8.549  1.00  0.00     0.174 HD
ENDBRANCH   1  14
BRANCH   6  17
HETATM   17  C4  UNL     1      27.247  77.652  11.395  1.00  0.00     0.362 C 
HETATM   18  O1  UNL     1      27.014  78.709  10.734  1.00  0.00    -0.283 OA
ENDBRANCH   6  17
TORSDOF 2
ENDMDL
MODEL 5
REMARK VINA RESULT: -6.232336405      2.709      5.956
REMARK  2 active torsions:
REMARK  status: ('A' for Active; 'I' for Inactive)
REMARK    1  A    between atoms: N1_1  and  C1_4 
REMARK    2  A    between atoms: N3_9  and  C4_10 
ROOT
HETATM    1  C1  UNL     1      22.502  72.542   8.669  1.00  0.00     0.677 A 
HETATM    2  N2  UNL     1      22.563  73.773   9.237  1.00  0.00    -0.190 N 
ATOM      3  H2  UNL     1      21.702  74.262   9.483  1.00  0.00     0.184 HD
HETATM    4  C2  UNL     1      23.759  74.353   9.479  1.00  0.00     0.084 A 
HETATM    5  C3  UNL     1      24.169  75.552  10.026  1.00  0.00     0.134 A 
HETATM    6  N3  UNL     1      25.518  75.617  10.026  1.00  0.00    -0.264 N 
HETATM    7  C5  UNL     1      26.016  74.478   9.488  1.00  0.00     0.269 A 
HETATM    8  O2  UNL     1      27.218  74.190   9.328  1.00  0.00    -0.266 OA
HETATM    9  C6  UNL     1      24.981  73.640   9.123  1.00  0.00     0.103 A 
HETATM   10  C7  UNL     1      24.857  72.404   8.553  1.00  0.00     0.149 A 
HETATM   11  N4  UNL     1      26.010  71.684   8.194  1.00  0.00    -0.081 NA
HETATM   12  N5  UNL     1      23.636  71.880   8.337  1.00  0.00    -0.178 N 
ATOM     13  H5  UNL     1      23.563  70.956   7.910  1.00  0.00     0.185 HD
ENDROOT
BRANCH   1  14
HETATM   14  N1  UNL     1      21.347  72.021   8.453  1.00  0.00    -0.234 N 
ATOM     15  H12 UNL     1      20.534  72.609   8.264  1.00  0.00     0.174 HD
ATOM     16  H11 UNL     1      21.258  71.005   8.475  1.00  0.00     0.174 HD
ENDBRANCH   1  14
BRANCH   6  17
HETATM   17  C4  UNL     1      26.303  76.689  10.505  1.00  0.00     0.362 C 
HETATM   18  O1  UNL     1      25.944  77.317  11.546  1.00  0.00    -0.283 OA
ENDBRANCH   6  17
TORSDOF 2
ENDMDL
