MODEL 1
REMARK VINA RESULT: -6.789604779      0.000      0.000
REMARK  2 active torsions:
REMARK  status: ('A' for Active; 'I' for Inactive)
REMARK    1  A    between atoms: C4_7  and  N3_8 
REMARK       I    between atoms: N3_8  and  C5_10 
REMARK       I    between atoms: C5_10  and  N4_11 
REMARK       I    between atoms: C5_10  and  N5_15 
REMARK    2  A    between atoms: C6_21  and  N7_22 
ROOT
HETATM    1  C1  UNL     1      23.718  71.584   7.748  1.00  0.00     0.158 C 
HETATM    2  N1  UNL     1      24.573  72.272   8.701  1.00  0.00    -0.331 N 
HETATM    3  C2  UNL     1      25.898  72.147   8.879  1.00  0.00     0.184 A 
HETATM    4  N2  UNL     1      26.315  72.959   9.864  1.00  0.00    -0.346 N 
ATOM      5  H2  UNL     1      27.278  73.048  10.188  1.00  0.00     0.167 HD
HETATM    6  C3  UNL     1      25.262  73.638  10.355  1.00  0.00     0.123 A 
HETATM    7  C4  UNL     1      25.095  74.582  11.347  1.00  0.00     0.150 A 
HETATM    8  N6  UNL     1      23.826  75.033  11.539  1.00  0.00    -0.175 N 
ATOM      9  H6  UNL     1      23.662  75.733  12.262  1.00  0.00     0.186 HD
HETATM   10  C6  UNL     1      22.790  74.601  10.822  1.00  0.00     0.679 A 
HETATM   11  N8  UNL     1      22.944  73.682   9.855  1.00  0.00    -0.174 N 
ATOM     12  H8  UNL     1      22.146  73.355   9.310  1.00  0.00     0.186 HD
HETATM   13  C7  UNL     1      24.183  73.204   9.627  1.00  0.00     0.154 A 
ENDROOT
BRANCH   7  14
HETATM   14  N3  UNL     1      26.060  75.011  12.043  1.00  0.00    -0.325 N 
HETATM   15  C5  UNL     1      27.040  76.005  11.733  1.00  0.00     0.481 C 
HETATM   16  N4  UNL     1      26.469  77.328  11.868  1.00  0.00    -0.033 N 
HETATM   17  N5  UNL     1      28.187  75.931  12.645  1.00  0.00    -0.033 N 
ATOM     18  H43 UNL     1      25.624  77.437  11.306  1.00  0.00     0.278 HD
ATOM     19  H42 UNL     1      26.056  77.474  12.788  1.00  0.00     0.278 HD
ATOM     20  H41 UNL     1      27.168  78.037  11.646  1.00  0.00     0.278 HD
ATOM     21  H53 UNL     1      27.894  75.988  13.620  1.00  0.00     0.278 HD
ATOM     22  H52 UNL     1      28.594  74.995  12.657  1.00  0.00     0.278 HD
ATOM     23  H51 UNL     1      28.887  76.640  12.423  1.00  0.00     0.278 HD
ATOM     24  H3  UNL     1      26.153  74.583  12.965  1.00  0.00     0.165 HD
ENDBRANCH   7  14
BRANCH  10  25
HETATM   25  N7  UNL     1      21.594  75.051  11.030  1.00  0.00    -0.234 N 
ATOM     26  H72 UNL     1      21.491  76.055  11.177  1.00  0.00     0.174 HD
ATOM     27  H71 UNL     1      20.788  74.426  11.045  1.00  0.00     0.174 HD
ENDBRANCH  10  25
TORSDOF 2
ENDMDL
MODEL 2
REMARK VINA RESULT: -6.511642336      2.254      3.871
REMARK  2 active torsions:
REMARK  status: ('A' for Active; 'I' for Inactive)
REMARK    1  A    between atoms: C4_7  and  N3_8 
REMARK       I    between atoms: N3_8  and  C5_10 
REMARK       I    between atoms: C5_10  and  N4_11 
REMARK       I    between atoms: C5_10  and  N5_15 
REMARK    2  A    between atoms: C6_21  and  N7_22 
ROOT
HETATM    1  C1  UNL     1      23.655  74.975   9.348  1.00  0.00     0.158 C 
HETATM    2  N1  UNL     1      24.879  75.245  10.084  1.00  0.00    -0.331 N 
HETATM    3  C2  UNL     1      25.627  74.395  10.806  1.00  0.00     0.184 A 
HETATM    4  N2  UNL     1      26.683  75.034  11.333  1.00  0.00    -0.346 N 
ATOM      5  H2  UNL     1      27.400  74.606  11.920  1.00  0.00     0.167 HD
HETATM    6  C3  UNL     1      26.649  76.328  10.964  1.00  0.00     0.123 A 
HETATM    7  C4  UNL     1      27.450  77.425  11.199  1.00  0.00     0.150 A 
HETATM    8  N6  UNL     1      27.055  78.593  10.626  1.00  0.00    -0.175 N 
ATOM      9  H6  UNL     1      27.622  79.427  10.776  1.00  0.00     0.186 HD
HETATM   10  C6  UNL     1      25.960  78.694   9.875  1.00  0.00     0.679 A 
HETATM   11  N8  UNL     1      25.173  77.631   9.640  1.00  0.00    -0.174 N 
ATOM     12  H8  UNL     1      24.335  77.715   9.065  1.00  0.00     0.186 HD
HETATM   13  C7  UNL     1      25.524  76.450  10.188  1.00  0.00     0.154 A 
ENDROOT
BRANCH   7  14
HETATM   14  N3  UNL     1      28.497  77.359  11.908  1.00  0.00    -0.325 N 
HETATM   15  C5  UNL     1      28.635  77.274  13.328  1.00  0.00     0.481 C 
HETATM   16  N4  UNL     1      28.350  75.928  13.778  1.00  0.00    -0.033 N 
HETATM   17  N5  UNL     1      30.000  77.597  13.756  1.00  0.00    -0.033 N 
ATOM     18  H43 UNL     1      27.434  75.607  13.464  1.00  0.00     0.278 HD
ATOM     19  H42 UNL     1      28.924  75.236  13.297  1.00  0.00     0.278 HD
ATOM     20  H41 UNL     1      28.449  75.868  14.791  1.00  0.00     0.278 HD
ATOM     21  H53 UNL     1      30.689  77.015  13.279  1.00  0.00     0.278 HD
ATOM     22  H52 UNL     1      30.295  78.509  13.406  1.00  0.00     0.278 HD
ATOM     23  H51 UNL     1      30.099  77.537  14.770  1.00  0.00     0.278 HD
ATOM     24  H3  UNL     1      29.374  77.368  11.388  1.00  0.00     0.165 HD
ENDBRANCH   7  14
BRANCH  10  25
HETATM   25  N7  UNL     1      25.610  79.820   9.343  1.00  0.00    -0.234 N 
ATOM     26  H72 UNL     1      25.773  80.666   9.889  1.00  0.00     0.174 HD
ATOM     27  H71 UNL     1      25.187  79.860   8.415  1.00  0.00     0.174 HD
ENDBRANCH  10  25
TORSDOF 2
ENDMDL
MODEL 3
REMARK VINA RESULT: -6.386537009      2.070      5.477
REMARK  2 active torsions:
REMARK  status: ('A' for Active; 'I' for Inactive)
REMARK    1  A    between atoms: C4_7  and  N3_8 
REMARK       I    between atoms: N3_8  and  C5_10 
REMARK       I    between atoms: C5_10  and  N4_11 
REMARK       I    between atoms: C5_10  and  N5_15 
REMARK    2  A    between atoms: C6_21  and  N7_22 
ROOT
HETATM    1  C1  UNL     1      28.923  78.474  13.202  1.00  0.00     0.158 C 
HETATM    2  N1  UNL     1      28.083  77.432  12.634  1.00  0.00    -0.331 N 
HETATM    3  C2  UNL     1      27.999  76.139  12.987  1.00  0.00     0.184 A 
HETATM    4  N2  UNL     1      27.102  75.503  12.217  1.00  0.00    -0.346 N 
ATOM      5  H2  UNL     1      26.857  74.515  12.289  1.00  0.00     0.167 HD
HETATM    6  C3  UNL     1      26.576  76.373  11.335  1.00  0.00     0.123 A 
HETATM    7  C4  UNL     1      25.637  76.286  10.329  1.00  0.00     0.150 A 
HETATM    8  N6  UNL     1      25.379  77.433   9.647  1.00  0.00    -0.175 N 
ATOM      9  H6  UNL     1      24.690  77.410   8.896  1.00  0.00     0.186 HD
HETATM   10  C6  UNL     1      25.986  78.587   9.919  1.00  0.00     0.679 A 
HETATM   11  N8  UNL     1      26.902  78.682  10.897  1.00  0.00    -0.174 N 
ATOM     12  H8  UNL     1      27.363  79.568  11.100  1.00  0.00     0.186 HD
HETATM   13  C7  UNL     1      27.192  77.570  11.602  1.00  0.00     0.154 A 
ENDROOT
BRANCH   7  14
HETATM   14  N3  UNL     1      25.044  75.203  10.048  1.00  0.00    -0.325 N 
HETATM   15  C5  UNL     1      25.486  74.098   9.257  1.00  0.00     0.481 C 
HETATM   16  N4  UNL     1      26.423  73.289  10.009  1.00  0.00    -0.033 N 
HETATM   17  N5  UNL     1      24.368  73.229   8.875  1.00  0.00    -0.033 N 
ATOM     18  H43 UNL     1      27.204  73.841  10.363  1.00  0.00     0.278 HD
ATOM     19  H42 UNL     1      26.035  72.987  10.902  1.00  0.00     0.278 HD
ATOM     20  H41 UNL     1      26.738  72.500   9.444  1.00  0.00     0.278 HD
ATOM     21  H53 UNL     1      23.842  72.917   9.691  1.00  0.00     0.278 HD
ATOM     22  H52 UNL     1      23.631  73.755   8.405  1.00  0.00     0.278 HD
ATOM     23  H51 UNL     1      24.683  72.440   8.310  1.00  0.00     0.278 HD
ATOM     24  H3  UNL     1      24.110  75.105  10.446  1.00  0.00     0.165 HD
ENDBRANCH   7  14
BRANCH  10  25
HETATM   25  N7  UNL     1      25.718  79.662   9.251  1.00  0.00    -0.234 N 
ATOM     26  H72 UNL     1      24.737  79.855   9.049  1.00  0.00     0.174 HD
ATOM     27  H71 UNL     1      26.458  80.292   8.938  1.00  0.00     0.174 HD
ENDBRANCH  10  25
TORSDOF 2
ENDMDL
MODEL 4
REMARK VINA RESULT: -6.372304242      1.675      3.065
REMARK  2 active torsions:
REMARK  status: ('A' for Active; 'I' for Inactive)
REMARK    1  A    between atoms: C4_7  and  N3_8 
REMARK       I    between atoms: N3_8  and  C5_10 
REMARK       I    between atoms: C5_10  and  N4_11 
REMARK       I    between atoms: C5_10  and  N5_15 
REMARK    2  A    between atoms: C6_21  and  N7_22 
ROOT
HETATM    1  C1  UNL     1      21.698  71.230   8.955  1.00  0.00     0.158 C 
HETATM    2  N1  UNL     1      22.470  72.459   9.039  1.00  0.00    -0.331 N 
HETATM    3  C2  UNL     1      22.110  73.701   8.677  1.00  0.00     0.184 A 
HETATM    4  N2  UNL     1      23.110  74.565   8.916  1.00  0.00    -0.346 N 
ATOM      5  H2  UNL     1      23.082  75.567   8.728  1.00  0.00     0.167 HD
HETATM    6  C3  UNL     1      24.155  73.901   9.444  1.00  0.00     0.123 A 
HETATM    7  C4  UNL     1      25.415  74.260   9.874  1.00  0.00     0.150 A 
HETATM    8  N6  UNL     1      26.193  73.256  10.357  1.00  0.00    -0.175 N 
ATOM      9  H6  UNL     1      27.132  73.481  10.686  1.00  0.00     0.186 HD
HETATM   10  C6  UNL     1      25.783  71.990  10.421  1.00  0.00     0.679 A 
HETATM   11  N8  UNL     1      24.558  71.631  10.004  1.00  0.00    -0.174 N 
ATOM     12  H8  UNL     1      24.250  70.660  10.055  1.00  0.00     0.186 HD
HETATM   13  C7  UNL     1      23.748  72.592   9.516  1.00  0.00     0.154 A 
ENDROOT
BRANCH   7  14
HETATM   14  N3  UNL     1      25.832  75.454   9.826  1.00  0.00    -0.325 N 
HETATM   15  C5  UNL     1      26.236  76.324  10.885  1.00  0.00     0.481 C 
HETATM   16  N4  UNL     1      27.564  75.970  11.343  1.00  0.00    -0.033 N 
HETATM   17  N5  UNL     1      26.286  77.722  10.444  1.00  0.00    -0.033 N 
ATOM     18  H43 UNL     1      27.625  74.988  11.611  1.00  0.00     0.278 HD
ATOM     19  H42 UNL     1      28.240  75.959  10.579  1.00  0.00     0.278 HD
ATOM     20  H41 UNL     1      27.852  76.591  12.099  1.00  0.00     0.278 HD
ATOM     21  H53 UNL     1      26.879  77.834   9.622  1.00  0.00     0.278 HD
ATOM     22  H52 UNL     1      25.397  78.016  10.037  1.00  0.00     0.278 HD
ATOM     23  H51 UNL     1      26.574  78.343  11.200  1.00  0.00     0.278 HD
ATOM     24  H3  UNL     1      25.888  75.856   8.890  1.00  0.00     0.165 HD
ENDBRANCH   7  14
BRANCH  10  25
HETATM   25  N7  UNL     1      26.549  71.057  10.887  1.00  0.00    -0.234 N 
ATOM     26  H72 UNL     1      27.458  70.931  10.441  1.00  0.00     0.174 HD
ATOM     27  H71 UNL     1      26.255  70.470  11.668  1.00  0.00     0.174 HD
ENDBRANCH  10  25
TORSDOF 2
ENDMDL
MODEL 5
REMARK VINA RESULT: -6.368927919      1.106      2.996
REMARK  2 active torsions:
REMARK  status: ('A' for Active; 'I' for Inactive)
REMARK    1  A    between atoms: C4_7  and  N3_8 
REMARK       I    between atoms: N3_8  and  C5_10 
REMARK       I    between atoms: C5_10  and  N4_11 
REMARK       I    between atoms: C5_10  and  N5_15 
REMARK    2  A    between atoms: C6_21  and  N7_22 
ROOT
HETATM    1  C1  UNL     1      20.952  73.122   9.172  1.00  0.00     0.158 C 
HETATM    2  N1  UNL     1      22.022  73.728   9.946  1.00  0.00    -0.331 N 
HETATM    3  C2  UNL     1      21.934  74.648  10.920  1.00  0.00     0.184 A 
HETATM    4  N2  UNL     1      23.155  74.951  11.389  1.00  0.00    -0.346 N 
ATOM      5  H2  UNL     1      23.353  75.622  12.131  1.00  0.00     0.167 HD
HETATM    6  C3  UNL     1      24.077  74.229  10.726  1.00  0.00     0.123 A 
HETATM    7  C4  UNL     1      25.451  74.126  10.780  1.00  0.00     0.150 A 
HETATM    8  N6  UNL     1      26.023  73.251   9.911  1.00  0.00    -0.175 N 
ATOM      9  H6  UNL     1      27.037  73.146   9.921  1.00  0.00     0.186 HD
HETATM   10  C6  UNL     1      25.316  72.523   9.049  1.00  0.00     0.679 A 
HETATM   11  N8  UNL     1      23.977  72.616   8.989  1.00  0.00    -0.174 N 
ATOM     12  H8  UNL     1      23.441  72.056   8.326  1.00  0.00     0.186 HD
HETATM   13  C7  UNL     1      23.363  73.471   9.831  1.00  0.00     0.154 A 
ENDROOT
BRANCH   7  14
HETATM   14  N3  UNL     1      26.149  74.805  11.588  1.00  0.00    -0.325 N 
HETATM   15  C5  UNL     1      27.198  75.740  11.328  1.00  0.00     0.481 C 
HETATM   16  N4  UNL     1      26.643  77.002  10.884  1.00  0.00    -0.033 N 
HETATM   17  N5  UNL     1      27.988  76.012  12.534  1.00  0.00    -0.033 N 
ATOM     18  H43 UNL     1      26.027  76.885  10.079  1.00  0.00     0.278 HD
ATOM     19  H42 UNL     1      25.959  77.370  11.544  1.00  0.00     0.278 HD
ATOM     20  H41 UNL     1      27.392  77.669  10.698  1.00  0.00     0.278 HD
ATOM     21  H53 UNL     1      27.397  76.320  13.306  1.00  0.00     0.278 HD
ATOM     22  H52 UNL     1      28.349  75.151  12.945  1.00  0.00     0.278 HD
ATOM     23  H51 UNL     1      28.737  76.679  12.348  1.00  0.00     0.278 HD
ATOM     24  H3  UNL     1      25.931  74.663  12.574  1.00  0.00     0.165 HD
ENDBRANCH   7  14
BRANCH  10  25
HETATM   25  N7  UNL     1      25.890  71.698   8.234  1.00  0.00    -0.234 N 
ATOM     26  H72 UNL     1      25.910  71.952   7.247  1.00  0.00     0.174 HD
ATOM     27  H71 UNL     1      26.306  70.827   8.566  1.00  0.00     0.174 HD
ENDBRANCH  10  25
TORSDOF 2
ENDMDL
