MODEL 1
REMARK VINA RESULT: -6.883297748      0.000      0.000
REMARK  3 active torsions:
REMARK  status: ('A' for Active; 'I' for Inactive)
REMARK    1  A    between atoms: N1_1  and  C1_4 
REMARK    2  A    between atoms: N5_16  and  C6_17 
REMARK    3  A    between atoms: C6_17  and  O2_19 
ROOT
HETATM    1  C1  UNL     1      25.551  72.196  10.274  1.00  0.00     0.687 A 
HETATM    2  N2  UNL     1      26.594  72.799   9.718  1.00  0.00    -0.174 N 
ATOM      3  H2  UNL     1      27.276  72.359   9.101  1.00  0.00     0.186 HD
HETATM    4  C2  UNL     1      26.600  74.083  10.102  1.00  0.00     0.155 A 
HETATM    5  N3  UNL     1      27.386  75.133   9.863  1.00  0.00    -0.336 N 
ATOM      6  H3  UNL     1      28.194  75.007   9.252  1.00  0.00     0.168 HD
HETATM    7  C3  UNL     1      27.165  76.343  10.385  1.00  0.00     0.185 A 
HETATM    8  N4  UNL     1      26.122  76.567  11.190  1.00  0.00    -0.318 N 
ATOM      9  H4  UNL     1      25.947  77.488  11.593  1.00  0.00     0.169 HD
HETATM   10  C4  UNL     1      25.303  75.508  11.450  1.00  0.00     0.278 A 
HETATM   11  O1  UNL     1      24.334  75.739  12.207  1.00  0.00    -0.265 OA
HETATM   12  C5  UNL     1      25.499  74.246  10.931  1.00  0.00     0.172 A 
HETATM   13  N5  UNL     1      24.845  73.093  11.045  1.00  0.00    -0.104 N 
ENDROOT
BRANCH  13  14
HETATM   14  C6  UNL     1      23.692  72.761  11.761  1.00  0.00     0.251 C 
HETATM   15  N6  UNL     1      22.352  73.095  11.565  1.00  0.00    -0.055 NA
BRANCH  14  16
HETATM   16  O2  UNL     1      23.836  72.004  12.815  1.00  0.00    -0.334 OA
ATOM     17  H2  UNL     1      23.186  72.084  13.503  1.00  0.00     0.220 HD
ENDBRANCH  14  16
ENDBRANCH  13  14
BRANCH   1  18
HETATM   18  N1  UNL     1      25.236  70.948  10.120  1.00  0.00    -0.234 N 
ATOM     19  H12 UNL     1      24.283  70.598  10.023  1.00  0.00     0.174 HD
ATOM     20  H11 UNL     1      25.897  70.172  10.079  1.00  0.00     0.174 HD
ENDBRANCH   1  18
TORSDOF 3
ENDMDL
MODEL 2
REMARK VINA RESULT: -6.825348226      1.131      1.131
REMARK  3 active torsions:
REMARK  status: ('A' for Active; 'I' for Inactive)
REMARK    1  A    between atoms: N1_1  and  C1_4 
REMARK    2  A    between atoms: N5_16  and  C6_17 
REMARK    3  A    between atoms: C6_17  and  O2_19 
ROOT
HETATM    1  C1  UNL     1      25.974  72.724   9.105  1.00  0.00     0.687 A 
HETATM    2  N2  UNL     1      27.004  73.552   8.994  1.00  0.00    -0.174 N 
ATOM      3  H2  UNL     1      27.802  73.429   8.370  1.00  0.00     0.186 HD
HETATM    4  C2  UNL     1      26.822  74.578   9.836  1.00  0.00     0.155 A 
HETATM    5  N3  UNL     1      27.511  75.678  10.144  1.00  0.00    -0.336 N 
ATOM      6  H3  UNL     1      28.396  75.846   9.667  1.00  0.00     0.168 HD
HETATM    7  C3  UNL     1      27.095  76.568  11.049  1.00  0.00     0.185 A 
HETATM    8  N4  UNL     1      25.943  76.400  11.706  1.00  0.00    -0.318 N 
ATOM      9  H4  UNL     1      25.619  77.075  12.399  1.00  0.00     0.169 HD
HETATM   10  C4  UNL     1      25.220  75.282  11.408  1.00  0.00     0.278 A 
HETATM   11  O1  UNL     1      24.146  75.142  12.034  1.00  0.00    -0.265 OA
HETATM   12  C5  UNL     1      25.616  74.340  10.482  1.00  0.00     0.172 A 
HETATM   13  N5  UNL     1      25.085  73.204  10.041  1.00  0.00    -0.104 N 
ENDROOT
BRANCH  13  14
HETATM   14  C6  UNL     1      23.896  72.554  10.386  1.00  0.00     0.251 C 
HETATM   15  N6  UNL     1      22.726  72.321   9.664  1.00  0.00    -0.055 NA
BRANCH  14  16
HETATM   16  O2  UNL     1      23.810  72.057  11.590  1.00  0.00    -0.334 OA
ATOM     17  H2  UNL     1      22.948  71.803  11.898  1.00  0.00     0.220 HD
ENDBRANCH  14  16
ENDBRANCH  13  14
BRANCH   1  18
HETATM   18  N1  UNL     1      25.820  71.624   8.437  1.00  0.00    -0.234 N 
ATOM     19  H12 UNL     1      26.545  71.181   7.874  1.00  0.00     0.174 HD
ATOM     20  H11 UNL     1      24.961  71.074   8.395  1.00  0.00     0.174 HD
ENDBRANCH   1  18
TORSDOF 3
ENDMDL
MODEL 3
REMARK VINA RESULT: -6.588642295      2.492      3.306
REMARK  3 active torsions:
REMARK  status: ('A' for Active; 'I' for Inactive)
REMARK    1  A    between atoms: N1_1  and  C1_4 
REMARK    2  A    between atoms: N5_16  and  C6_17 
REMARK    3  A    between atoms: C6_17  and  O2_19 
ROOT
HETATM    1  C1  UNL     1      22.887  73.620   9.014  1.00  0.00     0.687 A 
HETATM    2  N2  UNL     1      23.377  74.823   9.281  1.00  0.00    -0.174 N 
ATOM      3  H2  UNL     1      22.850  75.697   9.267  1.00  0.00     0.186 HD
HETATM    4  C2  UNL     1      24.679  74.701   9.573  1.00  0.00     0.155 A 
HETATM    5  N3  UNL     1      25.652  75.547   9.909  1.00  0.00    -0.336 N 
ATOM      6  H3  UNL     1      25.429  76.540   9.982  1.00  0.00     0.168 HD
HETATM    7  C3  UNL     1      26.906  75.156  10.156  1.00  0.00     0.185 A 
HETATM    8  N4  UNL     1      27.255  73.868  10.077  1.00  0.00    -0.318 N 
ATOM      9  H4  UNL     1      28.210  73.562  10.263  1.00  0.00     0.169 HD
HETATM   10  C4  UNL     1      26.277  72.983   9.734  1.00  0.00     0.278 A 
HETATM   11  O1  UNL     1      26.624  71.782   9.664  1.00  0.00    -0.265 OA
HETATM   12  C5  UNL     1      24.973  73.347   9.472  1.00  0.00     0.172 A 
HETATM   13  N5  UNL     1      23.880  72.672   9.129  1.00  0.00    -0.104 N 
ENDROOT
BRANCH  13  14
HETATM   14  C6  UNL     1      23.678  71.306   8.909  1.00  0.00     0.251 C 
HETATM   15  N6  UNL     1      23.310  70.598   7.766  1.00  0.00    -0.055 NA
BRANCH  14  16
HETATM   16  O2  UNL     1      23.851  70.503   9.924  1.00  0.00    -0.334 OA
ATOM     17  H2  UNL     1      23.313  70.649  10.693  1.00  0.00     0.220 HD
ENDBRANCH  14  16
ENDBRANCH  13  14
BRANCH   1  18
HETATM   18  N1  UNL     1      21.658  73.364   8.691  1.00  0.00    -0.234 N 
ATOM     19  H12 UNL     1      21.270  72.428   8.582  1.00  0.00     0.174 HD
ATOM     20  H11 UNL     1      20.937  74.063   8.508  1.00  0.00     0.174 HD
ENDBRANCH   1  18
TORSDOF 3
ENDMDL
MODEL 4
REMARK VINA RESULT: -6.505019447      2.094      4.128
REMARK  3 active torsions:
REMARK  status: ('A' for Active; 'I' for Inactive)
REMARK    1  A    between atoms: N1_1  and  C1_4 
REMARK    2  A    between atoms: N5_16  and  C6_17 
REMARK    3  A    between atoms: C6_17  and  O2_19 
ROOT
HETATM    1  C1  UNL     1      25.864  74.422  10.536  1.00  0.00     0.687 A 
HETATM    2  N2  UNL     1      24.956  75.227  11.068  1.00  0.00    -0.174 N 
ATOM      3  H2  UNL     1      25.133  76.160  11.442  1.00  0.00     0.186 HD
HETATM    4  C2  UNL     1      23.765  74.613  11.034  1.00  0.00     0.155 A 
HETATM    5  N3  UNL     1      22.529  74.933  11.418  1.00  0.00    -0.336 N 
ATOM      6  H3  UNL     1      22.374  75.845  11.848  1.00  0.00     0.168 HD
HETATM    7  C3  UNL     1      21.484  74.115  11.265  1.00  0.00     0.185 A 
HETATM    8  N4  UNL     1      21.627  72.908  10.707  1.00  0.00    -0.318 N 
ATOM      9  H4  UNL     1      20.834  72.278  10.588  1.00  0.00     0.169 HD
HETATM   10  C4  UNL     1      22.883  72.559  10.306  1.00  0.00     0.278 A 
HETATM   11  O1  UNL     1      22.996  71.425   9.788  1.00  0.00    -0.265 OA
HETATM   12  C5  UNL     1      23.985  73.374  10.447  1.00  0.00     0.172 A 
HETATM   13  N5  UNL     1      25.271  73.244  10.136  1.00  0.00    -0.104 N 
ENDROOT
BRANCH  13  14
HETATM   14  C6  UNL     1      25.967  72.190   9.537  1.00  0.00     0.251 C 
HETATM   15  N6  UNL     1      26.031  71.758   8.213  1.00  0.00    -0.055 NA
BRANCH  14  16
HETATM   16  O2  UNL     1      26.705  71.440  10.311  1.00  0.00    -0.334 OA
ATOM     17  H2  UNL     1      27.612  71.311  10.058  1.00  0.00     0.220 HD
ENDBRANCH  14  16
ENDBRANCH  13  14
BRANCH   1  18
HETATM   18  N1  UNL     1      27.125  74.693  10.406  1.00  0.00    -0.234 N 
ATOM     19  H12 UNL     1      27.510  75.361   9.738  1.00  0.00     0.174 HD
ATOM     20  H11 UNL     1      27.879  74.274  10.952  1.00  0.00     0.174 HD
ENDBRANCH   1  18
TORSDOF 3
ENDMDL
MODEL 5
REMARK VINA RESULT: -6.484194612      2.328      3.108
REMARK  3 active torsions:
REMARK  status: ('A' for Active; 'I' for Inactive)
REMARK    1  A    between atoms: N1_1  and  C1_4 
REMARK    2  A    between atoms: N5_16  and  C6_17 
REMARK    3  A    between atoms: C6_17  and  O2_19 
ROOT
HETATM    1  C1  UNL     1      23.553  73.016  10.367  1.00  0.00     0.687 A 
HETATM    2  N2  UNL     1      23.702  73.958  11.289  1.00  0.00    -0.174 N 
ATOM      3  H2  UNL     1      23.010  74.216  11.993  1.00  0.00     0.186 HD
HETATM    4  C2  UNL     1      24.912  74.514  11.142  1.00  0.00     0.155 A 
HETATM    5  N3  UNL     1      25.587  75.480  11.766  1.00  0.00    -0.336 N 
ATOM      6  H3  UNL     1      25.141  75.955  12.551  1.00  0.00     0.168 HD
HETATM    7  C3  UNL     1      26.819  75.855  11.410  1.00  0.00     0.185 A 
HETATM    8  N4  UNL     1      27.452  75.268  10.390  1.00  0.00    -0.318 N 
ATOM      9  H4  UNL     1      28.393  75.549  10.112  1.00  0.00     0.169 HD
HETATM   10  C4  UNL     1      26.782  74.277   9.736  1.00  0.00     0.278 A 
HETATM   11  O1  UNL     1      27.391  73.741   8.783  1.00  0.00    -0.265 OA
HETATM   12  C5  UNL     1      25.511  73.863  10.072  1.00  0.00     0.172 A 
HETATM   13  N5  UNL     1      24.686  72.939   9.587  1.00  0.00    -0.104 N 
ENDROOT
BRANCH  13  14
HETATM   14  C6  UNL     1      24.838  72.041   8.527  1.00  0.00     0.251 C 
HETATM   15  N6  UNL     1      23.953  71.624   7.533  1.00  0.00    -0.055 NA
BRANCH  14  16
HETATM   16  O2  UNL     1      25.999  71.457   8.396  1.00  0.00    -0.334 OA
ATOM     17  H2  UNL     1      26.500  71.300   9.187  1.00  0.00     0.220 HD
ENDBRANCH  14  16
ENDBRANCH  13  14
BRANCH   1  18
HETATM   18  N1  UNL     1      22.502  72.273  10.215  1.00  0.00    -0.234 N 
ATOM     19  H12 UNL     1      22.415  71.525   9.529  1.00  0.00     0.174 HD
ATOM     20  H11 UNL     1      21.641  72.348  10.759  1.00  0.00     0.174 HD
ENDBRANCH   1  18
TORSDOF 3
ENDMDL
