MODEL 1
REMARK VINA RESULT: -7.060609926      0.000      0.000
REMARK  3 active torsions:
REMARK  status: ('A' for Active; 'I' for Inactive)
REMARK    1  A    between atoms: N1_1  and  C1_4 
REMARK    2  A    between atoms: C4_10  and  C5_11 
REMARK       I    between atoms: C5_11  and  N4_13 
REMARK    3  A    between atoms: N4_13  and  N5_15 
ROOT
HETATM    1  C1  UNL     1      24.445  73.168   9.090  1.00  0.00     0.680 C 
HETATM    2  N2  UNL     1      23.355  73.680   9.723  1.00  0.00    -0.179 N 
ATOM      3  H2  UNL     1      22.449  73.445   9.317  1.00  0.00     0.185 HD
HETATM    4  C2  UNL     1      23.327  74.455  10.816  1.00  0.00     0.133 C 
HETATM    5  N3  UNL     1      22.035  74.655  11.427  1.00  0.00    -0.082 NA
HETATM    6  C3  UNL     1      24.395  75.080  11.408  1.00  0.00     0.068 C 
HETATM    7  C4  UNL     1      25.709  75.186  10.962  1.00  0.00     0.105 C 
HETATM    8  C6  UNL     1      26.265  74.558   9.839  1.00  0.00     0.275 C 
HETATM    9  O2  UNL     1      27.432  74.901   9.508  1.00  0.00    -0.267 OA
HETATM   10  N6  UNL     1      25.707  73.615   9.052  1.00  0.00    -0.155 N 
ATOM     11  H6  UNL     1      26.315  73.195   8.348  1.00  0.00     0.187 HD
ENDROOT
BRANCH   7  12
HETATM   12  C5  UNL     1      26.571  76.076  11.737  1.00  0.00     0.275 C 
HETATM   13  O1  UNL     1      26.087  77.229  11.971  1.00  0.00    -0.266 OA
HETATM   14  N4  UNL     1      27.849  75.664  12.182  1.00  0.00    -0.272 N 
ATOM     15  H4  UNL     1      28.217  74.737  11.970  1.00  0.00     0.189 HD
BRANCH  14  16
HETATM   16  N5  UNL     1      28.575  76.586  12.920  1.00  0.00    -0.342 N 
ATOM     17  H52 UNL     1      28.839  77.486  12.518  1.00  0.00     0.176 HD
ATOM     18  H51 UNL     1      28.825  76.314  13.871  1.00  0.00     0.176 HD
ENDBRANCH  14  16
ENDBRANCH   7  12
BRANCH   1  19
HETATM   19  N1  UNL     1      24.170  72.088   8.448  1.00  0.00    -0.234 N 
ATOM     20  H12 UNL     1      23.216  71.965   8.109  1.00  0.00     0.174 HD
ATOM     21  H11 UNL     1      24.981  71.477   8.359  1.00  0.00     0.174 HD
ENDBRANCH   1  19
TORSDOF 3
ENDMDL
MODEL 2
REMARK VINA RESULT: -6.823741490      1.249      2.688
REMARK  3 active torsions:
REMARK  status: ('A' for Active; 'I' for Inactive)
REMARK    1  A    between atoms: N1_1  and  C1_4 
REMARK    2  A    between atoms: C4_10  and  C5_11 
REMARK       I    between atoms: C5_11  and  N4_13 
REMARK    3  A    between atoms: N4_13  and  N5_15 
ROOT
HETATM    1  C1  UNL     1      23.334  73.358   9.855  1.00  0.00     0.680 C 
HETATM    2  N2  UNL     1      24.245  72.576   9.216  1.00  0.00    -0.179 N 
ATOM      3  H2  UNL     1      23.908  71.671   8.888  1.00  0.00     0.185 HD
HETATM    4  C2  UNL     1      25.532  72.852   8.964  1.00  0.00     0.133 C 
HETATM    5  N3  UNL     1      26.212  71.961   8.054  1.00  0.00    -0.082 NA
HETATM    6  C3  UNL     1      26.269  73.885   9.484  1.00  0.00     0.068 C 
HETATM    7  C4  UNL     1      25.926  74.794  10.480  1.00  0.00     0.105 C 
HETATM    8  C6  UNL     1      24.675  74.926  11.099  1.00  0.00     0.275 C 
HETATM    9  O2  UNL     1      24.604  75.702  12.090  1.00  0.00    -0.267 OA
HETATM   10  N6  UNL     1      23.516  74.321  10.768  1.00  0.00    -0.155 N 
ATOM     11  H6  UNL     1      22.683  74.634  11.269  1.00  0.00     0.187 HD
ENDROOT
BRANCH   7  12
HETATM   12  C5  UNL     1      27.004  75.668  10.939  1.00  0.00     0.275 C 
HETATM   13  O1  UNL     1      27.383  76.546  10.098  1.00  0.00    -0.266 OA
HETATM   14  N4  UNL     1      27.573  75.528  12.226  1.00  0.00    -0.272 N 
ATOM     15  H4  UNL     1      27.257  74.808  12.876  1.00  0.00     0.189 HD
BRANCH  14  16
HETATM   16  N5  UNL     1      28.580  76.420  12.559  1.00  0.00    -0.342 N 
ATOM     17  H52 UNL     1      29.417  76.503  11.982  1.00  0.00     0.176 HD
ATOM     18  H51 UNL     1      28.437  76.978  13.401  1.00  0.00     0.176 HD
ENDBRANCH  14  16
ENDBRANCH   7  12
BRANCH   1  19
HETATM   19  N1  UNL     1      22.129  73.095   9.490  1.00  0.00    -0.234 N 
ATOM     20  H12 UNL     1      21.791  72.141   9.612  1.00  0.00     0.174 HD
ATOM     21  H11 UNL     1      21.655  73.916   9.113  1.00  0.00     0.174 HD
ENDBRANCH   1  19
TORSDOF 3
ENDMDL
MODEL 3
REMARK VINA RESULT: -6.606647107      1.354      1.360
REMARK  3 active torsions:
REMARK  status: ('A' for Active; 'I' for Inactive)
REMARK    1  A    between atoms: N1_1  and  C1_4 
REMARK    2  A    between atoms: C4_10  and  C5_11 
REMARK       I    between atoms: C5_11  and  N4_13 
REMARK    3  A    between atoms: N4_13  and  N5_15 
ROOT
HETATM    1  C1  UNL     1      24.535  72.199   9.980  1.00  0.00     0.680 C 
HETATM    2  N2  UNL     1      23.351  72.822  10.228  1.00  0.00    -0.179 N 
ATOM      3  H2  UNL     1      22.510  72.268  10.069  1.00  0.00     0.185 HD
HETATM    4  C2  UNL     1      23.156  74.077  10.659  1.00  0.00     0.133 C 
HETATM    5  N3  UNL     1      21.816  74.409  11.080  1.00  0.00    -0.082 NA
HETATM    6  C3  UNL     1      24.093  75.075  10.735  1.00  0.00     0.068 C 
HETATM    7  C4  UNL     1      25.404  75.087  10.267  1.00  0.00     0.105 C 
HETATM    8  C6  UNL     1      26.104  74.008   9.708  1.00  0.00     0.275 C 
HETATM    9  O2  UNL     1      27.230  74.256   9.199  1.00  0.00    -0.267 OA
HETATM   10  N6  UNL     1      25.725  72.715   9.644  1.00  0.00    -0.155 N 
ATOM     11  H6  UNL     1      26.424  72.056   9.300  1.00  0.00     0.187 HD
ENDROOT
BRANCH   7  12
HETATM   12  C5  UNL     1      26.092  76.375  10.342  1.00  0.00     0.275 C 
HETATM   13  O1  UNL     1      25.442  77.363   9.874  1.00  0.00    -0.266 OA
HETATM   14  N4  UNL     1      27.388  76.489  10.897  1.00  0.00    -0.272 N 
ATOM     15  H4  UNL     1      27.891  75.677  11.256  1.00  0.00     0.189 HD
BRANCH  14  16
HETATM   16  N5  UNL     1      27.939  77.761  10.929  1.00  0.00    -0.342 N 
ATOM     17  H52 UNL     1      27.505  78.505  11.475  1.00  0.00     0.176 HD
ATOM     18  H51 UNL     1      28.788  77.904  10.383  1.00  0.00     0.176 HD
ENDBRANCH  14  16
ENDBRANCH   7  12
BRANCH   1  19
HETATM   19  N1  UNL     1      24.446  70.923  10.104  1.00  0.00    -0.234 N 
ATOM     20  H12 UNL     1      23.531  70.493   9.969  1.00  0.00     0.174 HD
ATOM     21  H11 UNL     1      25.345  70.495  10.327  1.00  0.00     0.174 HD
ENDBRANCH   1  19
TORSDOF 3
ENDMDL
MODEL 4
REMARK VINA RESULT: -6.594007786      2.629      4.927
REMARK  3 active torsions:
REMARK  status: ('A' for Active; 'I' for Inactive)
REMARK    1  A    between atoms: N1_1  and  C1_4 
REMARK    2  A    between atoms: C4_10  and  C5_11 
REMARK       I    between atoms: C5_11  and  N4_13 
REMARK    3  A    between atoms: N4_13  and  N5_15 
ROOT
HETATM    1  C1  UNL     1      26.594  74.618   9.981  1.00  0.00     0.680 C 
HETATM    2  N2  UNL     1      25.585  74.872  10.857  1.00  0.00    -0.179 N 
ATOM      3  H2  UNL     1      25.826  75.448  11.663  1.00  0.00     0.185 HD
HETATM    4  C2  UNL     1      24.312  74.457  10.789  1.00  0.00     0.133 C 
HETATM    5  N3  UNL     1      23.388  75.070  11.712  1.00  0.00    -0.082 NA
HETATM    6  C3  UNL     1      23.801  73.508   9.940  1.00  0.00     0.068 C 
HETATM    7  C4  UNL     1      24.472  72.661   9.063  1.00  0.00     0.105 C 
HETATM    8  C6  UNL     1      25.842  72.678   8.765  1.00  0.00     0.275 C 
HETATM    9  O2  UNL     1      26.289  71.730   8.065  1.00  0.00    -0.267 OA
HETATM   10  N6  UNL     1      26.761  73.593   9.134  1.00  0.00    -0.155 N 
ATOM     11  H6  UNL     1      27.689  73.493   8.722  1.00  0.00     0.187 HD
ENDROOT
BRANCH   7  12
HETATM   12  C5  UNL     1      23.652  71.632   8.425  1.00  0.00     0.275 C 
HETATM   13  O1  UNL     1      22.852  72.056   7.532  1.00  0.00    -0.266 OA
HETATM   14  N4  UNL     1      23.757  70.270   8.793  1.00  0.00    -0.272 N 
ATOM     15  H4  UNL     1      24.400  69.959   9.521  1.00  0.00     0.189 HD
BRANCH  14  16
HETATM   16  N5  UNL     1      22.940  69.380   8.113  1.00  0.00    -0.342 N 
ATOM     17  H52 UNL     1      22.822  69.447   7.102  1.00  0.00     0.176 HD
ATOM     18  H51 UNL     1      22.474  68.668   8.674  1.00  0.00     0.176 HD
ENDBRANCH  14  16
ENDBRANCH   7  12
BRANCH   1  19
HETATM   19  N1  UNL     1      27.497  75.533  10.003  1.00  0.00    -0.234 N 
ATOM     20  H12 UNL     1      27.477  76.241   9.269  1.00  0.00     0.174 HD
ATOM     21  H11 UNL     1      28.136  75.423  10.790  1.00  0.00     0.174 HD
ENDBRANCH   1  19
TORSDOF 3
ENDMDL
MODEL 5
REMARK VINA RESULT: -6.526235119      1.240      1.274
REMARK  3 active torsions:
REMARK  status: ('A' for Active; 'I' for Inactive)
REMARK    1  A    between atoms: N1_1  and  C1_4 
REMARK    2  A    between atoms: C4_10  and  C5_11 
REMARK       I    between atoms: C5_11  and  N4_13 
REMARK    3  A    between atoms: N4_13  and  N5_15 
ROOT
HETATM    1  C1  UNL     1      24.377  72.181   8.714  1.00  0.00     0.680 C 
HETATM    2  N2  UNL     1      23.245  72.907   8.920  1.00  0.00    -0.179 N 
ATOM      3  H2  UNL     1      22.397  72.552   8.478  1.00  0.00     0.185 HD
HETATM    4  C2  UNL     1      23.109  74.034   9.633  1.00  0.00     0.133 C 
HETATM    5  N3  UNL     1      21.758  74.467   9.898  1.00  0.00    -0.082 NA
HETATM    6  C3  UNL     1      24.118  74.820  10.129  1.00  0.00     0.068 C 
HETATM    7  C4  UNL     1      25.490  74.733   9.908  1.00  0.00     0.105 C 
HETATM    8  C6  UNL     1      26.162  73.723   9.204  1.00  0.00     0.275 C 
HETATM    9  O2  UNL     1      27.389  73.901   8.976  1.00  0.00    -0.267 OA
HETATM   10  N6  UNL     1      25.660  72.563   8.732  1.00  0.00    -0.155 N 
ATOM     11  H6  UNL     1      26.335  71.903   8.345  1.00  0.00     0.187 HD
ENDROOT
BRANCH   7  12
HETATM   12  C5  UNL     1      26.289  75.835  10.440  1.00  0.00     0.275 C 
HETATM   13  O1  UNL     1      25.960  76.991  10.023  1.00  0.00    -0.266 OA
HETATM   14  N4  UNL     1      27.348  75.607  11.350  1.00  0.00    -0.272 N 
ATOM     15  H4  UNL     1      27.597  74.668  11.659  1.00  0.00     0.189 HD
BRANCH  14  16
HETATM   16  N5  UNL     1      28.030  76.728  11.800  1.00  0.00    -0.342 N 
ATOM     17  H52 UNL     1      28.471  77.370  11.141  1.00  0.00     0.176 HD
ATOM     18  H51 UNL     1      28.062  76.867  12.809  1.00  0.00     0.176 HD
ENDBRANCH  14  16
ENDBRANCH   7  12
BRANCH   1  19
HETATM   19  N1  UNL     1      24.121  70.944   8.473  1.00  0.00    -0.234 N 
ATOM     20  H12 UNL     1      23.405  70.731   7.779  1.00  0.00     0.174 HD
ATOM     21  H11 UNL     1      24.698  70.316   9.034  1.00  0.00     0.174 HD
ENDBRANCH   1  19
TORSDOF 3
ENDMDL
