MODEL 1
REMARK VINA RESULT: -7.757022045      0.000      0.000
REMARK  7 active torsions:
REMARK  status: ('A' for Active; 'I' for Inactive)
REMARK    1  A    between atoms: C2_2  and  C3_3 
REMARK    2  A    between atoms: C3_3  and  C4_4 
REMARK       I    between atoms: C4_4  and  N1_6 
REMARK    3  A    between atoms: C7_9  and  C8_10 
REMARK    4  A    between atoms: C7_9  and  C11_13 
REMARK    5  A    between atoms: C8_10  and  C9_11 
REMARK    6  A    between atoms: C11_13  and  N3_18 
REMARK    7  A    between atoms: N2_14  and  O2_16 
ROOT
HETATM    1  C4  UNL     1      88.725   2.072  63.047  1.00  0.00     0.219 C 
HETATM    2  O1  UNL     1      88.745   1.489  64.166  1.00  0.00    -0.273 OA
HETATM    3  N1  UNL     1      87.523   2.172  62.292  1.00  0.00    -0.348 N 
HETATM    4  C5  UNL     1      86.337   1.597  62.827  1.00  0.00     0.127 C 
HETATM    5  C6  UNL     1      85.266   1.267  61.817  1.00  0.00     0.042 C 
HETATM    6  C7  UNL     1      85.120   2.351  60.779  1.00  0.00     0.073 C 
HETATM    7  C17 UNL     1      86.469   2.505  60.091  1.00  0.00     0.209 C 
HETATM    8  F1  UNL     1      86.848   1.372  59.404  1.00  0.00    -0.222 F 
HETATM    9 CL1  UNL     1      86.319   3.823  58.914  1.00  0.00    -0.079 Cl
HETATM   10  C18 UNL     1      87.574   2.844  61.037  1.00  0.00     0.187 C 
ENDROOT
BRANCH   6  11
HETATM   11  C8  UNL     1      84.879   3.697  61.418  1.00  0.00     0.022 C 
BRANCH  11  12
HETATM   12  C9  UNL     1      84.059   3.724  62.636  1.00  0.00    -0.003 C 
HETATM   13  C10 UNL     1      83.238   5.025  62.613  1.00  0.00     0.005 C 
ENDBRANCH  11  12
ENDBRANCH   6  11
BRANCH   6  14
HETATM   14  C11 UNL     1      84.092   2.080  59.788  1.00  0.00     0.113 C 
HETATM   15  N2  UNL     1      84.297   1.132  58.906  1.00  0.00    -0.256 N 
ATOM     16  H2  UNL     1      85.169   0.604  58.930  1.00  0.00     0.195 HD
BRANCH  15  17
HETATM   17  O2  UNL     1      83.377   0.847  57.970  1.00  0.00    -0.288 OA
ATOM     18  H2  UNL     1      83.453   0.070  57.430  1.00  0.00     0.244 HD
ENDBRANCH  15  17
BRANCH  14  19
HETATM   19  N3  UNL     1      82.837   2.724  59.666  1.00  0.00    -0.369 N 
HETATM   20  C12 UNL     1      82.688   3.954  58.941  1.00  0.00     0.124 C 
HETATM   21  C13 UNL     1      81.187   4.156  58.663  1.00  0.00     0.020 C 
HETATM   22  C14 UNL     1      80.585   4.422  60.033  1.00  0.00     0.003 C 
HETATM   23  C15 UNL     1      80.786   3.222  60.923  1.00  0.00     0.020 C 
HETATM   24  C16 UNL     1      81.668   2.173  60.280  1.00  0.00     0.124 C 
ENDBRANCH  14  19
ENDBRANCH   6  14
BRANCH   1  25
HETATM   25  C3  UNL     1      90.012   2.642  62.571  1.00  0.00     0.103 C 
BRANCH  25  26
HETATM   26  C2  UNL     1      91.182   2.075  63.342  1.00  0.00     0.005 C 
HETATM   27  C1  UNL     1      92.344   3.033  63.160  1.00  0.00     0.005 C 
ENDBRANCH  25  26
ENDBRANCH   1  25
TORSDOF 7
ENDMDL
MODEL 2
REMARK VINA RESULT: -7.639989806      2.154      3.147
REMARK  7 active torsions:
REMARK  status: ('A' for Active; 'I' for Inactive)
REMARK    1  A    between atoms: C2_2  and  C3_3 
REMARK    2  A    between atoms: C3_3  and  C4_4 
REMARK       I    between atoms: C4_4  and  N1_6 
REMARK    3  A    between atoms: C7_9  and  C8_10 
REMARK    4  A    between atoms: C7_9  and  C11_13 
REMARK    5  A    between atoms: C8_10  and  C9_11 
REMARK    6  A    between atoms: C11_13  and  N3_18 
REMARK    7  A    between atoms: N2_14  and  O2_16 
ROOT
HETATM    1  C4  UNL     1      88.222   2.061  63.108  1.00  0.00     0.219 C 
HETATM    2  O1  UNL     1      89.456   2.063  62.840  1.00  0.00    -0.273 OA
HETATM    3  N1  UNL     1      87.249   2.257  62.087  1.00  0.00    -0.348 N 
HETATM    4  C5  UNL     1      87.697   2.455  60.752  1.00  0.00     0.127 C 
HETATM    5  C6  UNL     1      86.721   3.156  59.839  1.00  0.00     0.042 C 
HETATM    6  C7  UNL     1      85.310   2.667  60.046  1.00  0.00     0.073 C 
HETATM    7  C17 UNL     1      84.951   2.921  61.504  1.00  0.00     0.209 C 
HETATM    8  F1  UNL     1      84.936   4.262  61.823  1.00  0.00    -0.222 F 
HETATM    9 CL1  UNL     1      83.314   2.289  61.766  1.00  0.00    -0.079 Cl
HETATM   10  C18 UNL     1      85.875   2.244  62.461  1.00  0.00     0.187 C 
ENDROOT
BRANCH   6  11
HETATM   11  C8  UNL     1      85.220   1.167  59.903  1.00  0.00     0.022 C 
BRANCH  11  12
HETATM   12  C9  UNL     1      85.625   0.592  58.614  1.00  0.00    -0.003 C 
HETATM   13  C10 UNL     1      84.407  -0.150  58.034  1.00  0.00     0.005 C 
ENDBRANCH  11  12
ENDBRANCH   6  11
BRANCH   6  14
HETATM   14  C11 UNL     1      84.334   3.309  59.182  1.00  0.00     0.113 C 
HETATM   15  N2  UNL     1      84.728   3.787  58.027  1.00  0.00    -0.256 N 
ATOM     16  H2  UNL     1      85.707   3.701  57.756  1.00  0.00     0.195 HD
BRANCH  15  17
HETATM   17  O2  UNL     1      83.862   4.390  57.196  1.00  0.00    -0.288 OA
ATOM     18  H2  UNL     1      84.127   4.660  56.325  1.00  0.00     0.244 HD
ENDBRANCH  15  17
BRANCH  14  19
HETATM   19  N3  UNL     1      82.949   3.468  59.433  1.00  0.00    -0.369 N 
HETATM   20  C12 UNL     1      81.989   2.489  59.010  1.00  0.00     0.124 C 
HETATM   21  C13 UNL     1      80.679   2.755  59.773  1.00  0.00     0.020 C 
HETATM   22  C14 UNL     1      80.180   4.076  59.212  1.00  0.00     0.003 C 
HETATM   23  C15 UNL     1      81.177   5.168  59.505  1.00  0.00     0.020 C 
HETATM   24  C16 UNL     1      82.456   4.628  60.109  1.00  0.00     0.124 C 
ENDBRANCH  14  19
ENDBRANCH   6  14
BRANCH   1  25
HETATM   25  C3  UNL     1      87.850   1.847  64.529  1.00  0.00     0.103 C 
BRANCH  25  26
HETATM   26  C2  UNL     1      89.032   1.367  65.340  1.00  0.00     0.005 C 
HETATM   27  C1  UNL     1      88.480   0.708  66.590  1.00  0.00     0.005 C 
ENDBRANCH  25  26
ENDBRANCH   1  25
TORSDOF 7
ENDMDL
MODEL 3
REMARK VINA RESULT: -7.310307194      1.870      2.517
REMARK  7 active torsions:
REMARK  status: ('A' for Active; 'I' for Inactive)
REMARK    1  A    between atoms: C2_2  and  C3_3 
REMARK    2  A    between atoms: C3_3  and  C4_4 
REMARK       I    between atoms: C4_4  and  N1_6 
REMARK    3  A    between atoms: C7_9  and  C8_10 
REMARK    4  A    between atoms: C7_9  and  C11_13 
REMARK    5  A    between atoms: C8_10  and  C9_11 
REMARK    6  A    between atoms: C11_13  and  N3_18 
REMARK    7  A    between atoms: N2_14  and  O2_16 
ROOT
HETATM    1  C4  UNL     1      89.522   1.882  61.589  1.00  0.00     0.219 C 
HETATM    2  O1  UNL     1      90.269   0.992  61.096  1.00  0.00    -0.273 OA
HETATM    3  N1  UNL     1      88.216   2.113  61.072  1.00  0.00    -0.348 N 
HETATM    4  C5  UNL     1      87.766   1.316  59.983  1.00  0.00     0.127 C 
HETATM    5  C6  UNL     1      86.653   1.915  59.159  1.00  0.00     0.042 C 
HETATM    6  C7  UNL     1      85.613   2.583  60.023  1.00  0.00     0.073 C 
HETATM    7  C17 UNL     1      86.319   3.665  60.829  1.00  0.00     0.209 C 
HETATM    8  F1  UNL     1      86.847   4.660  60.035  1.00  0.00    -0.222 F 
HETATM    9 CL1  UNL     1      85.111   4.410  61.892  1.00  0.00    -0.079 Cl
HETATM   10  C18 UNL     1      87.428   3.134  61.676  1.00  0.00     0.187 C 
ENDROOT
BRANCH   6  11
HETATM   11  C8  UNL     1      85.077   1.638  61.071  1.00  0.00     0.022 C 
BRANCH  11  12
HETATM   12  C9  UNL     1      85.113   0.203  60.760  1.00  0.00    -0.003 C 
HETATM   13  C10 UNL     1      85.168  -0.559  62.097  1.00  0.00     0.005 C 
ENDBRANCH  11  12
ENDBRANCH   6  11
BRANCH   6  14
HETATM   14  C11 UNL     1      84.515   3.169  59.273  1.00  0.00     0.113 C 
HETATM   15  N2  UNL     1      84.753   3.660  58.081  1.00  0.00    -0.256 N 
ATOM     16  H2  UNL     1      85.700   3.623  57.703  1.00  0.00     0.195 HD
BRANCH  15  17
HETATM   17  O2  UNL     1      83.770   4.212  57.351  1.00  0.00    -0.288 OA
ATOM     18  H2  UNL     1      83.249   4.928  57.695  1.00  0.00     0.244 HD
ENDBRANCH  15  17
BRANCH  14  19
HETATM   19  N3  UNL     1      83.161   3.257  59.677  1.00  0.00    -0.369 N 
HETATM   20  C12 UNL     1      82.199   2.256  59.314  1.00  0.00     0.124 C 
HETATM   21  C13 UNL     1      80.970   2.434  60.223  1.00  0.00     0.020 C 
HETATM   22  C14 UNL     1      80.363   3.754  59.778  1.00  0.00     0.003 C 
HETATM   23  C15 UNL     1      81.342   4.875  60.013  1.00  0.00     0.020 C 
HETATM   24  C16 UNL     1      82.699   4.366  60.453  1.00  0.00     0.124 C 
ENDBRANCH  14  19
ENDBRANCH   6  14
BRANCH   1  25
HETATM   25  C3  UNL     1      90.078   2.664  62.723  1.00  0.00     0.103 C 
BRANCH  25  26
HETATM   26  C2  UNL     1      91.269   1.967  63.338  1.00  0.00     0.005 C 
HETATM   27  C1  UNL     1      92.452   2.909  63.215  1.00  0.00     0.005 C 
ENDBRANCH  25  26
ENDBRANCH   1  25
TORSDOF 7
ENDMDL
MODEL 4
REMARK VINA RESULT: -7.164369796      2.376      6.770
REMARK  7 active torsions:
REMARK  status: ('A' for Active; 'I' for Inactive)
REMARK    1  A    between atoms: C2_2  and  C3_3 
REMARK    2  A    between atoms: C3_3  and  C4_4 
REMARK       I    between atoms: C4_4  and  N1_6 
REMARK    3  A    between atoms: C7_9  and  C8_10 
REMARK    4  A    between atoms: C7_9  and  C11_13 
REMARK    5  A    between atoms: C8_10  and  C9_11 
REMARK    6  A    between atoms: C11_13  and  N3_18 
REMARK    7  A    between atoms: N2_14  and  O2_16 
ROOT
HETATM    1  C4  UNL     1      80.914   4.024  61.742  1.00  0.00     0.219 C 
HETATM    2  O1  UNL     1      80.697   4.718  62.774  1.00  0.00    -0.273 OA
HETATM    3  N1  UNL     1      82.228   3.586  61.415  1.00  0.00    -0.348 N 
HETATM    4  C5  UNL     1      83.298   3.948  62.278  1.00  0.00     0.127 C 
HETATM    5  C6  UNL     1      84.671   3.927  61.652  1.00  0.00     0.042 C 
HETATM    6  C7  UNL     1      84.859   2.730  60.755  1.00  0.00     0.073 C 
HETATM    7  C17 UNL     1      83.785   2.795  59.679  1.00  0.00     0.209 C 
HETATM    8  F1  UNL     1      83.913   3.900  58.865  1.00  0.00    -0.222 F 
HETATM    9 CL1  UNL     1      83.965   1.354  58.660  1.00  0.00    -0.079 Cl
HETATM   10  C18 UNL     1      82.399   2.807  60.235  1.00  0.00     0.187 C 
ENDROOT
BRANCH   6  11
HETATM   11  C8  UNL     1      84.568   1.442  61.487  1.00  0.00     0.022 C 
BRANCH  11  12
HETATM   12  C9  UNL     1      85.059   1.329  62.866  1.00  0.00    -0.003 C 
HETATM   13  C10 UNL     1      84.863  -0.132  63.309  1.00  0.00     0.005 C 
ENDBRANCH  11  12
ENDBRANCH   6  11
BRANCH   6  14
HETATM   14  C11 UNL     1      86.172   2.663  60.134  1.00  0.00     0.113 C 
HETATM   15  N2  UNL     1      86.311   3.084  58.901  1.00  0.00    -0.256 N 
ATOM     16  H2  UNL     1      85.501   3.450  58.401  1.00  0.00     0.195 HD
BRANCH  15  17
HETATM   17  O2  UNL     1      87.505   3.041  58.286  1.00  0.00    -0.288 OA
ATOM     18  H2  UNL     1      88.134   2.359  58.487  1.00  0.00     0.244 HD
ENDBRANCH  15  17
BRANCH  14  19
HETATM   19  N3  UNL     1      87.372   2.202  60.728  1.00  0.00    -0.369 N 
HETATM   20  C12 UNL     1      88.107   3.005  61.663  1.00  0.00     0.124 C 
HETATM   21  C13 UNL     1      89.094   2.083  62.401  1.00  0.00     0.020 C 
HETATM   22  C14 UNL     1      90.101   1.682  61.335  1.00  0.00     0.003 C 
HETATM   23  C15 UNL     1      89.409   0.920  60.236  1.00  0.00     0.020 C 
HETATM   24  C16 UNL     1      87.904   0.915  60.402  1.00  0.00     0.124 C 
ENDBRANCH  14  19
ENDBRANCH   6  14
BRANCH   1  25
HETATM   25  C3  UNL     1      79.734   3.695  60.901  1.00  0.00     0.103 C 
BRANCH  25  26
HETATM   26  C2  UNL     1      79.010   4.946  60.459  1.00  0.00     0.005 C 
HETATM   27  C1  UNL     1      79.895   5.639  59.440  1.00  0.00     0.005 C 
ENDBRANCH  25  26
ENDBRANCH   1  25
TORSDOF 7
ENDMDL
MODEL 5
REMARK VINA RESULT: -7.084208541      1.993      2.210
REMARK  7 active torsions:
REMARK  status: ('A' for Active; 'I' for Inactive)
REMARK    1  A    between atoms: C2_2  and  C3_3 
REMARK    2  A    between atoms: C3_3  and  C4_4 
REMARK       I    between atoms: C4_4  and  N1_6 
REMARK    3  A    between atoms: C7_9  and  C8_10 
REMARK    4  A    between atoms: C7_9  and  C11_13 
REMARK    5  A    between atoms: C8_10  and  C9_11 
REMARK    6  A    between atoms: C11_13  and  N3_18 
REMARK    7  A    between atoms: N2_14  and  O2_16 
ROOT
HETATM    1  C4  UNL     1      86.390   1.240  64.663  1.00  0.00     0.219 C 
HETATM    2  O1  UNL     1      85.914   0.628  65.659  1.00  0.00    -0.273 OA
HETATM    3  N1  UNL     1      85.546   1.714  63.620  1.00  0.00    -0.348 N 
HETATM    4  C5  UNL     1      84.147   1.484  63.723  1.00  0.00     0.127 C 
HETATM    5  C6  UNL     1      83.387   1.520  62.419  1.00  0.00     0.042 C 
HETATM    6  C7  UNL     1      83.855   2.643  61.529  1.00  0.00     0.073 C 
HETATM    7  C17 UNL     1      85.341   2.429  61.272  1.00  0.00     0.209 C 
HETATM    8  F1  UNL     1      85.600   1.265  60.581  1.00  0.00    -0.222 F 
HETATM    9 CL1  UNL     1      85.908   3.783  60.277  1.00  0.00    -0.079 Cl
HETATM   10  C18 UNL     1      86.152   2.395  62.525  1.00  0.00     0.187 C 
ENDROOT
BRANCH   6  11
HETATM   11  C8  UNL     1      83.794   3.973  62.240  1.00  0.00     0.022 C 
BRANCH  11  12
HETATM   12  C9  UNL     1      82.644   4.208  63.122  1.00  0.00    -0.003 C 
HETATM   13  C10 UNL     1      82.294   5.705  63.036  1.00  0.00     0.005 C 
ENDBRANCH  11  12
ENDBRANCH   6  11
BRANCH   6  14
HETATM   14  C11 UNL     1      83.146   2.722  60.263  1.00  0.00     0.113 C 
HETATM   15  N2  UNL     1      83.564   1.995  59.255  1.00  0.00    -0.256 N 
ATOM     16  H2  UNL     1      84.375   1.389  59.377  1.00  0.00     0.195 HD
BRANCH  15  17
HETATM   17  O2  UNL     1      82.941   2.036  58.066  1.00  0.00    -0.288 OA
ATOM     18  H2  UNL     1      82.831   1.251  57.544  1.00  0.00     0.244 HD
ENDBRANCH  15  17
BRANCH  14  19
HETATM   19  N3  UNL     1      81.999   3.502  59.977  1.00  0.00    -0.369 N 
HETATM   20  C12 UNL     1      82.104   4.835  59.456  1.00  0.00     0.124 C 
HETATM   21  C13 UNL     1      80.727   5.229  58.893  1.00  0.00     0.020 C 
HETATM   22  C14 UNL     1      79.840   5.347  60.121  1.00  0.00     0.003 C 
HETATM   23  C15 UNL     1      79.748   4.014  60.817  1.00  0.00     0.020 C 
HETATM   24  C16 UNL     1      80.686   2.989  60.217  1.00  0.00     0.124 C 
ENDBRANCH  14  19
ENDBRANCH   6  14
BRANCH   1  25
HETATM   25  C3  UNL     1      87.863   1.433  64.643  1.00  0.00     0.103 C 
BRANCH  25  26
HETATM   26  C2  UNL     1      88.495   0.973  65.936  1.00  0.00     0.005 C 
HETATM   27  C1  UNL     1      88.666   2.199  66.813  1.00  0.00     0.005 C 
ENDBRANCH  25  26
ENDBRANCH   1  25
TORSDOF 7
ENDMDL
