MODEL 1
REMARK VINA RESULT: -9.470286874      0.000      0.000
REMARK  6 active torsions:
REMARK  status: ('A' for Active; 'I' for Inactive)
REMARK    1  A    between atoms: O1_1  and  C1_3 
REMARK    2  A    between atoms: C1_3  and  C2_4 
REMARK    3  A    between atoms: C1_3  and  C16_23 
REMARK    4  A    between atoms: C2_4  and  N1_5 
REMARK    5  A    between atoms: C4_9  and  C5_10 
REMARK    6  A    between atoms: C11_17  and  C12_18 
ROOT
HETATM    1  N1  UNL     1      85.056   3.485  59.108  1.00  0.00    -0.288 N 
HETATM    2  N2  UNL     1      86.224   3.234  58.517  1.00  0.00    -0.308 N 
ATOM      3  H2  UNL     1      86.421   3.366  57.525  1.00  0.00     0.186 HD
HETATM    4  C3  UNL     1      87.095   2.784  59.417  1.00  0.00     0.122 A 
HETATM    5  C4  UNL     1      86.443   2.747  60.647  1.00  0.00     0.020 A 
HETATM    6  C11 UNL     1      85.174   3.197  60.388  1.00  0.00     0.074 A 
ENDROOT
BRANCH   1   7
HETATM    7  C2  UNL     1      83.917   3.989  58.394  1.00  0.00     0.185 C 
BRANCH   7   8
HETATM    8  C1  UNL     1      82.785   3.012  58.256  1.00  0.00     0.171 C 
BRANCH   8   9
HETATM    9  O1  UNL     1      82.440   2.734  56.940  1.00  0.00    -0.389 OA
ATOM     10  H1  UNL     1      81.986   3.444  56.503  1.00  0.00     0.210 HD
ENDBRANCH   8   9
BRANCH   8  11
HETATM   11  C16 UNL     1      81.581   3.400  59.033  1.00  0.00    -0.028 A 
HETATM   12  C17 UNL     1      81.393   4.730  59.333  1.00  0.00     0.013 A 
HETATM   13  C18 UNL     1      80.259   5.069  60.062  1.00  0.00     0.043 A 
HETATM   14  C19 UNL     1      79.336   4.134  60.485  1.00  0.00     0.116 A 
HETATM   15  F2  UNL     1      78.256   4.567  61.194  1.00  0.00    -0.206 F 
HETATM   16  C20 UNL     1      79.526   2.801  60.182  1.00  0.00     0.043 A 
HETATM   17  C21 UNL     1      80.649   2.458  59.459  1.00  0.00     0.013 A 
ENDBRANCH   8  11
ENDBRANCH   7   8
ENDBRANCH   1   7
BRANCH   6  18
HETATM   18  C12 UNL     1      84.128   3.332  61.442  1.00  0.00     0.000 A 
HETATM   19  C13 UNL     1      83.846   4.464  62.096  1.00  0.00     0.021 A 
HETATM   20  C14 UNL     1      82.857   4.439  63.035  1.00  0.00     0.050 A 
HETATM   21  S1  UNL     1      82.335   2.816  62.988  1.00  0.00    -0.113 SA
HETATM   22  C15 UNL     1      83.384   2.224  61.781  1.00  0.00     0.063 A 
ENDBRANCH   6  18
BRANCH   5  23
HETATM   23  C5  UNL     1      87.049   2.313  61.895  1.00  0.00    -0.022 A 
HETATM   24  C6  UNL     1      86.309   1.715  62.886  1.00  0.00     0.015 A 
HETATM   25  C7  UNL     1      86.875   1.296  64.082  1.00  0.00     0.043 A 
HETATM   26  C8  UNL     1      88.218   1.472  64.304  1.00  0.00     0.116 A 
HETATM   27  F1  UNL     1      88.788   1.060  65.484  1.00  0.00    -0.206 F 
HETATM   28  C9  UNL     1      88.980   2.067  63.329  1.00  0.00     0.043 A 
HETATM   29  C10 UNL     1      88.397   2.485  62.128  1.00  0.00     0.015 A 
ENDBRANCH   5  23
TORSDOF 6
ENDMDL
MODEL 2
REMARK VINA RESULT: -9.376437537      2.172      2.925
REMARK  6 active torsions:
REMARK  status: ('A' for Active; 'I' for Inactive)
REMARK    1  A    between atoms: O1_1  and  C1_3 
REMARK    2  A    between atoms: C1_3  and  C2_4 
REMARK    3  A    between atoms: C1_3  and  C16_23 
REMARK    4  A    between atoms: C2_4  and  N1_5 
REMARK    5  A    between atoms: C4_9  and  C5_10 
REMARK    6  A    between atoms: C11_17  and  C12_18 
ROOT
HETATM    1  N1  UNL     1      84.538   2.454  59.322  1.00  0.00    -0.288 N 
HETATM    2  N2  UNL     1      85.239   3.056  58.360  1.00  0.00    -0.308 N 
ATOM      3  H2  UNL     1      84.844   3.450  57.506  1.00  0.00     0.186 HD
HETATM    4  C3  UNL     1      86.529   3.064  58.682  1.00  0.00     0.122 A 
HETATM    5  C4  UNL     1      86.656   2.431  59.917  1.00  0.00     0.020 A 
HETATM    6  C11 UNL     1      85.379   2.074  60.263  1.00  0.00     0.074 A 
ENDROOT
BRANCH   1   7
HETATM    7  C2  UNL     1      83.113   2.296  59.261  1.00  0.00     0.185 C 
BRANCH   7   8
HETATM    8  C1  UNL     1      82.334   3.551  59.528  1.00  0.00     0.171 C 
BRANCH   8   9
HETATM    9  O1  UNL     1      82.865   4.682  58.921  1.00  0.00    -0.389 OA
ATOM     10  H1  UNL     1      82.453   5.493  59.192  1.00  0.00     0.210 HD
ENDBRANCH   8   9
BRANCH   8  11
HETATM   11  C16 UNL     1      82.107   3.802  60.974  1.00  0.00    -0.028 A 
HETATM   12  C17 UNL     1      81.322   2.919  61.679  1.00  0.00     0.013 A 
HETATM   13  C18 UNL     1      81.124   3.175  63.030  1.00  0.00     0.043 A 
HETATM   14  C19 UNL     1      81.676   4.263  63.673  1.00  0.00     0.116 A 
HETATM   15  F2  UNL     1      81.423   4.427  65.002  1.00  0.00    -0.206 F 
HETATM   16  C20 UNL     1      82.464   5.148  62.965  1.00  0.00     0.043 A 
HETATM   17  C21 UNL     1      82.665   4.900  61.623  1.00  0.00     0.013 A 
ENDBRANCH   8  11
ENDBRANCH   7   8
ENDBRANCH   1   7
BRANCH   6  18
HETATM   18  C12 UNL     1      85.048   1.372  61.536  1.00  0.00     0.000 A 
HETATM   19  C13 UNL     1      84.690   1.981  62.673  1.00  0.00     0.021 A 
HETATM   20  C14 UNL     1      84.412   1.208  63.760  1.00  0.00     0.050 A 
HETATM   21  S1  UNL     1      84.658  -0.373  63.171  1.00  0.00    -0.113 SA
HETATM   22  C15 UNL     1      85.104  -0.004  61.567  1.00  0.00     0.063 A 
ENDBRANCH   6  18
BRANCH   5  23
HETATM   23  C5  UNL     1      87.911   2.233  60.623  1.00  0.00    -0.022 A 
HETATM   24  C6  UNL     1      88.233   2.965  61.740  1.00  0.00     0.015 A 
HETATM   25  C7  UNL     1      89.428   2.785  62.423  1.00  0.00     0.043 A 
HETATM   26  C8  UNL     1      90.334   1.850  61.987  1.00  0.00     0.116 A 
HETATM   27  F1  UNL     1      91.519   1.665  62.656  1.00  0.00    -0.206 F 
HETATM   28  C9  UNL     1      90.035   1.105  60.873  1.00  0.00     0.043 A 
HETATM   29  C10 UNL     1      88.827   1.296  60.194  1.00  0.00     0.015 A 
ENDBRANCH   5  23
TORSDOF 6
ENDMDL
MODEL 3
REMARK VINA RESULT: -9.321267687      1.785      2.481
REMARK  6 active torsions:
REMARK  status: ('A' for Active; 'I' for Inactive)
REMARK    1  A    between atoms: O1_1  and  C1_3 
REMARK    2  A    between atoms: C1_3  and  C2_4 
REMARK    3  A    between atoms: C1_3  and  C16_23 
REMARK    4  A    between atoms: C2_4  and  N1_5 
REMARK    5  A    between atoms: C4_9  and  C5_10 
REMARK    6  A    between atoms: C11_17  and  C12_18 
ROOT
HETATM    1  N1  UNL     1      84.504   2.464  59.158  1.00  0.00    -0.288 N 
HETATM    2  N2  UNL     1      85.225   3.099  58.233  1.00  0.00    -0.308 N 
ATOM      3  H2  UNL     1      84.851   3.509  57.377  1.00  0.00     0.186 HD
HETATM    4  C3  UNL     1      86.504   3.116  58.596  1.00  0.00     0.122 A 
HETATM    5  C4  UNL     1      86.602   2.454  59.818  1.00  0.00     0.020 A 
HETATM    6  C11 UNL     1      85.320   2.072  60.115  1.00  0.00     0.074 A 
ENDROOT
BRANCH   1   7
HETATM    7  C2  UNL     1      83.083   2.289  59.050  1.00  0.00     0.185 C 
BRANCH   7   8
HETATM    8  C1  UNL     1      82.321   3.546  58.740  1.00  0.00     0.171 C 
BRANCH   8   9
HETATM    9  O1  UNL     1      83.098   4.697  58.778  1.00  0.00    -0.389 OA
ATOM     10  H1  UNL     1      82.849   5.349  58.134  1.00  0.00     0.210 HD
ENDBRANCH   8   9
BRANCH   8  11
HETATM   11  C16 UNL     1      81.107   3.715  59.578  1.00  0.00    -0.028 A 
HETATM   12  C17 UNL     1      80.622   2.623  60.259  1.00  0.00     0.013 A 
HETATM   13  C18 UNL     1      79.485   2.806  61.037  1.00  0.00     0.043 A 
HETATM   14  C19 UNL     1      78.841   4.022  61.143  1.00  0.00     0.116 A 
HETATM   15  F2  UNL     1      77.732   4.099  61.932  1.00  0.00    -0.206 F 
HETATM   16  C20 UNL     1      79.330   5.116  60.460  1.00  0.00     0.043 A 
HETATM   17  C21 UNL     1      80.458   4.942  59.687  1.00  0.00     0.013 A 
ENDBRANCH   8  11
ENDBRANCH   7   8
ENDBRANCH   1   7
BRANCH   6  18
HETATM   18  C12 UNL     1      84.960   1.335  61.360  1.00  0.00     0.000 A 
HETATM   19  C13 UNL     1      85.197   0.035  61.573  1.00  0.00     0.021 A 
HETATM   20  C14 UNL     1      84.815  -0.506  62.764  1.00  0.00     0.050 A 
HETATM   21  S1  UNL     1      84.123   0.824  63.576  1.00  0.00    -0.113 SA
HETATM   22  C15 UNL     1      84.340   2.021  62.381  1.00  0.00     0.063 A 
ENDBRANCH   6  18
BRANCH   5  23
HETATM   23  C5  UNL     1      87.837   2.255  60.557  1.00  0.00    -0.022 A 
HETATM   24  C6  UNL     1      88.136   2.994  61.676  1.00  0.00     0.015 A 
HETATM   25  C7  UNL     1      89.312   2.814  62.390  1.00  0.00     0.043 A 
HETATM   26  C8  UNL     1      90.222   1.869  61.986  1.00  0.00     0.116 A 
HETATM   27  F1  UNL     1      91.389   1.683  62.687  1.00  0.00    -0.206 F 
HETATM   28  C9  UNL     1      89.948   1.116  60.871  1.00  0.00     0.043 A 
HETATM   29  C10 UNL     1      88.758   1.309  60.160  1.00  0.00     0.015 A 
ENDBRANCH   5  23
TORSDOF 6
ENDMDL
MODEL 4
REMARK VINA RESULT: -9.304444873      1.067      1.457
REMARK  6 active torsions:
REMARK  status: ('A' for Active; 'I' for Inactive)
REMARK    1  A    between atoms: O1_1  and  C1_3 
REMARK    2  A    between atoms: C1_3  and  C2_4 
REMARK    3  A    between atoms: C1_3  and  C16_23 
REMARK    4  A    between atoms: C2_4  and  N1_5 
REMARK    5  A    between atoms: C4_9  and  C5_10 
REMARK    6  A    between atoms: C11_17  and  C12_18 
ROOT
HETATM    1  N1  UNL     1      84.443   1.652  59.226  1.00  0.00    -0.288 N 
HETATM    2  N2  UNL     1      85.488   1.159  58.561  1.00  0.00    -0.308 N 
ATOM      3  H2  UNL     1      85.477   0.863  57.585  1.00  0.00     0.186 HD
HETATM    4  C3  UNL     1      86.548   1.112  59.363  1.00  0.00     0.122 A 
HETATM    5  C4  UNL     1      86.154   1.601  60.606  1.00  0.00     0.020 A 
HETATM    6  C11 UNL     1      84.830   1.922  60.456  1.00  0.00     0.074 A 
ENDROOT
BRANCH   1   7
HETATM    7  C2  UNL     1      83.152   1.830  58.622  1.00  0.00     0.185 C 
BRANCH   7   8
HETATM    8  C1  UNL     1      82.813   3.253  58.283  1.00  0.00     0.171 C 
BRANCH   8   9
HETATM    9  O1  UNL     1      83.893   4.122  58.361  1.00  0.00    -0.389 OA
ATOM     10  H1  UNL     1      83.899   4.789  57.685  1.00  0.00     0.210 HD
ENDBRANCH   8   9
BRANCH   8  11
HETATM   11  C16 UNL     1      81.668   3.783  59.065  1.00  0.00    -0.028 A 
HETATM   12  C17 UNL     1      80.806   2.888  59.656  1.00  0.00     0.013 A 
HETATM   13  C18 UNL     1      79.741   3.409  60.383  1.00  0.00     0.043 A 
HETATM   14  C19 UNL     1      79.527   4.764  60.526  1.00  0.00     0.116 A 
HETATM   15  F2  UNL     1      78.453   5.174  61.259  1.00  0.00    -0.206 F 
HETATM   16  C20 UNL     1      80.393   5.659  59.934  1.00  0.00     0.043 A 
HETATM   17  C21 UNL     1      81.451   5.151  59.211  1.00  0.00     0.013 A 
ENDBRANCH   8  11
ENDBRANCH   7   8
ENDBRANCH   1   7
BRANCH   6  18
HETATM   18  C12 UNL     1      84.004   2.499  61.555  1.00  0.00     0.000 A 
HETATM   19  C13 UNL     1      83.934   3.801  61.853  1.00  0.00     0.021 A 
HETATM   20  C14 UNL     1      83.131   4.186  62.885  1.00  0.00     0.050 A 
HETATM   21  S1  UNL     1      82.480   2.706  63.427  1.00  0.00    -0.113 SA
HETATM   22  C15 UNL     1      83.246   1.649  62.329  1.00  0.00     0.063 A 
ENDBRANCH   6  18
BRANCH   5  23
HETATM   23  C5  UNL     1      87.023   1.716  61.766  1.00  0.00    -0.022 A 
HETATM   24  C6  UNL     1      86.615   1.316  63.016  1.00  0.00     0.015 A 
HETATM   25  C7  UNL     1      87.434   1.421  64.131  1.00  0.00     0.043 A 
HETATM   26  C8  UNL     1      88.700   1.938  64.006  1.00  0.00     0.116 A 
HETATM   27  F1  UNL     1      89.519   2.046  65.104  1.00  0.00    -0.206 F 
HETATM   28  C9  UNL     1      89.132   2.345  62.768  1.00  0.00     0.043 A 
HETATM   29  C10 UNL     1      88.296   2.233  61.652  1.00  0.00     0.015 A 
ENDBRANCH   5  23
TORSDOF 6
ENDMDL
MODEL 5
REMARK VINA RESULT: -9.206975373      2.116      2.878
REMARK  6 active torsions:
REMARK  status: ('A' for Active; 'I' for Inactive)
REMARK    1  A    between atoms: O1_1  and  C1_3 
REMARK    2  A    between atoms: C1_3  and  C2_4 
REMARK    3  A    between atoms: C1_3  and  C16_23 
REMARK    4  A    between atoms: C2_4  and  N1_5 
REMARK    5  A    between atoms: C4_9  and  C5_10 
REMARK    6  A    between atoms: C11_17  and  C12_18 
ROOT
HETATM    1  N1  UNL     1      84.662   2.549  59.529  1.00  0.00    -0.288 N 
HETATM    2  N2  UNL     1      85.338   3.108  58.525  1.00  0.00    -0.308 N 
ATOM      3  H2  UNL     1      84.916   3.522  57.693  1.00  0.00     0.186 HD
HETATM    4  C3  UNL     1      86.643   3.045  58.771  1.00  0.00     0.122 A 
HETATM    5  C4  UNL     1      86.807   2.409  59.999  1.00  0.00     0.020 A 
HETATM    6  C11 UNL     1      85.534   2.125  60.422  1.00  0.00     0.074 A 
ENDROOT
BRANCH   1   7
HETATM    7  C2  UNL     1      83.229   2.471  59.553  1.00  0.00     0.185 C 
BRANCH   7   8
HETATM    8  C1  UNL     1      82.529   3.774  59.297  1.00  0.00     0.171 C 
BRANCH   8   9
HETATM    9  O1  UNL     1      83.161   4.576  58.357  1.00  0.00    -0.389 OA
ATOM     10  H1  UNL     1      83.738   4.100  57.771  1.00  0.00     0.210 HD
ENDBRANCH   8   9
BRANCH   8  11
HETATM   11  C16 UNL     1      82.262   4.547  60.537  1.00  0.00    -0.028 A 
HETATM   12  C17 UNL     1      81.226   5.452  60.536  1.00  0.00     0.013 A 
HETATM   13  C18 UNL     1      80.996   6.164  61.708  1.00  0.00     0.043 A 
HETATM   14  C19 UNL     1      81.758   5.995  62.846  1.00  0.00     0.116 A 
HETATM   15  F2  UNL     1      81.452   6.741  63.945  1.00  0.00    -0.206 F 
HETATM   16  C20 UNL     1      82.796   5.086  62.845  1.00  0.00     0.043 A 
HETATM   17  C21 UNL     1      83.030   4.376  61.686  1.00  0.00     0.013 A 
ENDBRANCH   8  11
ENDBRANCH   7   8
ENDBRANCH   1   7
BRANCH   6  18
HETATM   18  C12 UNL     1      85.240   1.445  61.716  1.00  0.00     0.000 A 
HETATM   19  C13 UNL     1      85.110   2.068  62.893  1.00  0.00     0.021 A 
HETATM   20  C14 UNL     1      84.836   1.316  63.996  1.00  0.00     0.050 A 
HETATM   21  S1  UNL     1      84.764  -0.266  63.364  1.00  0.00    -0.113 SA
HETATM   22  C15 UNL     1      85.082   0.077  61.724  1.00  0.00     0.063 A 
ENDBRANCH   6  18
BRANCH   5  23
HETATM   23  C5  UNL     1      88.088   2.142  60.631  1.00  0.00    -0.022 A 
HETATM   24  C6  UNL     1      88.947   1.187  60.145  1.00  0.00     0.015 A 
HETATM   25  C7  UNL     1      90.173   0.922  60.739  1.00  0.00     0.043 A 
HETATM   26  C8  UNL     1      90.563   1.626  61.851  1.00  0.00     0.116 A 
HETATM   27  F1  UNL     1      91.774   1.372  62.447  1.00  0.00    -0.206 F 
HETATM   28  C9  UNL     1      89.723   2.587  62.357  1.00  0.00     0.043 A 
HETATM   29  C10 UNL     1      88.489   2.844  61.748  1.00  0.00     0.015 A 
ENDBRANCH   5  23
TORSDOF 6
ENDMDL
