MODEL 1
REMARK VINA RESULT: -10.065792573      0.000      0.000
REMARK  5 active torsions:
REMARK  status: ('A' for Active; 'I' for Inactive)
REMARK    1  A    between atoms: C1_2  and  C2_4 
REMARK    2  A    between atoms: N2_13  and  C9_14 
REMARK    3  A    between atoms: C13_20  and  C14_21 
REMARK    4  A    between atoms: C14_21  and  C15_22 
REMARK    5  A    between atoms: C15_22  and  C16_23 
ROOT
HETATM    1  C9  UNL     1      86.892   1.869  62.213  1.00  0.00     0.115 A 
HETATM    2  C10 UNL     1      87.042   1.127  61.059  1.00  0.00     0.051 A 
HETATM    3  C11 UNL     1      86.217   1.261  59.961  1.00  0.00     0.037 A 
HETATM    4  C12 UNL     1      85.194   2.186  60.037  1.00  0.00     0.078 A 
HETATM    5  N3  UNL     1      84.223   2.576  59.188  1.00  0.00    -0.343 N 
ATOM      6  H3  UNL     1      84.081   2.202  58.250  1.00  0.00     0.167 HD
HETATM    7  C13 UNL     1      83.468   3.533  59.760  1.00  0.00     0.083 A 
HETATM    8  N4  UNL     1      83.966   3.746  60.975  1.00  0.00    -0.330 N 
ATOM      9  H4  UNL     1      83.600   4.420  61.647  1.00  0.00     0.168 HD
HETATM   10  C22 UNL     1      85.037   2.931  61.189  1.00  0.00     0.135 A 
HETATM   11  N5  UNL     1      85.873   2.758  62.228  1.00  0.00    -0.326 N 
ATOM     12  H5  UNL     1      85.733   3.324  63.065  1.00  0.00     0.169 HD
ENDROOT
BRANCH   1  13
HETATM   13  N2  UNL     1      87.742   1.730  63.339  1.00  0.00    -0.280 N 
HETATM   14  C2  UNL     1      89.035   2.072  63.411  1.00  0.00     0.156 A 
HETATM   15  N1  UNL     1      89.524   1.796  64.635  1.00  0.00    -0.339 N 
HETATM   16  C3  UNL     1      88.542   1.265  65.384  1.00  0.00     0.061 A 
ATOM     17  H1  UNL     1      90.482   1.962  64.944  1.00  0.00     0.167 HD
HETATM   18  C4  UNL     1      88.477   0.808  66.679  1.00  0.00     0.032 A 
HETATM   19  C8  UNL     1      87.424   1.232  64.543  1.00  0.00     0.069 A 
HETATM   20  C5  UNL     1      87.292   0.320  67.132  1.00  0.00     0.002 A 
HETATM   21  C6  UNL     1      86.152   0.261  66.347  1.00  0.00     0.002 A 
HETATM   22  C7  UNL     1      86.228   0.720  65.054  1.00  0.00     0.032 A 
BRANCH  14  23
HETATM   23  C1  UNL     1      89.794   2.669  62.279  1.00  0.00     0.420 C 
HETATM   24  F1  UNL     1      90.911   3.326  62.779  1.00  0.00    -0.206 F 
HETATM   25  F2  UNL     1      90.262   1.664  61.432  1.00  0.00    -0.206 F 
ENDBRANCH  14  23
ENDBRANCH   1  13
BRANCH   7  26
HETATM   26  C14 UNL     1      82.283   4.239  59.156  1.00  0.00     0.081 C 
BRANCH  26  27
HETATM   27  C15 UNL     1      81.169   3.209  58.944  1.00  0.00     0.046 C 
BRANCH  27  28
HETATM   28  C16 UNL     1      80.159   3.470  59.995  1.00  0.00    -0.058 A 
HETATM   29  C17 UNL     1      79.825   4.778  60.332  1.00  0.00     0.007 A 
HETATM   30  C18 UNL     1      78.888   5.026  61.307  1.00  0.00     0.001 A 
HETATM   31  C19 UNL     1      78.283   3.976  61.944  1.00  0.00     0.000 A 
HETATM   32  C20 UNL     1      78.594   2.672  61.630  1.00  0.00     0.001 A 
HETATM   33  C21 UNL     1      79.535   2.437  60.652  1.00  0.00     0.007 A 
ENDBRANCH  27  28
ENDBRANCH  26  27
ENDBRANCH   7  26
TORSDOF 5
ENDMDL
MODEL 2
REMARK VINA RESULT: -10.047871403      0.706      1.185
REMARK  5 active torsions:
REMARK  status: ('A' for Active; 'I' for Inactive)
REMARK    1  A    between atoms: C1_2  and  C2_4 
REMARK    2  A    between atoms: N2_13  and  C9_14 
REMARK    3  A    between atoms: C13_20  and  C14_21 
REMARK    4  A    between atoms: C14_21  and  C15_22 
REMARK    5  A    between atoms: C15_22  and  C16_23 
ROOT
HETATM    1  C9  UNL     1      87.418   1.866  62.034  1.00  0.00     0.115 A 
HETATM    2  C10 UNL     1      87.784   1.201  60.880  1.00  0.00     0.051 A 
HETATM    3  C11 UNL     1      87.090   1.310  59.693  1.00  0.00     0.037 A 
HETATM    4  C12 UNL     1      85.977   2.127  59.673  1.00  0.00     0.078 A 
HETATM    5  N3  UNL     1      85.083   2.464  58.722  1.00  0.00    -0.343 N 
ATOM      6  H3  UNL     1      85.096   2.126  57.761  1.00  0.00     0.167 HD
HETATM    7  C13 UNL     1      84.169   3.313  59.229  1.00  0.00     0.083 A 
HETATM    8  N4  UNL     1      84.490   3.512  60.505  1.00  0.00    -0.330 N 
ATOM      9  H4  UNL     1      83.977   4.113  61.151  1.00  0.00     0.168 HD
HETATM   10  C22 UNL     1      85.604   2.795  60.823  1.00  0.00     0.135 A 
HETATM   11  N5  UNL     1      86.320   2.651  61.952  1.00  0.00    -0.326 N 
ATOM     12  H5  UNL     1      86.021   3.157  62.786  1.00  0.00     0.169 HD
ENDROOT
BRANCH   1  13
HETATM   13  N2  UNL     1      88.133   1.753  63.252  1.00  0.00    -0.280 N 
HETATM   14  C2  UNL     1      89.422   2.058  63.453  1.00  0.00     0.156 A 
HETATM   15  N1  UNL     1      89.763   1.824  64.736  1.00  0.00    -0.339 N 
HETATM   16  C3  UNL     1      88.686   1.359  65.391  1.00  0.00     0.061 A 
ATOM     17  H1  UNL     1      90.686   1.975  65.142  1.00  0.00     0.167 HD
HETATM   18  C4  UNL     1      88.462   0.964  66.690  1.00  0.00     0.032 A 
HETATM   19  C8  UNL     1      87.668   1.321  64.433  1.00  0.00     0.069 A 
HETATM   20  C5  UNL     1      87.218   0.534  67.028  1.00  0.00     0.002 A 
HETATM   21  C6  UNL     1      86.170   0.474  66.123  1.00  0.00     0.002 A 
HETATM   22  C7  UNL     1      86.405   0.871  64.828  1.00  0.00     0.032 A 
BRANCH  14  23
HETATM   23  C1  UNL     1      90.322   2.579  62.389  1.00  0.00     0.420 C 
HETATM   24  F1  UNL     1      91.372   3.269  62.981  1.00  0.00    -0.206 F 
HETATM   25  F2  UNL     1      90.885   1.520  61.677  1.00  0.00    -0.206 F 
ENDBRANCH  14  23
ENDBRANCH   1  13
BRANCH   7  26
HETATM   26  C14 UNL     1      83.001   3.931  58.507  1.00  0.00     0.081 C 
BRANCH  26  27
HETATM   27  C15 UNL     1      81.802   2.987  58.640  1.00  0.00     0.046 C 
BRANCH  27  28
HETATM   28  C16 UNL     1      80.784   3.720  59.427  1.00  0.00    -0.058 A 
HETATM   29  C17 UNL     1      79.832   3.019  60.159  1.00  0.00     0.007 A 
HETATM   30  C18 UNL     1      78.883   3.694  60.891  1.00  0.00     0.001 A 
HETATM   31  C19 UNL     1      78.884   5.063  60.895  1.00  0.00     0.000 A 
HETATM   32  C20 UNL     1      79.815   5.782  60.180  1.00  0.00     0.001 A 
HETATM   33  C21 UNL     1      80.758   5.094  59.450  1.00  0.00     0.007 A 
ENDBRANCH  27  28
ENDBRANCH  26  27
ENDBRANCH   7  26
TORSDOF 5
ENDMDL
MODEL 3
REMARK VINA RESULT: -9.705447306      3.318      8.388
REMARK  5 active torsions:
REMARK  status: ('A' for Active; 'I' for Inactive)
REMARK    1  A    between atoms: C1_2  and  C2_4 
REMARK    2  A    between atoms: N2_13  and  C9_14 
REMARK    3  A    between atoms: C13_20  and  C14_21 
REMARK    4  A    between atoms: C14_21  and  C15_22 
REMARK    5  A    between atoms: C15_22  and  C16_23 
ROOT
HETATM    1  C9  UNL     1      81.901   2.911  60.234  1.00  0.00     0.115 A 
HETATM    2  C10 UNL     1      82.053   2.311  59.000  1.00  0.00     0.051 A 
HETATM    3  C11 UNL     1      83.242   1.755  58.573  1.00  0.00     0.037 A 
HETATM    4  C12 UNL     1      84.322   1.811  59.432  1.00  0.00     0.078 A 
HETATM    5  N3  UNL     1      85.599   1.387  59.355  1.00  0.00    -0.343 N 
ATOM      6  H3  UNL     1      86.008   0.903  58.555  1.00  0.00     0.167 HD
HETATM    7  C13 UNL     1      86.255   1.695  60.489  1.00  0.00     0.083 A 
HETATM    8  N4  UNL     1      85.388   2.316  61.283  1.00  0.00    -0.330 N 
ATOM      9  H4  UNL     1      85.599   2.669  62.217  1.00  0.00     0.168 HD
HETATM   10  C22 UNL     1      84.176   2.410  60.667  1.00  0.00     0.135 A 
HETATM   11  N5  UNL     1      82.993   2.934  61.031  1.00  0.00    -0.326 N 
ATOM     12  H5  UNL     1      82.916   3.370  61.950  1.00  0.00     0.169 HD
ENDROOT
BRANCH   1  13
HETATM   13  N2  UNL     1      80.678   3.480  60.672  1.00  0.00    -0.280 N 
HETATM   14  C2  UNL     1      80.059   4.545  60.145  1.00  0.00     0.156 A 
HETATM   15  N1  UNL     1      78.920   4.803  60.817  1.00  0.00    -0.339 N 
HETATM   16  C3  UNL     1      78.784   3.897  61.801  1.00  0.00     0.061 A 
ATOM     17  H1  UNL     1      78.269   5.561  60.614  1.00  0.00     0.167 HD
HETATM   18  C4  UNL     1      77.834   3.687  62.772  1.00  0.00     0.032 A 
HETATM   19  C8  UNL     1      79.908   3.072  61.690  1.00  0.00     0.069 A 
HETATM   20  C5  UNL     1      78.009   2.648  63.632  1.00  0.00     0.002 A 
HETATM   21  C6  UNL     1      79.101   1.797  63.572  1.00  0.00     0.002 A 
HETATM   22  C7  UNL     1      80.044   2.017  62.597  1.00  0.00     0.032 A 
BRANCH  14  23
HETATM   23  C1  UNL     1      80.582   5.312  58.982  1.00  0.00     0.420 C 
HETATM   24  F1  UNL     1      79.681   6.318  58.660  1.00  0.00    -0.206 F 
HETATM   25  F2  UNL     1      81.782   5.938  59.322  1.00  0.00    -0.206 F 
ENDBRANCH  14  23
ENDBRANCH   1  13
BRANCH   7  26
HETATM   26  C14 UNL     1      87.696   1.401  60.814  1.00  0.00     0.081 C 
BRANCH  26  27
HETATM   27  C15 UNL     1      88.282   2.619  61.535  1.00  0.00     0.046 C 
BRANCH  27  28
HETATM   28  C16 UNL     1      88.615   2.169  62.906  1.00  0.00    -0.058 A 
HETATM   29  C17 UNL     1      89.941   2.130  63.323  1.00  0.00     0.007 A 
HETATM   30  C18 UNL     1      90.257   1.714  64.595  1.00  0.00     0.001 A 
HETATM   31  C19 UNL     1      89.255   1.338  65.449  1.00  0.00     0.000 A 
HETATM   32  C20 UNL     1      87.934   1.367  65.062  1.00  0.00     0.001 A 
HETATM   33  C21 UNL     1      87.632   1.786  63.786  1.00  0.00     0.007 A 
ENDBRANCH  27  28
ENDBRANCH  26  27
ENDBRANCH   7  26
TORSDOF 5
ENDMDL
MODEL 4
REMARK VINA RESULT: -9.620815809      1.794      2.185
REMARK  5 active torsions:
REMARK  status: ('A' for Active; 'I' for Inactive)
REMARK    1  A    between atoms: C1_2  and  C2_4 
REMARK    2  A    between atoms: N2_13  and  C9_14 
REMARK    3  A    between atoms: C13_20  and  C14_21 
REMARK    4  A    between atoms: C14_21  and  C15_22 
REMARK    5  A    between atoms: C15_22  and  C16_23 
ROOT
HETATM    1  C9  UNL     1      86.639   1.747  62.713  1.00  0.00     0.115 A 
HETATM    2  C10 UNL     1      86.383   0.794  61.748  1.00  0.00     0.051 A 
HETATM    3  C11 UNL     1      85.382   0.922  60.806  1.00  0.00     0.037 A 
HETATM    4  C12 UNL     1      84.608   2.064  60.845  1.00  0.00     0.078 A 
HETATM    5  N3  UNL     1      83.574   2.516  60.108  1.00  0.00    -0.343 N 
ATOM      6  H3  UNL     1      83.159   2.023  59.317  1.00  0.00     0.167 HD
HETATM    7  C13 UNL     1      83.169   3.714  60.569  1.00  0.00     0.083 A 
HETATM    8  N4  UNL     1      83.952   4.018  61.601  1.00  0.00    -0.330 N 
ATOM      9  H4  UNL     1      83.883   4.871  62.156  1.00  0.00     0.168 HD
HETATM   10  C22 UNL     1      84.858   3.022  61.807  1.00  0.00     0.135 A 
HETATM   11  N5  UNL     1      85.848   2.843  62.700  1.00  0.00    -0.326 N 
ATOM     12  H5  UNL     1      86.009   3.569  63.399  1.00  0.00     0.169 HD
ENDROOT
BRANCH   1  13
HETATM   13  N2  UNL     1      87.668   1.614  63.679  1.00  0.00    -0.280 N 
HETATM   14  C2  UNL     1      88.951   1.974  63.535  1.00  0.00     0.156 A 
HETATM   15  N1  UNL     1      89.642   1.698  64.658  1.00  0.00    -0.339 N 
HETATM   16  C3  UNL     1      88.807   1.148  65.556  1.00  0.00     0.061 A 
ATOM     17  H1  UNL     1      90.636   1.876  64.802  1.00  0.00     0.167 HD
HETATM   18  C4  UNL     1      88.966   0.683  66.840  1.00  0.00     0.032 A 
HETATM   19  C8  UNL     1      87.564   1.104  64.915  1.00  0.00     0.069 A 
HETATM   20  C5  UNL     1      87.881   0.175  67.482  1.00  0.00     0.002 A 
HETATM   21  C6  UNL     1      86.627   0.105  66.899  1.00  0.00     0.002 A 
HETATM   22  C7  UNL     1      86.478   0.572  65.615  1.00  0.00     0.032 A 
BRANCH  14  23
HETATM   23  C1  UNL     1      89.500   2.589  62.297  1.00  0.00     0.420 C 
HETATM   24  F1  UNL     1      90.617   3.347  62.624  1.00  0.00    -0.206 F 
HETATM   25  F2  UNL     1      89.930   1.594  61.418  1.00  0.00    -0.206 F 
ENDBRANCH  14  23
ENDBRANCH   1  13
BRANCH   7  26
HETATM   26  C14 UNL     1      82.046   4.564  60.033  1.00  0.00     0.081 C 
BRANCH  26  27
HETATM   27  C15 UNL     1      80.855   4.440  60.986  1.00  0.00     0.046 C 
BRANCH  27  28
HETATM   28  C16 UNL     1      81.200   5.237  62.186  1.00  0.00    -0.058 A 
HETATM   29  C17 UNL     1      81.226   4.635  63.439  1.00  0.00     0.007 A 
HETATM   30  C18 UNL     1      81.546   5.370  64.557  1.00  0.00     0.001 A 
HETATM   31  C19 UNL     1      81.840   6.700  64.426  1.00  0.00     0.000 A 
HETATM   32  C20 UNL     1      81.823   7.322  63.198  1.00  0.00     0.001 A 
HETATM   33  C21 UNL     1      81.500   6.575  62.087  1.00  0.00     0.007 A 
ENDBRANCH  27  28
ENDBRANCH  26  27
ENDBRANCH   7  26
TORSDOF 5
ENDMDL
MODEL 5
REMARK VINA RESULT: -9.437780713      2.346      8.006
REMARK  5 active torsions:
REMARK  status: ('A' for Active; 'I' for Inactive)
REMARK    1  A    between atoms: C1_2  and  C2_4 
REMARK    2  A    between atoms: N2_13  and  C9_14 
REMARK    3  A    between atoms: C13_20  and  C14_21 
REMARK    4  A    between atoms: C14_21  and  C15_22 
REMARK    5  A    between atoms: C15_22  and  C16_23 
ROOT
HETATM    1  C9  UNL     1      85.370   2.197  60.856  1.00  0.00     0.115 A 
HETATM    2  C10 UNL     1      86.602   2.761  60.590  1.00  0.00     0.051 A 
HETATM    3  C11 UNL     1      87.655   2.731  61.482  1.00  0.00     0.037 A 
HETATM    4  C12 UNL     1      87.451   2.102  62.694  1.00  0.00     0.078 A 
HETATM    5  N3  UNL     1      88.226   1.885  63.775  1.00  0.00    -0.343 N 
ATOM      6  H3  UNL     1      89.195   2.189  63.871  1.00  0.00     0.167 HD
HETATM    7  C13 UNL     1      87.534   1.208  64.710  1.00  0.00     0.083 A 
HETATM    8  N4  UNL     1      86.317   0.997  64.215  1.00  0.00    -0.330 N 
ATOM      9  H4  UNL     1      85.566   0.504  64.698  1.00  0.00     0.168 HD
HETATM   10  C22 UNL     1      86.222   1.535  62.967  1.00  0.00     0.135 A 
HETATM   11  N5  UNL     1      85.232   1.595  62.059  1.00  0.00    -0.326 N 
ATOM     12  H5  UNL     1      84.335   1.167  62.289  1.00  0.00     0.169 HD
ENDROOT
BRANCH   1  13
HETATM   13  N2  UNL     1      84.290   2.229  59.939  1.00  0.00    -0.280 N 
HETATM   14  C2  UNL     1      84.088   1.390  58.913  1.00  0.00     0.156 A 
HETATM   15  N1  UNL     1      82.960   1.722  58.255  1.00  0.00    -0.339 N 
HETATM   16  C3  UNL     1      82.409   2.793  58.852  1.00  0.00     0.061 A 
ATOM     17  H1  UNL     1      82.586   1.240  57.437  1.00  0.00     0.167 HD
HETATM   18  C4  UNL     1      81.279   3.538  58.610  1.00  0.00     0.032 A 
HETATM   19  C8  UNL     1      83.268   3.096  59.914  1.00  0.00     0.069 A 
HETATM   20  C5  UNL     1      81.009   4.586  59.432  1.00  0.00     0.002 A 
HETATM   21  C6  UNL     1      81.822   4.935  60.498  1.00  0.00     0.002 A 
HETATM   22  C7  UNL     1      82.949   4.184  60.731  1.00  0.00     0.032 A 
BRANCH  14  23
HETATM   23  C1  UNL     1      84.999   0.264  58.577  1.00  0.00     0.420 C 
HETATM   24  F1  UNL     1      84.462  -0.454  57.516  1.00  0.00    -0.206 F 
HETATM   25  F2  UNL     1      86.232   0.756  58.148  1.00  0.00    -0.206 F 
ENDBRANCH  14  23
ENDBRANCH   1  13
BRANCH   7  26
HETATM   26  C14 UNL     1      88.025   0.764  66.063  1.00  0.00     0.081 C 
BRANCH  26  27
HETATM   27  C15 UNL     1      86.847   0.816  67.040  1.00  0.00     0.046 C 
BRANCH  27  28
HETATM   28  C16 UNL     1      86.405  -0.584  67.232  1.00  0.00    -0.058 A 
HETATM   29  C17 UNL     1      85.276  -1.055  66.572  1.00  0.00     0.007 A 
HETATM   30  C18 UNL     1      84.860  -2.354  66.745  1.00  0.00     0.001 A 
HETATM   31  C19 UNL     1      85.568  -3.182  67.574  1.00  0.00     0.000 A 
HETATM   32  C20 UNL     1      86.690  -2.743  68.240  1.00  0.00     0.001 A 
HETATM   33  C21 UNL     1      87.095  -1.439  68.058  1.00  0.00     0.007 A 
ENDBRANCH  27  28
ENDBRANCH  26  27
ENDBRANCH   7  26
TORSDOF 5
ENDMDL
