MODEL 1
REMARK VINA RESULT: -8.487492071      0.000      0.000
REMARK  6 active torsions:
REMARK  status: ('A' for Active; 'I' for Inactive)
REMARK    1  A    between atoms: C2_2  and  C3_3 
REMARK    2  A    between atoms: C6_6  and  C7_7 
REMARK    3  A    between atoms: C7_7  and  C8_8 
REMARK    4  A    between atoms: C8_8  and  N1_9 
REMARK    5  A    between atoms: N1_9  and  C9_11 
REMARK    6  A    between atoms: C13_20  and  C14_21 
ROOT
HETATM    1  C9  UNL     1      88.794   2.427  62.243  1.00  0.00     0.116 A 
HETATM    2  N2  UNL     1      90.078   2.670  61.928  1.00  0.00    -0.338 N 
ATOM      3  H2  UNL     1      90.264   3.023  60.990  1.00  0.00     0.168 HD
HETATM    4  C10 UNL     1      91.128   2.492  62.726  1.00  0.00     0.182 A 
HETATM    5  N3  UNL     1      90.873   2.029  63.958  1.00  0.00    -0.346 N 
ATOM      6  H3  UNL     1      91.644   1.876  64.608  1.00  0.00     0.167 HD
HETATM    7  C11 UNL     1      89.588   1.757  64.356  1.00  0.00     0.089 A 
HETATM    8  S1  UNL     1      88.918   1.153  65.805  1.00  0.00    -0.082 SA
HETATM    9  C12 UNL     1      87.286   1.137  65.368  1.00  0.00     0.065 A 
HETATM   10  C13 UNL     1      87.291   1.615  64.071  1.00  0.00    -0.003 A 
HETATM   11  C20 UNL     1      88.502   1.936  63.547  1.00  0.00     0.053 A 
ENDROOT
BRANCH   1  12
HETATM   12  N1  UNL     1      87.854   2.609  61.388  1.00  0.00    -0.375 N 
ATOM     13  H1  UNL     1      87.127   3.293  61.599  1.00  0.00     0.161 HD
BRANCH  12  14
HETATM   14  C8  UNL     1      87.782   1.891  60.149  1.00  0.00     0.128 C 
BRANCH  14  15
HETATM   15  C7  UNL     1      87.152   2.782  59.100  1.00  0.00     0.084 C 
BRANCH  15  16
HETATM   16  C6  UNL     1      85.721   2.402  58.919  1.00  0.00     0.054 A 
HETATM   17  C5  UNL     1      85.220   1.108  58.884  1.00  0.00     0.035 A 
HETATM   18  C4  UNL     1      83.859   1.193  58.701  1.00  0.00     0.035 A 
HETATM   19  C3  UNL     1      83.571   2.535  58.629  1.00  0.00     0.053 A 
HETATM   20  O1  UNL     1      84.683   3.183  58.761  1.00  0.00    -0.319 OA
BRANCH  19  21
HETATM   21  C2  UNL     1      82.205   3.143  58.432  1.00  0.00     0.060 C 
HETATM   22  C1  UNL     1      82.195   4.422  59.265  1.00  0.00     0.012 C 
ENDBRANCH  19  21
ENDBRANCH  15  16
ENDBRANCH  14  15
ENDBRANCH  12  14
ENDBRANCH   1  12
BRANCH  10  23
HETATM   23  C14 UNL     1      85.970   1.791  63.383  1.00  0.00    -0.024 A 
HETATM   24  C15 UNL     1      85.222   0.697  63.013  1.00  0.00     0.015 A 
HETATM   25  C16 UNL     1      83.974   0.804  62.433  1.00  0.00     0.043 A 
HETATM   26  C17 UNL     1      83.490   2.078  62.231  1.00  0.00     0.116 A 
HETATM   27  F1  UNL     1      82.274   2.264  61.666  1.00  0.00    -0.206 F 
HETATM   28  C18 UNL     1      84.194   3.211  62.581  1.00  0.00     0.043 A 
HETATM   29  C19 UNL     1      85.433   3.033  63.157  1.00  0.00     0.015 A 
ENDBRANCH  10  23
TORSDOF 6
ENDMDL
MODEL 2
REMARK VINA RESULT: -7.944695186      2.927      6.152
REMARK  6 active torsions:
REMARK  status: ('A' for Active; 'I' for Inactive)
REMARK    1  A    between atoms: C2_2  and  C3_3 
REMARK    2  A    between atoms: C6_6  and  C7_7 
REMARK    3  A    between atoms: C7_7  and  C8_8 
REMARK    4  A    between atoms: C8_8  and  N1_9 
REMARK    5  A    between atoms: N1_9  and  C9_11 
REMARK    6  A    between atoms: C13_20  and  C14_21 
ROOT
HETATM    1  C9  UNL     1      85.476   2.550  61.200  1.00  0.00     0.116 A 
HETATM    2  N2  UNL     1      86.691   2.175  60.764  1.00  0.00    -0.338 N 
ATOM      3  H2  UNL     1      87.326   1.775  61.454  1.00  0.00     0.168 HD
HETATM    4  C10 UNL     1      87.142   2.277  59.516  1.00  0.00     0.182 A 
HETATM    5  N3  UNL     1      86.300   2.803  58.616  1.00  0.00    -0.346 N 
ATOM      6  H3  UNL     1      86.598   2.902  57.645  1.00  0.00     0.167 HD
HETATM    7  C11 UNL     1      85.042   3.209  58.982  1.00  0.00     0.089 A 
HETATM    8  S1  UNL     1      83.749   3.922  58.124  1.00  0.00    -0.082 SA
HETATM    9  C12 UNL     1      82.636   4.079  59.385  1.00  0.00     0.065 A 
HETATM   10  C13 UNL     1      83.304   3.562  60.478  1.00  0.00    -0.003 A 
HETATM   11  C20 UNL     1      84.566   3.109  60.258  1.00  0.00     0.053 A 
ENDROOT
BRANCH   1  12
HETATM   12  N1  UNL     1      85.147   2.432  62.435  1.00  0.00    -0.375 N 
ATOM     13  H1  UNL     1      84.810   3.256  62.932  1.00  0.00     0.161 HD
BRANCH  12  14
HETATM   14  C8  UNL     1      85.233   1.190  63.146  1.00  0.00     0.128 C 
BRANCH  14  15
HETATM   15  C7  UNL     1      85.828   1.446  64.514  1.00  0.00     0.084 C 
BRANCH  15  16
HETATM   16  C6  UNL     1      87.306   1.603  64.392  1.00  0.00     0.054 A 
HETATM   17  C5  UNL     1      88.240   1.311  65.375  1.00  0.00     0.035 A 
HETATM   18  C4  UNL     1      89.486   1.595  64.864  1.00  0.00     0.035 A 
HETATM   19  C3  UNL     1      89.274   2.052  63.585  1.00  0.00     0.053 A 
HETATM   20  O1  UNL     1      87.999   2.035  63.369  1.00  0.00    -0.319 OA
BRANCH  19  21
HETATM   21  C2  UNL     1      90.336   2.493  62.610  1.00  0.00     0.060 C 
HETATM   22  C1  UNL     1      91.670   2.131  63.257  1.00  0.00     0.012 C 
ENDBRANCH  19  21
ENDBRANCH  15  16
ENDBRANCH  14  15
ENDBRANCH  12  14
ENDBRANCH   1  12
BRANCH  10  23
HETATM   23  C14 UNL     1      82.568   3.491  61.782  1.00  0.00    -0.024 A 
HETATM   24  C15 UNL     1      82.569   4.562  62.646  1.00  0.00     0.015 A 
HETATM   25  C16 UNL     1      81.859   4.571  63.829  1.00  0.00     0.043 A 
HETATM   26  C17 UNL     1      81.129   3.440  64.125  1.00  0.00     0.116 A 
HETATM   27  F1  UNL     1      80.408   3.373  65.268  1.00  0.00    -0.206 F 
HETATM   28  C18 UNL     1      81.091   2.337  63.298  1.00  0.00     0.043 A 
HETATM   29  C19 UNL     1      81.822   2.393  62.132  1.00  0.00     0.015 A 
ENDBRANCH  10  23
TORSDOF 6
ENDMDL
MODEL 3
REMARK VINA RESULT: -7.937202704      2.231      3.722
REMARK  6 active torsions:
REMARK  status: ('A' for Active; 'I' for Inactive)
REMARK    1  A    between atoms: C2_2  and  C3_3 
REMARK    2  A    between atoms: C6_6  and  C7_7 
REMARK    3  A    between atoms: C7_7  and  C8_8 
REMARK    4  A    between atoms: C8_8  and  N1_9 
REMARK    5  A    between atoms: N1_9  and  C9_11 
REMARK    6  A    between atoms: C13_20  and  C14_21 
ROOT
HETATM    1  C9  UNL     1      86.995   1.644  64.332  1.00  0.00     0.116 A 
HETATM    2  N2  UNL     1      86.863   1.332  65.633  1.00  0.00    -0.338 N 
ATOM      3  H2  UNL     1      85.914   1.204  65.983  1.00  0.00     0.168 HD
HETATM    4  C10 UNL     1      87.855   1.174  66.506  1.00  0.00     0.182 A 
HETATM    5  N3  UNL     1      89.099   1.343  66.036  1.00  0.00    -0.346 N 
ATOM      6  H3  UNL     1      89.894   1.233  66.665  1.00  0.00     0.167 HD
HETATM    7  C11 UNL     1      89.317   1.663  64.719  1.00  0.00     0.089 A 
HETATM    8  S1  UNL     1      90.729   1.963  63.809  1.00  0.00    -0.082 SA
HETATM    9  C12 UNL     1      90.026   2.287  62.308  1.00  0.00     0.065 A 
HETATM   10  C13 UNL     1      88.671   2.152  62.546  1.00  0.00    -0.003 A 
HETATM   11  C20 UNL     1      88.308   1.826  63.813  1.00  0.00     0.053 A 
ENDROOT
BRANCH   1  12
HETATM   12  N1  UNL     1      85.967   1.799  63.578  1.00  0.00    -0.375 N 
ATOM     13  H1  UNL     1      85.985   2.536  62.873  1.00  0.00     0.161 HD
BRANCH  12  14
HETATM   14  C8  UNL     1      84.796   0.979  63.685  1.00  0.00     0.128 C 
BRANCH  14  15
HETATM   15  C7  UNL     1      84.087   0.958  62.348  1.00  0.00     0.084 C 
BRANCH  15  16
HETATM   16  C6  UNL     1      83.449   2.284  62.102  1.00  0.00     0.054 A 
HETATM   17  C5  UNL     1      82.752   2.654  60.961  1.00  0.00     0.035 A 
HETATM   18  C4  UNL     1      82.328   3.952  61.133  1.00  0.00     0.035 A 
HETATM   19  C3  UNL     1      82.781   4.334  62.374  1.00  0.00     0.053 A 
HETATM   20  O1  UNL     1      83.420   3.333  62.885  1.00  0.00    -0.319 OA
BRANCH  19  21
HETATM   21  C2  UNL     1      82.570   5.679  63.022  1.00  0.00     0.060 C 
HETATM   22  C1  UNL     1      81.450   6.351  62.231  1.00  0.00     0.012 C 
ENDBRANCH  19  21
ENDBRANCH  15  16
ENDBRANCH  14  15
ENDBRANCH  12  14
ENDBRANCH   1  12
BRANCH  10  23
HETATM   23  C14 UNL     1      87.735   2.317  61.386  1.00  0.00    -0.024 A 
HETATM   24  C15 UNL     1      87.417   1.245  60.585  1.00  0.00     0.015 A 
HETATM   25  C16 UNL     1      86.516   1.330  59.543  1.00  0.00     0.043 A 
HETATM   26  C17 UNL     1      85.928   2.557  59.327  1.00  0.00     0.116 A 
HETATM   27  F1  UNL     1      85.035   2.719  58.324  1.00  0.00    -0.206 F 
HETATM   28  C18 UNL     1      86.208   3.666  60.097  1.00  0.00     0.043 A 
HETATM   29  C19 UNL     1      87.117   3.514  61.121  1.00  0.00     0.015 A 
ENDBRANCH  10  23
TORSDOF 6
ENDMDL
MODEL 4
REMARK VINA RESULT: -7.919123927      1.956      3.578
REMARK  6 active torsions:
REMARK  status: ('A' for Active; 'I' for Inactive)
REMARK    1  A    between atoms: C2_2  and  C3_3 
REMARK    2  A    between atoms: C6_6  and  C7_7 
REMARK    3  A    between atoms: C7_7  and  C8_8 
REMARK    4  A    between atoms: C8_8  and  N1_9 
REMARK    5  A    between atoms: N1_9  and  C9_11 
REMARK    6  A    between atoms: C13_20  and  C14_21 
ROOT
HETATM    1  C9  UNL     1      86.985   1.481  64.228  1.00  0.00     0.116 A 
HETATM    2  N2  UNL     1      86.892   1.104  65.514  1.00  0.00    -0.338 N 
ATOM      3  H2  UNL     1      85.958   0.894  65.868  1.00  0.00     0.168 HD
HETATM    4  C10 UNL     1      87.903   0.978  66.370  1.00  0.00     0.182 A 
HETATM    5  N3  UNL     1      89.127   1.254  65.896  1.00  0.00    -0.346 N 
ATOM      6  H3  UNL     1      89.935   1.172  66.512  1.00  0.00     0.167 HD
HETATM    7  C11 UNL     1      89.305   1.646  64.593  1.00  0.00     0.089 A 
HETATM    8  S1  UNL     1      90.681   2.084  63.684  1.00  0.00    -0.082 SA
HETATM    9  C12 UNL     1      89.938   2.424  62.205  1.00  0.00     0.065 A 
HETATM   10  C13 UNL     1      88.599   2.184  62.450  1.00  0.00    -0.003 A 
HETATM   11  C20 UNL     1      88.275   1.778  63.705  1.00  0.00     0.053 A 
ENDROOT
BRANCH   1  12
HETATM   12  N1  UNL     1      85.939   1.596  63.491  1.00  0.00    -0.375 N 
ATOM     13  H1  UNL     1      86.060   1.813  62.502  1.00  0.00     0.161 HD
BRANCH  12  14
HETATM   14  C8  UNL     1      84.609   1.433  64.001  1.00  0.00     0.128 C 
BRANCH  14  15
HETATM   15  C7  UNL     1      83.672   1.148  62.847  1.00  0.00     0.084 C 
BRANCH  15  16
HETATM   16  C6  UNL     1      83.246   2.434  62.223  1.00  0.00     0.054 A 
HETATM   17  C5  UNL     1      83.268   3.681  62.831  1.00  0.00     0.035 A 
HETATM   18  C4  UNL     1      82.797   4.598  61.920  1.00  0.00     0.035 A 
HETATM   19  C3  UNL     1      82.501   3.883  60.784  1.00  0.00     0.053 A 
HETATM   20  O1  UNL     1      82.780   2.641  61.018  1.00  0.00    -0.319 OA
BRANCH  19  21
HETATM   21  C2  UNL     1      81.950   4.444  59.498  1.00  0.00     0.060 C 
HETATM   22  C1  UNL     1      81.585   3.236  58.640  1.00  0.00     0.012 C 
ENDBRANCH  19  21
ENDBRANCH  15  16
ENDBRANCH  14  15
ENDBRANCH  12  14
ENDBRANCH   1  12
BRANCH  10  23
HETATM   23  C14 UNL     1      87.639   2.333  61.308  1.00  0.00    -0.024 A 
HETATM   24  C15 UNL     1      87.336   1.260  60.502  1.00  0.00     0.015 A 
HETATM   25  C16 UNL     1      86.415   1.329  59.477  1.00  0.00     0.043 A 
HETATM   26  C17 UNL     1      85.791   2.542  59.282  1.00  0.00     0.116 A 
HETATM   27  F1  UNL     1      84.876   2.688  58.296  1.00  0.00    -0.206 F 
HETATM   28  C18 UNL     1      86.055   3.652  60.057  1.00  0.00     0.043 A 
HETATM   29  C19 UNL     1      86.985   3.515  61.064  1.00  0.00     0.015 A 
ENDBRANCH  10  23
TORSDOF 6
ENDMDL
MODEL 5
REMARK VINA RESULT: -7.910633299      4.131      7.030
REMARK  6 active torsions:
REMARK  status: ('A' for Active; 'I' for Inactive)
REMARK    1  A    between atoms: C2_2  and  C3_3 
REMARK    2  A    between atoms: C6_6  and  C7_7 
REMARK    3  A    between atoms: C7_7  and  C8_8 
REMARK    4  A    between atoms: C8_8  and  N1_9 
REMARK    5  A    between atoms: N1_9  and  C9_11 
REMARK    6  A    between atoms: C13_20  and  C14_21 
ROOT
HETATM    1  C9  UNL     1      87.000   1.947  63.346  1.00  0.00     0.116 A 
HETATM    2  N2  UNL     1      86.351   2.104  62.179  1.00  0.00    -0.338 N 
ATOM      3  H2  UNL     1      85.332   2.064  62.208  1.00  0.00     0.168 HD
HETATM    4  C10 UNL     1      86.913   2.305  60.990  1.00  0.00     0.182 A 
HETATM    5  N3  UNL     1      88.252   2.357  60.962  1.00  0.00    -0.346 N 
ATOM      6  H3  UNL     1      88.732   2.510  60.075  1.00  0.00     0.167 HD
HETATM    7  C11 UNL     1      88.987   2.207  62.111  1.00  0.00     0.089 A 
HETATM    8  S1  UNL     1      90.664   2.197  62.432  1.00  0.00    -0.082 SA
HETATM    9  C12 UNL     1      90.623   1.936  64.100  1.00  0.00     0.065 A 
HETATM   10  C13 UNL     1      89.273   1.859  64.386  1.00  0.00    -0.003 A 
HETATM   11  C20 UNL     1      88.422   2.001  63.337  1.00  0.00     0.053 A 
ENDROOT
BRANCH   1  12
HETATM   12  N1  UNL     1      86.361   1.732  64.439  1.00  0.00    -0.375 N 
ATOM     13  H1  UNL     1      86.445   2.411  65.196  1.00  0.00     0.161 HD
BRANCH  12  14
HETATM   14  C8  UNL     1      85.534   0.579  64.640  1.00  0.00     0.128 C 
BRANCH  14  15
HETATM   15  C7  UNL     1      85.200   0.463  66.111  1.00  0.00     0.084 C 
BRANCH  15  16
HETATM   16  C6  UNL     1      85.217  -0.973  66.513  1.00  0.00     0.054 A 
HETATM   17  C5  UNL     1      84.486  -1.994  65.922  1.00  0.00     0.035 A 
HETATM   18  C4  UNL     1      84.785  -3.161  66.586  1.00  0.00     0.035 A 
HETATM   19  C3  UNL     1      85.689  -2.817  67.564  1.00  0.00     0.053 A 
HETATM   20  O1  UNL     1      85.900  -1.544  67.474  1.00  0.00    -0.319 OA
BRANCH  19  21
HETATM   21  C2  UNL     1      86.320  -3.755  68.561  1.00  0.00     0.060 C 
HETATM   22  C1  UNL     1      85.746  -5.135  68.255  1.00  0.00     0.012 C 
ENDBRANCH  19  21
ENDBRANCH  15  16
ENDBRANCH  14  15
ENDBRANCH  12  14
ENDBRANCH   1  12
BRANCH  10  23
HETATM   23  C14 UNL     1      88.868   1.688  65.820  1.00  0.00    -0.024 A 
HETATM   24  C15 UNL     1      88.920   0.450  66.419  1.00  0.00     0.015 A 
HETATM   25  C16 UNL     1      88.617   0.249  67.750  1.00  0.00     0.043 A 
HETATM   26  C17 UNL     1      88.249   1.359  68.479  1.00  0.00     0.116 A 
HETATM   27  F1  UNL     1      87.936   1.242  69.790  1.00  0.00    -0.206 F 
HETATM   28  C18 UNL     1      88.180   2.624  67.932  1.00  0.00     0.043 A 
HETATM   29  C19 UNL     1      88.496   2.755  66.598  1.00  0.00     0.015 A 
ENDBRANCH  10  23
TORSDOF 6
ENDMDL
