MODEL 1
REMARK VINA RESULT: -8.484960987      0.000      0.000
REMARK  8 active torsions:
REMARK  status: ('A' for Active; 'I' for Inactive)
REMARK    1  A    between atoms: C2_2  and  C3_3 
REMARK    2  A    between atoms: C3_3  and  C4_4 
REMARK    3  A    between atoms: C3_3  and  N1_6 
REMARK    4  A    between atoms: N5_19  and  C11_20 
REMARK    5  A    between atoms: C14_24  and  C15_25 
REMARK    6  A    between atoms: C15_25  and  C17_27 
REMARK    7  A    between atoms: C17_27  and  C18_28 
REMARK    8  A    between atoms: C18_28  and  C19_29 
ROOT
HETATM    1  N1  UNL     1       7.451   4.181  42.075  1.00  0.00    -0.370 N 
ATOM      2  H1  UNL     1       6.690   4.718  42.491  1.00  0.00     0.161 HD
HETATM    3  C6  UNL     1       7.058   3.036  42.039  1.00  0.00     0.133 A 
HETATM    4  N2  UNL     1       7.732   1.972  41.568  1.00  0.00    -0.337 N 
ATOM      5  H2  UNL     1       8.672   2.118  41.198  1.00  0.00     0.168 HD
HETATM    6  C7  UNL     1       7.222   0.714  41.560  1.00  0.00     0.183 A 
HETATM    7  N3  UNL     1       5.993   0.447  42.029  1.00  0.00    -0.336 N 
ATOM      8  H3  UNL     1       5.627  -0.505  42.015  1.00  0.00     0.168 HD
HETATM    9  C8  UNL     1       5.253   1.458  42.519  1.00  0.00     0.141 A 
HETATM   10  C9  UNL     1       5.765   2.728  42.528  1.00  0.00     0.122 A 
HETATM   11  N4  UNL     1       4.844   3.516  43.053  1.00  0.00    -0.346 N 
ATOM     12  H4  UNL     1       4.922   4.522  43.198  1.00  0.00     0.167 HD
HETATM   13  C10 UNL     1       3.778   2.741  43.365  1.00  0.00     0.185 A 
HETATM   14  N5  UNL     1       3.982   1.460  43.053  1.00  0.00    -0.319 N 
ENDROOT
BRANCH  14  15
HETATM   15  C11 UNL     1       3.212   0.281  43.195  1.00  0.00     0.131 C 
HETATM   16  C12 UNL     1       2.981  -0.240  44.612  1.00  0.00     0.194 C 
HETATM   17  F1  UNL     1       3.590   0.412  45.624  1.00  0.00    -0.247 F 
HETATM   18  C13 UNL     1       1.516   0.175  44.379  1.00  0.00     0.046 C 
HETATM   19  C14 UNL     1       1.760   0.247  42.914  1.00  0.00     0.018 C 
BRANCH  19  20
HETATM   20  C15 UNL     1       1.062   1.133  42.010  1.00  0.00    -0.012 C 
HETATM   21  C16 UNL     1       1.205   0.586  40.534  1.00  0.00     0.010 C 
BRANCH  20  22
HETATM   22  C17 UNL     1      -0.330   1.549  42.094  1.00  0.00     0.013 C 
BRANCH  22  23
HETATM   23  C18 UNL     1      -1.423   0.603  41.758  1.00  0.00     0.117 C 
BRANCH  23  24
HETATM   24  C19 UNL     1      -2.566   1.453  41.179  1.00  0.00     0.387 C 
HETATM   25  F2  UNL     1      -2.320   2.749  41.532  1.00  0.00    -0.171 F 
HETATM   26  F3  UNL     1      -2.666   1.293  39.815  1.00  0.00    -0.171 F 
HETATM   27  F4  UNL     1      -3.763   1.068  41.738  1.00  0.00    -0.171 F 
ENDBRANCH  23  24
ENDBRANCH  22  23
ENDBRANCH  20  22
ENDBRANCH  19  20
ENDBRANCH  14  15
BRANCH   1  28
HETATM   28  C3  UNL     1       8.451   5.097  41.817  1.00  0.00     0.082 C 
BRANCH  28  29
HETATM   29  C2  UNL     1       9.433   5.240  42.920  1.00  0.00     0.021 C 
HETATM   30  C1  UNL     1      10.462   4.155  43.065  1.00  0.00     0.007 C 
ENDBRANCH  28  29
BRANCH  28  31
HETATM   31  C4  UNL     1       7.806   6.401  41.401  1.00  0.00     0.021 C 
HETATM   32  C5  UNL     1       7.518   6.596  39.968  1.00  0.00     0.007 C 
ENDBRANCH  28  31
ENDBRANCH   1  28
TORSDOF 8
ENDMDL
MODEL 2
REMARK VINA RESULT: -8.340864651      4.069      8.806
REMARK  8 active torsions:
REMARK  status: ('A' for Active; 'I' for Inactive)
REMARK    1  A    between atoms: C2_2  and  C3_3 
REMARK    2  A    between atoms: C3_3  and  C4_4 
REMARK    3  A    between atoms: C3_3  and  N1_6 
REMARK    4  A    between atoms: N5_19  and  C11_20 
REMARK    5  A    between atoms: C14_24  and  C15_25 
REMARK    6  A    between atoms: C15_25  and  C17_27 
REMARK    7  A    between atoms: C17_27  and  C18_28 
REMARK    8  A    between atoms: C18_28  and  C19_29 
ROOT
HETATM    1  N1  UNL     1       2.153   1.230  42.333  1.00  0.00    -0.370 N 
ATOM      2  H1  UNL     1       2.877   1.208  41.615  1.00  0.00     0.161 HD
HETATM    3  C6  UNL     1       2.699   1.646  43.331  1.00  0.00     0.133 A 
HETATM    4  N2  UNL     1       2.128   1.840  44.533  1.00  0.00    -0.337 N 
ATOM      5  H2  UNL     1       1.137   1.624  44.641  1.00  0.00     0.168 HD
HETATM    6  C7  UNL     1       2.808   2.311  45.610  1.00  0.00     0.183 A 
HETATM    7  N3  UNL     1       4.113   2.616  45.543  1.00  0.00    -0.336 N 
ATOM      8  H3  UNL     1       4.607   2.969  46.363  1.00  0.00     0.168 HD
HETATM    9  C8  UNL     1       4.758   2.449  44.374  1.00  0.00     0.141 A 
HETATM   10  C9  UNL     1       4.075   1.976  43.287  1.00  0.00     0.122 A 
HETATM   11  N4  UNL     1       4.934   1.909  42.285  1.00  0.00    -0.346 N 
ATOM     12  H4  UNL     1       4.732   1.593  41.337  1.00  0.00     0.167 HD
HETATM   13  C10 UNL     1       6.132   2.336  42.750  1.00  0.00     0.185 A 
HETATM   14  N5  UNL     1       6.074   2.683  44.037  1.00  0.00    -0.319 N 
ENDROOT
BRANCH  14  15
HETATM   15  C11 UNL     1       7.029   3.155  44.969  1.00  0.00     0.131 C 
HETATM   16  C12 UNL     1       7.450   2.204  46.086  1.00  0.00     0.194 C 
HETATM   17  F1  UNL     1       6.828   1.009  46.157  1.00  0.00    -0.247 F 
HETATM   18  C13 UNL     1       8.808   2.171  45.361  1.00  0.00     0.046 C 
HETATM   19  C14 UNL     1       8.442   3.395  44.600  1.00  0.00     0.018 C 
BRANCH  19  20
HETATM   20  C15 UNL     1       8.919   3.706  43.272  1.00  0.00    -0.012 C 
HETATM   21  C16 UNL     1       9.598   5.133  43.286  1.00  0.00     0.010 C 
BRANCH  20  22
HETATM   22  C17 UNL     1       9.814   2.903  42.453  1.00  0.00     0.013 C 
BRANCH  22  23
HETATM   23  C18 UNL     1      11.286   3.064  42.561  1.00  0.00     0.117 C 
BRANCH  23  24
HETATM   24  C19 UNL     1      11.821   1.744  43.138  1.00  0.00     0.387 C 
HETATM   25  F2  UNL     1      13.068   1.554  42.616  1.00  0.00    -0.171 F 
HETATM   26  F3  UNL     1      11.830   1.768  44.515  1.00  0.00    -0.171 F 
HETATM   27  F4  UNL     1      11.016   0.700  42.740  1.00  0.00    -0.171 F 
ENDBRANCH  23  24
ENDBRANCH  22  23
ENDBRANCH  20  22
ENDBRANCH  19  20
ENDBRANCH  14  15
BRANCH   1  28
HETATM   28  C3  UNL     1       1.007   0.773  41.714  1.00  0.00     0.082 C 
BRANCH  28  29
HETATM   29  C2  UNL     1       1.134   0.636  40.242  1.00  0.00     0.021 C 
HETATM   30  C1  UNL     1       2.353  -0.071  39.724  1.00  0.00     0.007 C 
ENDBRANCH  28  29
BRANCH  28  31
HETATM   31  C4  UNL     1      -0.151   1.645  42.149  1.00  0.00     0.021 C 
HETATM   32  C5  UNL     1      -1.472   1.375  41.554  1.00  0.00     0.007 C 
ENDBRANCH  28  31
ENDBRANCH   1  28
TORSDOF 8
ENDMDL
MODEL 3
REMARK VINA RESULT: -8.188364860      2.622      3.606
REMARK  8 active torsions:
REMARK  status: ('A' for Active; 'I' for Inactive)
REMARK    1  A    between atoms: C2_2  and  C3_3 
REMARK    2  A    between atoms: C3_3  and  C4_4 
REMARK    3  A    between atoms: C3_3  and  N1_6 
REMARK    4  A    between atoms: N5_19  and  C11_20 
REMARK    5  A    between atoms: C14_24  and  C15_25 
REMARK    6  A    between atoms: C15_25  and  C17_27 
REMARK    7  A    between atoms: C17_27  and  C18_28 
REMARK    8  A    between atoms: C18_28  and  C19_29 
ROOT
HETATM    1  N1  UNL     1       8.469   3.363  44.111  1.00  0.00    -0.370 N 
ATOM      2  H1  UNL     1       8.127   3.730  43.222  1.00  0.00     0.161 HD
HETATM    3  C6  UNL     1       7.610   2.603  44.499  1.00  0.00     0.133 A 
HETATM    4  N2  UNL     1       7.630   1.887  45.637  1.00  0.00    -0.337 N 
ATOM      5  H2  UNL     1       8.439   1.975  46.253  1.00  0.00     0.168 HD
HETATM    6  C7  UNL     1       6.625   1.052  46.006  1.00  0.00     0.183 A 
HETATM    7  N3  UNL     1       5.530   0.886  45.248  1.00  0.00    -0.336 N 
ATOM      8  H3  UNL     1       4.785   0.253  45.542  1.00  0.00     0.168 HD
HETATM    9  C8  UNL     1       5.433   1.567  44.092  1.00  0.00     0.141 A 
HETATM   10  C9  UNL     1       6.445   2.409  43.717  1.00  0.00     0.122 A 
HETATM   11  N4  UNL     1       6.099   2.943  42.559  1.00  0.00    -0.346 N 
ATOM     12  H4  UNL     1       6.644   3.614  42.017  1.00  0.00     0.167 HD
HETATM   13  C10 UNL     1       4.889   2.437  42.225  1.00  0.00     0.185 A 
HETATM   14  N5  UNL     1       4.435   1.580  43.142  1.00  0.00    -0.319 N 
ENDROOT
BRANCH  14  15
HETATM   15  C11 UNL     1       3.247   0.821  43.272  1.00  0.00     0.131 C 
HETATM   16  C12 UNL     1       2.147   1.388  44.166  1.00  0.00     0.194 C 
HETATM   17  F1  UNL     1       2.410   2.531  44.833  1.00  0.00    -0.247 F 
HETATM   18  C13 UNL     1       1.368   1.583  42.852  1.00  0.00     0.046 C 
HETATM   19  C14 UNL     1       2.292   0.651  42.154  1.00  0.00     0.018 C 
BRANCH  19  20
HETATM   20  C15 UNL     1       2.625   0.726  40.750  1.00  0.00    -0.012 C 
HETATM   21  C16 UNL     1       3.650  -0.425  40.398  1.00  0.00     0.010 C 
BRANCH  20  22
HETATM   22  C17 UNL     1       1.698   0.721  39.629  1.00  0.00     0.013 C 
BRANCH  22  23
HETATM   23  C18 UNL     1       1.320  -0.553  38.966  1.00  0.00     0.117 C 
BRANCH  23  24
HETATM   24  C19 UNL     1       1.534  -0.333  37.460  1.00  0.00     0.387 C 
HETATM   25  F2  UNL     1       0.949   0.858  37.140  1.00  0.00    -0.171 F 
HETATM   26  F3  UNL     1       2.873  -0.361  37.136  1.00  0.00    -0.171 F 
HETATM   27  F4  UNL     1       0.908  -1.333  36.749  1.00  0.00    -0.171 F 
ENDBRANCH  23  24
ENDBRANCH  22  23
ENDBRANCH  20  22
ENDBRANCH  19  20
ENDBRANCH  14  15
BRANCH   1  28
HETATM   28  C3  UNL     1       9.695   3.965  44.311  1.00  0.00     0.082 C 
BRANCH  28  29
HETATM   29  C2  UNL     1       9.894   5.200  43.512  1.00  0.00     0.021 C 
HETATM   30  C1  UNL     1       8.863   5.510  42.465  1.00  0.00     0.007 C 
ENDBRANCH  28  29
BRANCH  28  31
HETATM   31  C4  UNL     1      10.775   2.926  44.106  1.00  0.00     0.021 C 
HETATM   32  C5  UNL     1      11.412   2.852  42.779  1.00  0.00     0.007 C 
ENDBRANCH  28  31
ENDBRANCH   1  28
TORSDOF 8
ENDMDL
MODEL 4
REMARK VINA RESULT: -8.109631731      1.726      2.434
REMARK  8 active torsions:
REMARK  status: ('A' for Active; 'I' for Inactive)
REMARK    1  A    between atoms: C2_2  and  C3_3 
REMARK    2  A    between atoms: C3_3  and  C4_4 
REMARK    3  A    between atoms: C3_3  and  N1_6 
REMARK    4  A    between atoms: N5_19  and  C11_20 
REMARK    5  A    between atoms: C14_24  and  C15_25 
REMARK    6  A    between atoms: C15_25  and  C17_27 
REMARK    7  A    between atoms: C17_27  and  C18_28 
REMARK    8  A    between atoms: C18_28  and  C19_29 
ROOT
HETATM    1  N1  UNL     1       8.169   3.772  43.981  1.00  0.00    -0.370 N 
ATOM      2  H1  UNL     1       7.692   4.145  43.160  1.00  0.00     0.161 HD
HETATM    3  C6  UNL     1       7.448   2.895  44.403  1.00  0.00     0.133 A 
HETATM    4  N2  UNL     1       7.674   2.124  45.482  1.00  0.00    -0.337 N 
ATOM      5  H2  UNL     1       8.532   2.273  46.015  1.00  0.00     0.168 HD
HETATM    6  C7  UNL     1       6.816   1.157  45.895  1.00  0.00     0.183 A 
HETATM    7  N3  UNL     1       5.669   0.905  45.245  1.00  0.00    -0.336 N 
ATOM      8  H3  UNL     1       5.036   0.174  45.571  1.00  0.00     0.168 HD
HETATM    9  C8  UNL     1       5.369   1.634  44.155  1.00  0.00     0.141 A 
HETATM   10  C9  UNL     1       6.233   2.609  43.735  1.00  0.00     0.122 A 
HETATM   11  N4  UNL     1       5.703   3.162  42.659  1.00  0.00    -0.346 N 
ATOM     12  H4  UNL     1       6.107   3.922  42.110  1.00  0.00     0.167 HD
HETATM   13  C10 UNL     1       4.527   2.536  42.418  1.00  0.00     0.185 A 
HETATM   14  N5  UNL     1       4.276   1.582  43.316  1.00  0.00    -0.319 N 
ENDROOT
BRANCH  14  15
HETATM   15  C11 UNL     1       3.202   0.682  43.517  1.00  0.00     0.131 C 
HETATM   16  C12 UNL     1       2.267   0.956  44.693  1.00  0.00     0.194 C 
HETATM   17  F1  UNL     1       2.572   1.988  45.506  1.00  0.00    -0.247 F 
HETATM   18  C13 UNL     1       1.224   1.287  43.609  1.00  0.00     0.046 C 
HETATM   19  C14 UNL     1       2.055   0.601  42.586  1.00  0.00     0.018 C 
BRANCH  19  20
HETATM   20  C15 UNL     1       2.088   0.956  41.185  1.00  0.00    -0.012 C 
HETATM   21  C16 UNL     1       2.942  -0.115  40.398  1.00  0.00     0.010 C 
BRANCH  20  22
HETATM   22  C17 UNL     1       0.945   1.196  40.316  1.00  0.00     0.013 C 
BRANCH  22  23
HETATM   23  C18 UNL     1      -0.167   0.216  40.242  1.00  0.00     0.117 C 
BRANCH  23  24
HETATM   24  C19 UNL     1      -1.346   0.846  41.002  1.00  0.00     0.387 C 
HETATM   25  F2  UNL     1      -0.918   2.052  41.479  1.00  0.00    -0.171 F 
HETATM   26  F3  UNL     1      -2.454   0.967  40.193  1.00  0.00    -0.171 F 
HETATM   27  F4  UNL     1      -1.690   0.050  42.072  1.00  0.00    -0.171 F 
ENDBRANCH  23  24
ENDBRANCH  22  23
ENDBRANCH  20  22
ENDBRANCH  19  20
ENDBRANCH  14  15
BRANCH   1  28
HETATM   28  C3  UNL     1       9.335   4.502  44.093  1.00  0.00     0.082 C 
BRANCH  28  29
HETATM   29  C2  UNL     1       9.495   5.541  43.045  1.00  0.00     0.021 C 
HETATM   30  C1  UNL     1       8.376   5.691  42.055  1.00  0.00     0.007 C 
ENDBRANCH  28  29
BRANCH  28  31
HETATM   31  C4  UNL     1      10.496   3.537  44.177  1.00  0.00     0.021 C 
HETATM   32  C5  UNL     1      11.268   3.285  42.947  1.00  0.00     0.007 C 
ENDBRANCH  28  31
ENDBRANCH   1  28
TORSDOF 8
ENDMDL
MODEL 5
REMARK VINA RESULT: -7.924259053      4.166      8.854
REMARK  8 active torsions:
REMARK  status: ('A' for Active; 'I' for Inactive)
REMARK    1  A    between atoms: C2_2  and  C3_3 
REMARK    2  A    between atoms: C3_3  and  C4_4 
REMARK    3  A    between atoms: C3_3  and  N1_6 
REMARK    4  A    between atoms: N5_19  and  C11_20 
REMARK    5  A    between atoms: C14_24  and  C15_25 
REMARK    6  A    between atoms: C15_25  and  C17_27 
REMARK    7  A    between atoms: C17_27  and  C18_28 
REMARK    8  A    between atoms: C18_28  and  C19_29 
ROOT
HETATM    1  N1  UNL     1       2.344   1.625  42.196  1.00  0.00    -0.370 N 
ATOM      2  H1  UNL     1       3.097   1.683  41.512  1.00  0.00     0.161 HD
HETATM    3  C6  UNL     1       2.848   1.913  43.259  1.00  0.00     0.133 A 
HETATM    4  N2  UNL     1       2.228   1.965  44.451  1.00  0.00    -0.337 N 
ATOM      5  H2  UNL     1       1.233   1.745  44.491  1.00  0.00     0.168 HD
HETATM    6  C7  UNL     1       2.864   2.297  45.604  1.00  0.00     0.183 A 
HETATM    7  N3  UNL     1       4.172   2.598  45.628  1.00  0.00    -0.336 N 
ATOM      8  H3  UNL     1       4.632   2.845  46.505  1.00  0.00     0.168 HD
HETATM    9  C8  UNL     1       4.865   2.568  44.475  1.00  0.00     0.141 A 
HETATM   10  C9  UNL     1       4.226   2.234  43.312  1.00  0.00     0.122 A 
HETATM   11  N4  UNL     1       5.126   2.282  42.346  1.00  0.00    -0.346 N 
ATOM     12  H4  UNL     1       4.963   2.085  41.358  1.00  0.00     0.167 HD
HETATM   13  C10 UNL     1       6.305   2.640  42.907  1.00  0.00     0.185 A 
HETATM   14  N5  UNL     1       6.195   2.829  44.224  1.00  0.00    -0.319 N 
ENDROOT
BRANCH  14  15
HETATM   15  C11 UNL     1       7.111   3.178  45.245  1.00  0.00     0.131 C 
HETATM   16  C12 UNL     1       7.473   2.099  46.262  1.00  0.00     0.194 C 
HETATM   17  F1  UNL     1       6.838   0.912  46.167  1.00  0.00    -0.247 F 
HETATM   18  C13 UNL     1       8.862   2.131  45.597  1.00  0.00     0.046 C 
HETATM   19  C14 UNL     1       8.541   3.439  44.968  1.00  0.00     0.018 C 
BRANCH  19  20
HETATM   20  C15 UNL     1       9.079   3.894  43.706  1.00  0.00    -0.012 C 
HETATM   21  C16 UNL     1      10.039   5.123  43.965  1.00  0.00     0.010 C 
BRANCH  20  22
HETATM   22  C17 UNL     1       9.794   3.097  42.720  1.00  0.00     0.013 C 
BRANCH  22  23
HETATM   23  C18 UNL     1      11.277   3.114  42.666  1.00  0.00     0.117 C 
BRANCH  23  24
HETATM   24  C19 UNL     1      11.742   1.743  43.184  1.00  0.00     0.387 C 
HETATM   25  F2  UNL     1      10.766   0.842  42.866  1.00  0.00    -0.171 F 
HETATM   26  F3  UNL     1      12.965   1.398  42.652  1.00  0.00    -0.171 F 
HETATM   27  F4  UNL     1      11.873   1.782  44.554  1.00  0.00    -0.171 F 
ENDBRANCH  23  24
ENDBRANCH  22  23
ENDBRANCH  20  22
ENDBRANCH  19  20
ENDBRANCH  14  15
BRANCH   1  28
HETATM   28  C3  UNL     1       1.223   1.255  41.480  1.00  0.00     0.082 C 
BRANCH  28  29
HETATM   29  C2  UNL     1       0.092   0.803  42.329  1.00  0.00     0.021 C 
HETATM   30  C1  UNL     1      -1.295   1.073  41.820  1.00  0.00     0.007 C 
ENDBRANCH  28  29
BRANCH  28  31
HETATM   31  C4  UNL     1       1.639   0.247  40.431  1.00  0.00     0.021 C 
HETATM   32  C5  UNL     1       1.021   0.354  39.097  1.00  0.00     0.007 C 
ENDBRANCH  28  31
ENDBRANCH   1  28
TORSDOF 8
ENDMDL
