MODEL 1
REMARK VINA RESULT: -7.750502237      0.000      0.000
REMARK  9 active torsions:
REMARK  status: ('A' for Active; 'I' for Inactive)
REMARK    1  A    between atoms: C2_2  and  C3_3 
REMARK    2  A    between atoms: C3_3  and  C4_4 
REMARK    3  A    between atoms: C4_4  and  N1_5 
REMARK    4  A    between atoms: C5_10  and  C6_11 
REMARK    5  A    between atoms: C8_13  and  C9_14 
REMARK    6  A    between atoms: C9_14  and  O1_15 
REMARK    7  A    between atoms: C9_14  and  C10_17 
REMARK    8  A    between atoms: C9_14  and  C19_27 
REMARK    9  A    between atoms: C10_17  and  C11_18 
ROOT
HETATM    1  C9  UNL     1       3.758   1.205  43.579  1.00  0.00     0.205 C 
ENDROOT
BRANCH   1   2
HETATM    2  C8  UNL     1       2.985   0.789  42.390  1.00  0.00     0.097 A 
HETATM    3  N1  UNL     1       1.753   1.072  41.987  1.00  0.00    -0.277 N 
HETATM    4  N2  UNL     1       1.629   0.608  40.683  1.00  0.00    -0.240 N 
HETATM    5  N3  UNL     1       2.694   0.065  40.288  1.00  0.00    -0.288 N 
ATOM      6  H2  UNL     1       0.784   0.696  40.118  1.00  0.00     0.208 HD
HETATM    7  C5  UNL     1       3.600   0.134  41.309  1.00  0.00     0.054 A 
ATOM      8  H3  UNL     1       2.852  -0.351  39.370  1.00  0.00     0.188 HD
BRANCH   3   9
HETATM    9  C4  UNL     1       0.606   1.667  42.573  1.00  0.00     0.154 C 
BRANCH   9  10
HETATM   10  C3  UNL     1      -0.649   0.889  42.219  1.00  0.00     0.048 C 
BRANCH  10  11
HETATM   11  C2  UNL     1      -1.695   1.724  41.578  1.00  0.00    -0.035 C 
HETATM   12  C1  UNL     1      -2.816   1.173  41.184  1.00  0.00     0.007 C 
ENDBRANCH  10  11
ENDBRANCH   9  10
ENDBRANCH   3   9
BRANCH   7  13
HETATM   13  C6  UNL     1       4.890  -0.592  41.247  1.00  0.00     0.056 C 
HETATM   14  C7  UNL     1       5.532  -0.210  39.879  1.00  0.00     0.011 C 
ENDBRANCH   7  13
ENDBRANCH   1   2
BRANCH   1  15
HETATM   15  O1  UNL     1       3.605   2.557  43.763  1.00  0.00    -0.375 OA
ATOM     16  H1  UNL     1       4.455   2.946  43.931  1.00  0.00     0.211 HD
ENDBRANCH   1  15
BRANCH   1  17
HETATM   17  C10 UNL     1       5.287   1.109  43.322  1.00  0.00     0.089 C 
BRANCH  17  18
HETATM   18  C11 UNL     1       5.958   2.418  43.177  1.00  0.00    -0.059 C 
HETATM   19  C12 UNL     1       6.872   2.802  44.096  1.00  0.00     0.015 C 
HETATM   20 CL1  UNL     1       7.341   1.856  45.477  1.00  0.00    -0.089 Cl
HETATM   21  C13 UNL     1       7.501   4.131  43.886  1.00  0.00     0.060 C 
HETATM   22  C14 UNL     1       8.126   4.204  42.512  1.00  0.00    -0.043 C 
HETATM   23  C15 UNL     1       8.252   5.659  42.041  1.00  0.00     0.015 C 
HETATM   24  C16 UNL     1       9.497   3.569  42.602  1.00  0.00     0.015 C 
HETATM   25  C17 UNL     1       7.239   3.520  41.495  1.00  0.00     0.013 C 
HETATM   26  C18 UNL     1       5.804   3.401  42.081  1.00  0.00     0.036 C 
ENDBRANCH  17  18
ENDBRANCH   1  17
BRANCH   1  27
HETATM   27  C19 UNL     1       3.433   0.423  44.801  1.00  0.00     0.424 C 
HETATM   28  F1  UNL     1       4.343  -0.550  45.069  1.00  0.00    -0.167 F 
HETATM   29  F2  UNL     1       2.215  -0.247  44.748  1.00  0.00    -0.167 F 
HETATM   30  F3  UNL     1       3.452   1.232  45.948  1.00  0.00    -0.167 F 
ENDBRANCH   1  27
TORSDOF 9
ENDMDL
MODEL 2
REMARK VINA RESULT: -7.513274742      2.394      3.539
REMARK  9 active torsions:
REMARK  status: ('A' for Active; 'I' for Inactive)
REMARK    1  A    between atoms: C2_2  and  C3_3 
REMARK    2  A    between atoms: C3_3  and  C4_4 
REMARK    3  A    between atoms: C4_4  and  N1_5 
REMARK    4  A    between atoms: C5_10  and  C6_11 
REMARK    5  A    between atoms: C8_13  and  C9_14 
REMARK    6  A    between atoms: C9_14  and  O1_15 
REMARK    7  A    between atoms: C9_14  and  C10_17 
REMARK    8  A    between atoms: C9_14  and  C19_27 
REMARK    9  A    between atoms: C10_17  and  C11_18 
ROOT
HETATM    1  C9  UNL     1       4.928   1.287  43.008  1.00  0.00     0.205 C 
ENDROOT
BRANCH   1   2
HETATM    2  C8  UNL     1       3.943   1.638  44.053  1.00  0.00     0.097 A 
HETATM    3  N1  UNL     1       2.638   1.877  43.999  1.00  0.00    -0.277 N 
HETATM    4  N2  UNL     1       2.174   1.919  45.309  1.00  0.00    -0.240 N 
HETATM    5  N3  UNL     1       3.108   1.730  46.132  1.00  0.00    -0.288 N 
ATOM      6  H2  UNL     1       1.201   2.082  45.570  1.00  0.00     0.208 HD
HETATM    7  C5  UNL     1       4.260   1.549  45.419  1.00  0.00     0.054 A 
ATOM      8  H3  UNL     1       3.021   1.715  47.148  1.00  0.00     0.188 HD
BRANCH   3   9
HETATM    9  C4  UNL     1       1.693   2.120  42.970  1.00  0.00     0.154 C 
BRANCH   9  10
HETATM   10  C3  UNL     1       0.677   0.993  42.890  1.00  0.00     0.048 C 
BRANCH  10  11
HETATM   11  C2  UNL     1      -0.059   0.960  41.602  1.00  0.00    -0.035 C 
HETATM   12  C1  UNL     1       0.582   0.675  40.495  1.00  0.00     0.007 C 
ENDBRANCH  10  11
ENDBRANCH   9  10
ENDBRANCH   3   9
BRANCH   7  13
HETATM   13  C6  UNL     1       5.582   1.504  46.086  1.00  0.00     0.056 C 
HETATM   14  C7  UNL     1       5.888   2.966  46.533  1.00  0.00     0.011 C 
ENDBRANCH   7  13
ENDBRANCH   1   2
BRANCH   1  15
HETATM   15  O1  UNL     1       6.138   1.025  43.603  1.00  0.00    -0.375 OA
ATOM     16  H1  UNL     1       6.797   0.910  42.928  1.00  0.00     0.211 HD
ENDBRANCH   1  15
BRANCH   1  17
HETATM   17  C10 UNL     1       5.287   2.518  42.131  1.00  0.00     0.089 C 
BRANCH  17  18
HETATM   18  C11 UNL     1       6.662   2.496  41.592  1.00  0.00    -0.059 C 
HETATM   19  C12 UNL     1       7.617   3.253  42.176  1.00  0.00     0.015 C 
HETATM   20 CL1  UNL     1       7.357   4.280  43.554  1.00  0.00    -0.089 Cl
HETATM   21  C13 UNL     1       8.974   3.182  41.576  1.00  0.00     0.060 C 
HETATM   22  C14 UNL     1       9.449   1.749  41.520  1.00  0.00    -0.043 C 
HETATM   23  C15 UNL     1      10.515   1.564  40.432  1.00  0.00     0.015 C 
HETATM   24  C16 UNL     1      10.031   1.410  42.877  1.00  0.00     0.015 C 
HETATM   25  C17 UNL     1       8.309   0.833  41.136  1.00  0.00     0.013 C 
HETATM   26  C18 UNL     1       7.187   1.680  40.473  1.00  0.00     0.036 C 
ENDBRANCH  17  18
ENDBRANCH   1  17
BRANCH   1  27
HETATM   27  C19 UNL     1       4.480   0.185  42.117  1.00  0.00     0.424 C 
HETATM   28  F1  UNL     1       5.487  -0.653  41.757  1.00  0.00    -0.167 F 
HETATM   29  F2  UNL     1       3.932   0.607  40.911  1.00  0.00    -0.167 F 
HETATM   30  F3  UNL     1       3.556  -0.652  42.763  1.00  0.00    -0.167 F 
ENDBRANCH   1  27
TORSDOF 9
ENDMDL
MODEL 3
REMARK VINA RESULT: -7.444739605      2.709      4.352
REMARK  9 active torsions:
REMARK  status: ('A' for Active; 'I' for Inactive)
REMARK    1  A    between atoms: C2_2  and  C3_3 
REMARK    2  A    between atoms: C3_3  and  C4_4 
REMARK    3  A    between atoms: C4_4  and  N1_5 
REMARK    4  A    between atoms: C5_10  and  C6_11 
REMARK    5  A    between atoms: C8_13  and  C9_14 
REMARK    6  A    between atoms: C9_14  and  O1_15 
REMARK    7  A    between atoms: C9_14  and  C10_17 
REMARK    8  A    between atoms: C9_14  and  C19_27 
REMARK    9  A    between atoms: C10_17  and  C11_18 
ROOT
HETATM    1  C9  UNL     1       3.461   1.481  42.425  1.00  0.00     0.205 C 
ENDROOT
BRANCH   1   2
HETATM    2  C8  UNL     1       2.219   1.258  43.197  1.00  0.00     0.097 A 
HETATM    3  N1  UNL     1       0.967   1.034  42.820  1.00  0.00    -0.277 N 
HETATM    4  N2  UNL     1       0.257   0.657  43.954  1.00  0.00    -0.240 N 
HETATM    5  N3  UNL     1       0.996   0.648  44.973  1.00  0.00    -0.288 N 
ATOM      6  H2  UNL     1      -0.735   0.418  43.959  1.00  0.00     0.208 HD
HETATM    7  C5  UNL     1       2.251   1.020  44.581  1.00  0.00     0.054 A 
ATOM      8  H3  UNL     1       0.709   0.406  45.922  1.00  0.00     0.188 HD
BRANCH   3   9
HETATM    9  C4  UNL     1       0.241   1.130  41.604  1.00  0.00     0.154 C 
BRANCH   9  10
HETATM   10  C3  UNL     1      -1.090   1.829  41.822  1.00  0.00     0.048 C 
BRANCH  10  11
HETATM   11  C2  UNL     1      -2.214   1.184  41.100  1.00  0.00    -0.035 C 
HETATM   12  C1  UNL     1      -2.625  -0.004  41.467  1.00  0.00     0.007 C 
ENDBRANCH  10  11
ENDBRANCH   9  10
ENDBRANCH   3   9
BRANCH   7  13
HETATM   13  C6  UNL     1       3.315   1.308  45.570  1.00  0.00     0.056 C 
HETATM   14  C7  UNL     1       3.970  -0.066  45.908  1.00  0.00     0.011 C 
ENDBRANCH   7  13
ENDBRANCH   1   2
BRANCH   1  15
HETATM   15  O1  UNL     1       3.160   1.490  41.085  1.00  0.00    -0.375 OA
ATOM     16  H1  UNL     1       3.741   2.096  40.641  1.00  0.00     0.211 HD
ENDBRANCH   1  15
BRANCH   1  17
HETATM   17  C10 UNL     1       4.409   0.253  42.509  1.00  0.00     0.089 C 
BRANCH  17  18
HETATM   18  C11 UNL     1       4.995  -0.148  41.214  1.00  0.00    -0.059 C 
HETATM   19  C12 UNL     1       6.271   0.194  40.928  1.00  0.00     0.015 C 
HETATM   20 CL1  UNL     1       7.314   1.093  41.989  1.00  0.00    -0.089 Cl
HETATM   21  C13 UNL     1       6.790  -0.240  39.605  1.00  0.00     0.060 C 
HETATM   22  C14 UNL     1       6.635  -1.734  39.446  1.00  0.00    -0.043 C 
HETATM   23  C15 UNL     1       6.598  -2.130  37.964  1.00  0.00     0.015 C 
HETATM   24  C16 UNL     1       7.820  -2.389  40.127  1.00  0.00     0.015 C 
HETATM   25  C17 UNL     1       5.314  -2.190  40.025  1.00  0.00     0.013 C 
HETATM   26  C18 UNL     1       4.370  -0.961  40.146  1.00  0.00     0.036 C 
ENDBRANCH  17  18
ENDBRANCH   1  17
BRANCH   1  27
HETATM   27  C19 UNL     1       4.213   2.691  42.849  1.00  0.00     0.424 C 
HETATM   28  F1  UNL     1       5.207   2.417  43.734  1.00  0.00    -0.167 F 
HETATM   29  F2  UNL     1       3.439   3.656  43.484  1.00  0.00    -0.167 F 
HETATM   30  F3  UNL     1       4.877   3.288  41.766  1.00  0.00    -0.167 F 
ENDBRANCH   1  27
TORSDOF 9
ENDMDL
MODEL 4
REMARK VINA RESULT: -7.374492784      2.611      3.927
REMARK  9 active torsions:
REMARK  status: ('A' for Active; 'I' for Inactive)
REMARK    1  A    between atoms: C2_2  and  C3_3 
REMARK    2  A    between atoms: C3_3  and  C4_4 
REMARK    3  A    between atoms: C4_4  and  N1_5 
REMARK    4  A    between atoms: C5_10  and  C6_11 
REMARK    5  A    between atoms: C8_13  and  C9_14 
REMARK    6  A    between atoms: C9_14  and  O1_15 
REMARK    7  A    between atoms: C9_14  and  C10_17 
REMARK    8  A    between atoms: C9_14  and  C19_27 
REMARK    9  A    between atoms: C10_17  and  C11_18 
ROOT
HETATM    1  C9  UNL     1       4.246   1.465  42.645  1.00  0.00     0.205 C 
ENDROOT
BRANCH   1   2
HETATM    2  C8  UNL     1       2.993   1.045  43.308  1.00  0.00     0.097 A 
HETATM    3  N1  UNL     1       1.790   0.754  42.830  1.00  0.00    -0.277 N 
HETATM    4  N2  UNL     1       1.060   0.187  43.869  1.00  0.00    -0.240 N 
HETATM    5  N3  UNL     1       1.741   0.128  44.926  1.00  0.00    -0.288 N 
ATOM      6  H2  UNL     1       0.097  -0.138  43.785  1.00  0.00     0.208 HD
HETATM    7  C5  UNL     1       2.974   0.654  44.658  1.00  0.00     0.054 A 
ATOM      8  H3  UNL     1       1.429  -0.246  45.822  1.00  0.00     0.188 HD
BRANCH   3   9
HETATM    9  C4  UNL     1       1.124   0.922  41.588  1.00  0.00     0.154 C 
BRANCH   9  10
HETATM   10  C3  UNL     1      -0.322   1.336  41.802  1.00  0.00     0.048 C 
BRANCH  10  11
HETATM   11  C2  UNL     1      -1.256   0.725  40.824  1.00  0.00    -0.035 C 
HETATM   12  C1  UNL     1      -2.548   0.869  40.982  1.00  0.00     0.007 C 
ENDBRANCH  10  11
ENDBRANCH   9  10
ENDBRANCH   3   9
BRANCH   7  13
HETATM   13  C6  UNL     1       3.952   0.921  45.737  1.00  0.00     0.056 C 
HETATM   14  C7  UNL     1       4.362  -0.474  46.299  1.00  0.00     0.011 C 
ENDBRANCH   7  13
ENDBRANCH   1   2
BRANCH   1  15
HETATM   15  O1  UNL     1       4.152   1.203  41.300  1.00  0.00    -0.375 OA
ATOM     16  H1  UNL     1       4.799   1.723  40.837  1.00  0.00     0.211 HD
ENDBRANCH   1  15
BRANCH   1  17
HETATM   17  C10 UNL     1       5.434   0.547  43.046  1.00  0.00     0.089 C 
BRANCH  17  18
HETATM   18  C11 UNL     1       6.463   0.398  41.996  1.00  0.00    -0.059 C 
HETATM   19  C12 UNL     1       6.485  -0.722  41.241  1.00  0.00     0.015 C 
HETATM   20 CL1  UNL     1       5.367  -2.044  41.403  1.00  0.00    -0.089 Cl
HETATM   21  C13 UNL     1       7.551  -0.803  40.210  1.00  0.00     0.060 C 
HETATM   22  C14 UNL     1       7.492   0.401  39.299  1.00  0.00    -0.043 C 
HETATM   23  C15 UNL     1       8.852   0.659  38.637  1.00  0.00     0.015 C 
HETATM   24  C16 UNL     1       6.446   0.120  38.241  1.00  0.00     0.015 C 
HETATM   25  C17 UNL     1       7.184   1.648  40.098  1.00  0.00     0.013 C 
HETATM   26  C18 UNL     1       7.501   1.376  41.595  1.00  0.00     0.036 C 
ENDBRANCH  17  18
ENDBRANCH   1  17
BRANCH   1  27
HETATM   27  C19 UNL     1       4.621   2.876  42.927  1.00  0.00     0.424 C 
HETATM   28  F1  UNL     1       5.001   3.559  41.815  1.00  0.00    -0.167 F 
HETATM   29  F2  UNL     1       5.689   3.023  43.805  1.00  0.00    -0.167 F 
HETATM   30  F3  UNL     1       3.529   3.608  43.419  1.00  0.00    -0.167 F 
ENDBRANCH   1  27
TORSDOF 9
ENDMDL
MODEL 5
REMARK VINA RESULT: -7.329709718      3.019      5.360
REMARK  9 active torsions:
REMARK  status: ('A' for Active; 'I' for Inactive)
REMARK    1  A    between atoms: C2_2  and  C3_3 
REMARK    2  A    between atoms: C3_3  and  C4_4 
REMARK    3  A    between atoms: C4_4  and  N1_5 
REMARK    4  A    between atoms: C5_10  and  C6_11 
REMARK    5  A    between atoms: C8_13  and  C9_14 
REMARK    6  A    between atoms: C9_14  and  O1_15 
REMARK    7  A    between atoms: C9_14  and  C10_17 
REMARK    8  A    between atoms: C9_14  and  C19_27 
REMARK    9  A    between atoms: C10_17  and  C11_18 
ROOT
HETATM    1  C9  UNL     1       3.150   1.091  41.944  1.00  0.00     0.205 C 
ENDROOT
BRANCH   1   2
HETATM    2  C8  UNL     1       2.139   0.884  43.003  1.00  0.00     0.097 A 
HETATM    3  N1  UNL     1       0.836   1.129  43.047  1.00  0.00    -0.277 N 
HETATM    4  N2  UNL     1       0.340   0.518  44.193  1.00  0.00    -0.240 N 
HETATM    5  N3  UNL     1       1.256  -0.065  44.832  1.00  0.00    -0.288 N 
ATOM      6  H2  UNL     1      -0.638   0.538  44.479  1.00  0.00     0.208 HD
HETATM    7  C5  UNL     1       2.425   0.123  44.149  1.00  0.00     0.054 A 
ATOM      8  H3  UNL     1       1.144  -0.584  45.704  1.00  0.00     0.188 HD
BRANCH   3   9
HETATM    9  C4  UNL     1      -0.086   1.862  42.256  1.00  0.00     0.154 C 
BRANCH   9  10
HETATM   10  C3  UNL     1      -0.652   0.996  41.143  1.00  0.00     0.048 C 
BRANCH  10  11
HETATM   11  C2  UNL     1      -2.136   0.974  41.117  1.00  0.00    -0.035 C 
HETATM   12  C1  UNL     1      -2.777  -0.071  41.579  1.00  0.00     0.007 C 
ENDBRANCH  10  11
ENDBRANCH   9  10
ENDBRANCH   3   9
BRANCH   7  13
HETATM   13  C6  UNL     1       3.730  -0.261  44.733  1.00  0.00     0.056 C 
HETATM   14  C7  UNL     1       3.959   0.698  45.941  1.00  0.00     0.011 C 
ENDBRANCH   7  13
ENDBRANCH   1   2
BRANCH   1  15
HETATM   15  O1  UNL     1       2.557   1.715  40.874  1.00  0.00    -0.375 OA
ATOM     16  H1  UNL     1       1.722   2.074  41.148  1.00  0.00     0.211 HD
ENDBRANCH   1  15
BRANCH   1  17
HETATM   17  C10 UNL     1       3.581  -0.257  41.302  1.00  0.00     0.089 C 
BRANCH  17  18
HETATM   18  C11 UNL     1       3.455  -0.293  39.830  1.00  0.00    -0.059 C 
HETATM   19  C12 UNL     1       4.499  -0.718  39.084  1.00  0.00     0.015 C 
HETATM   20 CL1  UNL     1       6.024  -1.247  39.730  1.00  0.00    -0.089 Cl
HETATM   21  C13 UNL     1       4.299  -0.723  37.612  1.00  0.00     0.060 C 
HETATM   22  C14 UNL     1       3.075  -1.531  37.251  1.00  0.00    -0.043 C 
HETATM   23  C15 UNL     1       2.511  -1.099  35.891  1.00  0.00     0.015 C 
HETATM   24  C16 UNL     1       3.491  -2.987  37.199  1.00  0.00     0.015 C 
HETATM   25  C17 UNL     1       1.968  -1.283  38.251  1.00  0.00     0.013 C 
HETATM   26  C18 UNL     1       2.267   0.040  39.011  1.00  0.00     0.036 C 
ENDBRANCH  17  18
ENDBRANCH   1  17
BRANCH   1  27
HETATM   27  C19 UNL     1       4.366   1.802  42.417  1.00  0.00     0.424 C 
HETATM   28  F1  UNL     1       4.961   2.544  41.447  1.00  0.00    -0.167 F 
HETATM   29  F2  UNL     1       5.376   0.967  42.882  1.00  0.00    -0.167 F 
HETATM   30  F3  UNL     1       4.058   2.736  43.418  1.00  0.00    -0.167 F 
ENDBRANCH   1  27
TORSDOF 9
ENDMDL
