MODEL 1
REMARK VINA RESULT: -9.667248575      0.000      0.000
REMARK  8 active torsions:
REMARK  status: ('A' for Active; 'I' for Inactive)
REMARK    1  A    between atoms: C3_3  and  S1_4 
REMARK    2  A    between atoms: S1_4  and  C4_5 
REMARK    3  A    between atoms: C4_5  and  C5_6 
REMARK    4  A    between atoms: C5_6  and  C6_7 
REMARK    5  A    between atoms: C6_7  and  C7_8 
REMARK    6  A    between atoms: C7_8  and  C8_9 
REMARK    7  A    between atoms: C12_17  and  C13_18 
REMARK    8  A    between atoms: C14_19  and  C15_20 
ROOT
HETATM    1  C1  UNL     1       6.162   2.661  45.414  1.00  0.00     0.056 C 
HETATM    2  C2  UNL     1       4.901   2.368  44.712  1.00  0.00     0.031 A 
HETATM    3  C3  UNL     1       4.816   1.722  43.514  1.00  0.00     0.025 A 
HETATM    4  C9  UNL     1       3.568   1.527  42.954  1.00  0.00     0.018 A 
HETATM    5  C10 UNL     1       3.399   0.883  41.746  1.00  0.00     0.058 A 
HETATM    6  C11 UNL     1       2.160   0.686  41.182  1.00  0.00     0.127 A 
HETATM    7  F4  UNL     1       2.112   0.046  40.001  1.00  0.00    -0.205 F 
HETATM    8  C12 UNL     1       1.009   1.116  41.782  1.00  0.00     0.005 A 
HETATM    9  C16 UNL     1       1.165   1.775  43.016  1.00  0.00     0.053 A 
HETATM   10  C17 UNL     1       2.407   1.959  43.555  1.00  0.00     0.092 A 
HETATM   11  O3  UNL     1       2.550   2.581  44.719  1.00  0.00    -0.274 OA
HETATM   12  C18 UNL     1       3.690   2.782  45.273  1.00  0.00     0.295 A 
HETATM   13  O4  UNL     1       3.769   3.380  46.382  1.00  0.00    -0.259 OA
ENDROOT
BRANCH   3  14
HETATM   14  S1  UNL     1       6.219   1.112  42.669  1.00  0.00    -0.128 SA
BRANCH  14  15
HETATM   15  C4  UNL     1       7.020   2.220  41.536  1.00  0.00     0.079 C 
BRANCH  15  16
HETATM   16  C5  UNL     1       6.917   3.668  41.789  1.00  0.00     0.011 C 
BRANCH  16  17
HETATM   17  C6  UNL     1       8.156   4.473  41.785  1.00  0.00     0.010 C 
BRANCH  17  18
HETATM   18  C7  UNL     1       7.999   5.957  41.789  1.00  0.00     0.117 C 
BRANCH  18  19
HETATM   19  C8  UNL     1       7.299   6.553  40.621  1.00  0.00     0.387 C 
HETATM   20  F1  UNL     1       7.617   7.922  40.633  1.00  0.00    -0.171 F 
HETATM   21  F2  UNL     1       7.807   6.023  39.453  1.00  0.00    -0.171 F 
HETATM   22  F3  UNL     1       5.953   6.456  40.595  1.00  0.00    -0.171 F 
ENDBRANCH  18  19
ENDBRANCH  17  18
ENDBRANCH  16  17
ENDBRANCH  15  16
ENDBRANCH  14  15
ENDBRANCH   3  14
BRANCH   8  23
HETATM   23  C13 UNL     1      -0.336   0.955  41.264  1.00  0.00     0.021 C 
HETATM   24  C14 UNL     1      -1.410   1.576  41.628  1.00  0.00     0.085 C 
BRANCH  24  25
HETATM   25  C15 UNL     1      -2.691   1.262  40.968  1.00  0.00     0.198 C 
HETATM   26  O1  UNL     1      -2.682   0.928  39.757  1.00  0.00    -0.645 OA
HETATM   27  O2  UNL     1      -3.912   1.312  41.600  1.00  0.00    -0.645 OA
ENDBRANCH  24  25
ENDBRANCH   8  23
TORSDOF 8
ENDMDL
MODEL 2
REMARK VINA RESULT: -9.531198683      1.819      2.084
REMARK  8 active torsions:
REMARK  status: ('A' for Active; 'I' for Inactive)
REMARK    1  A    between atoms: C3_3  and  S1_4 
REMARK    2  A    between atoms: S1_4  and  C4_5 
REMARK    3  A    between atoms: C4_5  and  C5_6 
REMARK    4  A    between atoms: C5_6  and  C6_7 
REMARK    5  A    between atoms: C6_7  and  C7_8 
REMARK    6  A    between atoms: C7_8  and  C8_9 
REMARK    7  A    between atoms: C12_17  and  C13_18 
REMARK    8  A    between atoms: C14_19  and  C15_20 
ROOT
HETATM    1  C1  UNL     1       6.146   2.670  45.463  1.00  0.00     0.056 C 
HETATM    2  C2  UNL     1       4.890   2.372  44.755  1.00  0.00     0.031 A 
HETATM    3  C3  UNL     1       4.814   1.733  43.552  1.00  0.00     0.025 A 
HETATM    4  C9  UNL     1       3.570   1.533  42.987  1.00  0.00     0.018 A 
HETATM    5  C10 UNL     1       3.410   0.896  41.774  1.00  0.00     0.058 A 
HETATM    6  C11 UNL     1       2.173   0.693  41.205  1.00  0.00     0.127 A 
HETATM    7  F4  UNL     1       2.134   0.060  40.020  1.00  0.00    -0.205 F 
HETATM    8  C12 UNL     1       1.018   1.111  41.804  1.00  0.00     0.005 A 
HETATM    9  C16 UNL     1       1.164   1.763  43.043  1.00  0.00     0.053 A 
HETATM   10  C17 UNL     1       2.403   1.952  43.587  1.00  0.00     0.092 A 
HETATM   11  O3  UNL     1       2.538   2.568  44.756  1.00  0.00    -0.274 OA
HETATM   12  C18 UNL     1       3.674   2.773  45.315  1.00  0.00     0.295 A 
HETATM   13  O4  UNL     1       3.745   3.364  46.428  1.00  0.00    -0.259 OA
ENDROOT
BRANCH   3  14
HETATM   14  S1  UNL     1       6.225   1.139  42.708  1.00  0.00    -0.128 SA
BRANCH  14  15
HETATM   15  C4  UNL     1       7.157   2.323  41.770  1.00  0.00     0.079 C 
BRANCH  15  16
HETATM   16  C5  UNL     1       6.807   3.748  41.902  1.00  0.00     0.011 C 
BRANCH  16  17
HETATM   17  C6  UNL     1       7.780   4.655  42.546  1.00  0.00     0.010 C 
BRANCH  17  18
HETATM   18  C7  UNL     1       8.887   4.022  43.320  1.00  0.00     0.117 C 
BRANCH  18  19
HETATM   19  C8  UNL     1       9.984   4.921  43.765  1.00  0.00     0.387 C 
HETATM   20  F1  UNL     1      11.183   4.260  43.450  1.00  0.00    -0.171 F 
HETATM   21  F2  UNL     1       9.954   6.090  43.033  1.00  0.00    -0.171 F 
HETATM   22  F3  UNL     1      10.031   5.230  45.078  1.00  0.00    -0.171 F 
ENDBRANCH  18  19
ENDBRANCH  17  18
ENDBRANCH  16  17
ENDBRANCH  15  16
ENDBRANCH  14  15
ENDBRANCH   3  14
BRANCH   8  23
HETATM   23  C13 UNL     1      -0.324   0.943  41.280  1.00  0.00     0.021 C 
HETATM   24  C14 UNL     1      -1.392   1.598  41.600  1.00  0.00     0.085 C 
BRANCH  24  25
HETATM   25  C15 UNL     1      -2.671   1.269  40.943  1.00  0.00     0.198 C 
HETATM   26  O1  UNL     1      -2.662   0.938  39.731  1.00  0.00    -0.645 OA
HETATM   27  O2  UNL     1      -3.891   1.302  41.580  1.00  0.00    -0.645 OA
ENDBRANCH  24  25
ENDBRANCH   8  23
TORSDOF 8
ENDMDL
MODEL 3
REMARK VINA RESULT: -9.283263680      2.130      2.374
REMARK  8 active torsions:
REMARK  status: ('A' for Active; 'I' for Inactive)
REMARK    1  A    between atoms: C3_3  and  S1_4 
REMARK    2  A    between atoms: S1_4  and  C4_5 
REMARK    3  A    between atoms: C4_5  and  C5_6 
REMARK    4  A    between atoms: C5_6  and  C6_7 
REMARK    5  A    between atoms: C6_7  and  C7_8 
REMARK    6  A    between atoms: C7_8  and  C8_9 
REMARK    7  A    between atoms: C12_17  and  C13_18 
REMARK    8  A    between atoms: C14_19  and  C15_20 
ROOT
HETATM    1  C1  UNL     1       6.181   2.747  45.460  1.00  0.00     0.056 C 
HETATM    2  C2  UNL     1       4.923   2.429  44.763  1.00  0.00     0.031 A 
HETATM    3  C3  UNL     1       4.847   1.819  43.546  1.00  0.00     0.025 A 
HETATM    4  C9  UNL     1       3.600   1.594  42.995  1.00  0.00     0.018 A 
HETATM    5  C10 UNL     1       3.440   0.984  41.769  1.00  0.00     0.058 A 
HETATM    6  C11 UNL     1       2.201   0.757  41.214  1.00  0.00     0.127 A 
HETATM    7  F4  UNL     1       2.162   0.154  40.013  1.00  0.00    -0.205 F 
HETATM    8  C12 UNL     1       1.043   1.124  41.841  1.00  0.00     0.005 A 
HETATM    9  C16 UNL     1       1.190   1.749  43.094  1.00  0.00     0.053 A 
HETATM   10  C17 UNL     1       2.431   1.962  43.624  1.00  0.00     0.092 A 
HETATM   11  O3  UNL     1       2.566   2.552  44.806  1.00  0.00    -0.274 OA
HETATM   12  C18 UNL     1       3.705   2.778  45.352  1.00  0.00     0.295 A 
HETATM   13  O4  UNL     1       3.776   3.343  46.479  1.00  0.00    -0.259 OA
ENDROOT
BRANCH   3  14
HETATM   14  S1  UNL     1       6.261   1.289  42.666  1.00  0.00    -0.128 SA
BRANCH  14  15
HETATM   15  C4  UNL     1       7.181   2.537  41.799  1.00  0.00     0.079 C 
BRANCH  15  16
HETATM   16  C5  UNL     1       8.638   2.598  42.006  1.00  0.00     0.011 C 
BRANCH  16  17
HETATM   17  C6  UNL     1       9.174   2.267  43.342  1.00  0.00     0.010 C 
BRANCH  17  18
HETATM   18  C7  UNL     1       9.540   3.411  44.227  1.00  0.00     0.117 C 
BRANCH  18  19
HETATM   19  C8  UNL     1      10.613   4.314  43.734  1.00  0.00     0.387 C 
HETATM   20  F1  UNL     1      11.251   4.822  44.878  1.00  0.00    -0.171 F 
HETATM   21  F2  UNL     1      11.550   3.584  43.031  1.00  0.00    -0.171 F 
HETATM   22  F3  UNL     1      10.233   5.370  42.985  1.00  0.00    -0.171 F 
ENDBRANCH  18  19
ENDBRANCH  17  18
ENDBRANCH  16  17
ENDBRANCH  15  16
ENDBRANCH  14  15
ENDBRANCH   3  14
BRANCH   8  23
HETATM   23  C13 UNL     1      -0.301   0.928  41.333  1.00  0.00     0.021 C 
HETATM   24  C14 UNL     1      -1.351   1.648  41.561  1.00  0.00     0.085 C 
BRANCH  24  25
HETATM   25  C15 UNL     1      -2.637   1.274  40.943  1.00  0.00     0.198 C 
HETATM   26  O1  UNL     1      -2.646   0.905  39.742  1.00  0.00    -0.645 OA
HETATM   27  O2  UNL     1      -3.844   1.304  41.604  1.00  0.00    -0.645 OA
ENDBRANCH  24  25
ENDBRANCH   8  23
TORSDOF 8
ENDMDL
MODEL 4
REMARK VINA RESULT: -9.192777036      2.206      2.457
REMARK  8 active torsions:
REMARK  status: ('A' for Active; 'I' for Inactive)
REMARK    1  A    between atoms: C3_3  and  S1_4 
REMARK    2  A    between atoms: S1_4  and  C4_5 
REMARK    3  A    between atoms: C4_5  and  C5_6 
REMARK    4  A    between atoms: C5_6  and  C6_7 
REMARK    5  A    between atoms: C6_7  and  C7_8 
REMARK    6  A    between atoms: C7_8  and  C8_9 
REMARK    7  A    between atoms: C12_17  and  C13_18 
REMARK    8  A    between atoms: C14_19  and  C15_20 
ROOT
HETATM    1  C1  UNL     1       6.457   3.046  45.453  1.00  0.00     0.056 C 
HETATM    2  C2  UNL     1       5.231   2.635  44.747  1.00  0.00     0.031 A 
HETATM    3  C3  UNL     1       5.210   2.029  43.525  1.00  0.00     0.025 A 
HETATM    4  C9  UNL     1       3.987   1.712  42.965  1.00  0.00     0.018 A 
HETATM    5  C10 UNL     1       3.882   1.099  41.734  1.00  0.00     0.058 A 
HETATM    6  C11 UNL     1       2.668   0.781  41.170  1.00  0.00     0.127 A 
HETATM    7  F4  UNL     1       2.683   0.185  39.965  1.00  0.00    -0.205 F 
HETATM    8  C12 UNL     1       1.482   1.052  41.792  1.00  0.00     0.005 A 
HETATM    9  C16 UNL     1       1.572   1.678  43.050  1.00  0.00     0.053 A 
HETATM   10  C17 UNL     1       2.790   1.983  43.589  1.00  0.00     0.092 A 
HETATM   11  O3  UNL     1       2.872   2.574  44.776  1.00  0.00    -0.274 OA
HETATM   12  C18 UNL     1       3.986   2.884  45.331  1.00  0.00     0.295 A 
HETATM   13  O4  UNL     1       4.006   3.445  46.461  1.00  0.00    -0.259 OA
ENDROOT
BRANCH   3  14
HETATM   14  S1  UNL     1       6.666   1.618  42.650  1.00  0.00    -0.128 SA
BRANCH  14  15
HETATM   15  C4  UNL     1       7.364   2.881  41.615  1.00  0.00     0.079 C 
BRANCH  15  16
HETATM   16  C5  UNL     1       7.073   4.288  41.940  1.00  0.00     0.011 C 
BRANCH  16  17
HETATM   17  C6  UNL     1       8.115   5.084  42.620  1.00  0.00     0.010 C 
BRANCH  17  18
HETATM   18  C7  UNL     1       9.432   4.420  42.851  1.00  0.00     0.117 C 
BRANCH  18  19
HETATM   19  C8  UNL     1       9.898   4.344  44.261  1.00  0.00     0.387 C 
HETATM   20  F1  UNL     1       9.857   2.984  44.612  1.00  0.00    -0.171 F 
HETATM   21  F2  UNL     1      11.214   4.749  44.339  1.00  0.00    -0.171 F 
HETATM   22  F3  UNL     1       9.179   5.017  45.183  1.00  0.00    -0.171 F 
ENDBRANCH  18  19
ENDBRANCH  17  18
ENDBRANCH  16  17
ENDBRANCH  15  16
ENDBRANCH  14  15
ENDBRANCH   3  14
BRANCH   8  23
HETATM   23  C13 UNL     1       0.160   0.756  41.275  1.00  0.00     0.021 C 
HETATM   24  C14 UNL     1      -0.975   0.848  41.889  1.00  0.00     0.085 C 
BRANCH  24  25
HETATM   25  C15 UNL     1      -2.218   0.495  41.178  1.00  0.00     0.198 C 
HETATM   26  O1  UNL     1      -2.947  -0.414  41.648  1.00  0.00    -0.645 OA
HETATM   27  O2  UNL     1      -2.637   1.104  40.017  1.00  0.00    -0.645 OA
ENDBRANCH  24  25
ENDBRANCH   8  23
TORSDOF 8
ENDMDL
MODEL 5
REMARK VINA RESULT: -9.081813258      1.668      2.215
REMARK  8 active torsions:
REMARK  status: ('A' for Active; 'I' for Inactive)
REMARK    1  A    between atoms: C3_3  and  S1_4 
REMARK    2  A    between atoms: S1_4  and  C4_5 
REMARK    3  A    between atoms: C4_5  and  C5_6 
REMARK    4  A    between atoms: C5_6  and  C6_7 
REMARK    5  A    between atoms: C6_7  and  C7_8 
REMARK    6  A    between atoms: C7_8  and  C8_9 
REMARK    7  A    between atoms: C12_17  and  C13_18 
REMARK    8  A    between atoms: C14_19  and  C15_20 
ROOT
HETATM    1  C1  UNL     1       6.158   2.623  45.360  1.00  0.00     0.056 C 
HETATM    2  C2  UNL     1       4.895   2.341  44.657  1.00  0.00     0.031 A 
HETATM    3  C3  UNL     1       4.805   1.699  43.457  1.00  0.00     0.025 A 
HETATM    4  C9  UNL     1       3.555   1.515  42.896  1.00  0.00     0.018 A 
HETATM    5  C10 UNL     1       3.381   0.877  41.687  1.00  0.00     0.058 A 
HETATM    6  C11 UNL     1       2.140   0.691  41.122  1.00  0.00     0.127 A 
HETATM    7  F4  UNL     1       2.087   0.055  39.940  1.00  0.00    -0.205 F 
HETATM    8  C12 UNL     1       0.993   1.128  41.724  1.00  0.00     0.005 A 
HETATM    9  C16 UNL     1       1.154   1.782  42.960  1.00  0.00     0.053 A 
HETATM   10  C17 UNL     1       2.397   1.954  43.500  1.00  0.00     0.092 A 
HETATM   11  O3  UNL     1       2.545   2.572  44.666  1.00  0.00    -0.274 OA
HETATM   12  C18 UNL     1       3.687   2.762  45.220  1.00  0.00     0.295 A 
HETATM   13  O4  UNL     1       3.771   3.356  46.330  1.00  0.00    -0.259 OA
ENDROOT
BRANCH   3  14
HETATM   14  S1  UNL     1       6.203   1.081  42.610  1.00  0.00    -0.128 SA
BRANCH  14  15
HETATM   15  C4  UNL     1       7.122   2.238  41.625  1.00  0.00     0.079 C 
BRANCH  15  16
HETATM   16  C5  UNL     1       7.656   1.781  40.331  1.00  0.00     0.011 C 
BRANCH  16  17
HETATM   17  C6  UNL     1       8.327   2.767  39.458  1.00  0.00     0.010 C 
BRANCH  17  18
HETATM   18  C7  UNL     1       8.038   2.685  37.997  1.00  0.00     0.117 C 
BRANCH  18  19
HETATM   19  C8  UNL     1       8.280   3.919  37.203  1.00  0.00     0.387 C 
HETATM   20  F1  UNL     1       7.288   3.943  36.208  1.00  0.00    -0.171 F 
HETATM   21  F2  UNL     1       8.091   5.030  37.999  1.00  0.00    -0.171 F 
HETATM   22  F3  UNL     1       9.474   4.026  36.581  1.00  0.00    -0.171 F 
ENDBRANCH  18  19
ENDBRANCH  17  18
ENDBRANCH  16  17
ENDBRANCH  15  16
ENDBRANCH  14  15
ENDBRANCH   3  14
BRANCH   8  23
HETATM   23  C13 UNL     1      -0.353   0.978  41.206  1.00  0.00     0.021 C 
HETATM   24  C14 UNL     1      -1.445   1.499  41.662  1.00  0.00     0.085 C 
BRANCH  24  25
HETATM   25  C15 UNL     1      -2.724   1.220  40.983  1.00  0.00     0.198 C 
HETATM   26  O1  UNL     1      -2.705   0.877  39.774  1.00  0.00    -0.645 OA
HETATM   27  O2  UNL     1      -3.954   1.311  41.593  1.00  0.00    -0.645 OA
ENDBRANCH  24  25
ENDBRANCH   8  23
TORSDOF 8
ENDMDL
