MODEL 1
REMARK VINA RESULT: -8.624832016      0.000      0.000
REMARK  4 active torsions:
REMARK  status: ('A' for Active; 'I' for Inactive)
REMARK    1  A    between atoms: C2_3  and  C10_11 
REMARK    2  A    between atoms: C3_4  and  C4_5 
REMARK       I    between atoms: C10_11  and  N2_13 
REMARK    3  A    between atoms: N2_13  and  C11_15 
REMARK    4  A    between atoms: C11_15  and  C12_16 
ROOT
HETATM    1  N1  UNL     1      46.352   1.430  63.721  1.00  0.00    -0.191 NA
HETATM    2  C1  UNL     1      45.263   1.631  63.318  1.00  0.00     0.105 C 
HETATM    3  C2  UNL     1      43.946   1.856  62.796  1.00  0.00     0.113 C 
HETATM    4  C3  UNL     1      42.842   1.793  63.560  1.00  0.00     0.039 C 
ENDROOT
BRANCH   3   5
HETATM    5  C10 UNL     1      43.854   2.161  61.380  1.00  0.00     0.262 C 
HETATM    6  O1  UNL     1      44.905   2.265  60.724  1.00  0.00    -0.267 OA
HETATM    7  N2  UNL     1      42.604   2.333  60.766  1.00  0.00    -0.352 N 
ATOM      8  H2  UNL     1      41.770   2.241  61.345  1.00  0.00     0.163 HD
BRANCH   7   9
HETATM    9  C11 UNL     1      42.427   2.633  59.364  1.00  0.00     0.161 C 
BRANCH   9  10
HETATM   10  C12 UNL     1      41.028   2.586  58.925  1.00  0.00    -0.038 A 
HETATM   11  C13 UNL     1      40.543   3.698  58.243  1.00  0.00     0.025 A 
HETATM   12  C14 UNL     1      39.237   3.739  57.784  1.00  0.00     0.088 A 
HETATM   13  N3  UNL     1      38.435   2.692  57.998  1.00  0.00    -0.375 N 
HETATM   14  C15 UNL     1      38.882   1.594  58.659  1.00  0.00     0.088 A 
ATOM     15  H3  UNL     1      37.472   2.719  57.661  1.00  0.00     0.164 HD
HETATM   16  C16 UNL     1      40.174   1.538  59.123  1.00  0.00     0.025 A 
ENDBRANCH   9  10
ENDBRANCH   7   9
ENDBRANCH   3   5
BRANCH   4  17
HETATM   17  C4  UNL     1      42.969   1.491  64.969  1.00  0.00    -0.035 A 
HETATM   18  C5  UNL     1      43.406   2.385  65.925  1.00  0.00     0.011 A 
HETATM   19  C6  UNL     1      43.531   2.008  67.249  1.00  0.00     0.001 A 
HETATM   20  C7  UNL     1      43.223   0.732  67.668  1.00  0.00     0.000 A 
HETATM   21  C8  UNL     1      42.784  -0.173  66.726  1.00  0.00     0.001 A 
HETATM   22  C9  UNL     1      42.656   0.189  65.405  1.00  0.00     0.011 A 
ENDBRANCH   4  17
TORSDOF 4
ENDMDL
MODEL 2
REMARK VINA RESULT: -8.582492512      0.100      1.056
REMARK  4 active torsions:
REMARK  status: ('A' for Active; 'I' for Inactive)
REMARK    1  A    between atoms: C2_3  and  C10_11 
REMARK    2  A    between atoms: C3_4  and  C4_5 
REMARK       I    between atoms: C10_11  and  N2_13 
REMARK    3  A    between atoms: N2_13  and  C11_15 
REMARK    4  A    between atoms: C11_15  and  C12_16 
ROOT
HETATM    1  N1  UNL     1      46.360   1.431  63.750  1.00  0.00    -0.191 NA
HETATM    2  C1  UNL     1      45.280   1.635  63.323  1.00  0.00     0.105 C 
HETATM    3  C2  UNL     1      43.975   1.864  62.773  1.00  0.00     0.113 C 
HETATM    4  C3  UNL     1      42.854   1.800  63.512  1.00  0.00     0.039 C 
ENDROOT
BRANCH   3   5
HETATM    5  C10 UNL     1      43.915   2.175  61.356  1.00  0.00     0.262 C 
HETATM    6  O1  UNL     1      44.982   2.294  60.727  1.00  0.00    -0.267 OA
HETATM    7  N2  UNL     1      42.679   2.335  60.711  1.00  0.00    -0.352 N 
ATOM      8  H2  UNL     1      41.832   2.230  61.269  1.00  0.00     0.163 HD
BRANCH   7   9
HETATM    9  C11 UNL     1      42.534   2.639  59.307  1.00  0.00     0.161 C 
BRANCH   9  10
HETATM   10  C12 UNL     1      41.138   2.688  58.858  1.00  0.00    -0.038 A 
HETATM   11  C13 UNL     1      40.340   1.589  59.157  1.00  0.00     0.025 A 
HETATM   12  C14 UNL     1      39.007   1.552  58.780  1.00  0.00     0.088 A 
HETATM   13  N3  UNL     1      38.485   2.591  58.120  1.00  0.00    -0.375 N 
HETATM   14  C15 UNL     1      39.240   3.676  57.816  1.00  0.00     0.088 A 
ATOM     15  H3  UNL     1      37.504   2.567  57.840  1.00  0.00     0.164 HD
HETATM   16  C16 UNL     1      40.564   3.729  58.181  1.00  0.00     0.025 A 
ENDBRANCH   9  10
ENDBRANCH   7   9
ENDBRANCH   3   5
BRANCH   4  17
HETATM   17  C4  UNL     1      42.950   1.494  64.923  1.00  0.00    -0.035 A 
HETATM   18  C5  UNL     1      43.387   2.376  65.889  1.00  0.00     0.011 A 
HETATM   19  C6  UNL     1      43.480   1.994  67.213  1.00  0.00     0.001 A 
HETATM   20  C7  UNL     1      43.140   0.723  67.624  1.00  0.00     0.000 A 
HETATM   21  C8  UNL     1      42.700  -0.171  66.672  1.00  0.00     0.001 A 
HETATM   22  C9  UNL     1      42.603   0.197  65.349  1.00  0.00     0.011 A 
ENDBRANCH   4  17
TORSDOF 4
ENDMDL
MODEL 3
REMARK VINA RESULT: -8.523284528      0.076      1.062
REMARK  4 active torsions:
REMARK  status: ('A' for Active; 'I' for Inactive)
REMARK    1  A    between atoms: C2_3  and  C10_11 
REMARK    2  A    between atoms: C3_4  and  C4_5 
REMARK       I    between atoms: C10_11  and  N2_13 
REMARK    3  A    between atoms: N2_13  and  C11_15 
REMARK    4  A    between atoms: C11_15  and  C12_16 
ROOT
HETATM    1  N1  UNL     1      46.343   1.433  63.744  1.00  0.00    -0.191 NA
HETATM    2  C1  UNL     1      45.253   1.616  63.335  1.00  0.00     0.105 C 
HETATM    3  C2  UNL     1      43.934   1.821  62.808  1.00  0.00     0.113 C 
HETATM    4  C3  UNL     1      42.826   1.703  63.558  1.00  0.00     0.039 C 
ENDROOT
BRANCH   3   5
HETATM    5  C10 UNL     1      43.847   2.168  61.401  1.00  0.00     0.262 C 
HETATM    6  O1  UNL     1      44.901   2.313  60.757  1.00  0.00    -0.267 OA
HETATM    7  N2  UNL     1      42.599   2.334  60.782  1.00  0.00    -0.352 N 
ATOM      8  H2  UNL     1      41.762   2.207  61.352  1.00  0.00     0.163 HD
BRANCH   7   9
HETATM    9  C11 UNL     1      42.426   2.674  59.389  1.00  0.00     0.161 C 
BRANCH   9  10
HETATM   10  C12 UNL     1      41.032   2.609  58.936  1.00  0.00    -0.038 A 
HETATM   11  C13 UNL     1      40.547   3.705  58.230  1.00  0.00     0.025 A 
HETATM   12  C14 UNL     1      39.246   3.728  57.756  1.00  0.00     0.088 A 
HETATM   13  N3  UNL     1      38.448   2.679  57.982  1.00  0.00    -0.375 N 
HETATM   14  C15 UNL     1      38.896   1.597  58.666  1.00  0.00     0.088 A 
ATOM     15  H3  UNL     1      37.489   2.693  57.634  1.00  0.00     0.164 HD
HETATM   16  C16 UNL     1      40.183   1.558  59.144  1.00  0.00     0.025 A 
ENDBRANCH   9  10
ENDBRANCH   7   9
ENDBRANCH   3   5
BRANCH   4  17
HETATM   17  C4  UNL     1      42.948   1.361  64.959  1.00  0.00    -0.035 A 
HETATM   18  C5  UNL     1      42.642   0.126  65.494  1.00  0.00     0.011 A 
HETATM   19  C6  UNL     1      42.756  -0.111  66.850  1.00  0.00     0.001 A 
HETATM   20  C7  UNL     1      43.178   0.871  67.721  1.00  0.00     0.000 A 
HETATM   21  C8  UNL     1      43.488   2.109  67.204  1.00  0.00     0.001 A 
HETATM   22  C9  UNL     1      43.379   2.358  65.854  1.00  0.00     0.011 A 
ENDBRANCH   4  17
TORSDOF 4
ENDMDL
MODEL 4
REMARK VINA RESULT: -8.494455977      0.123      1.497
REMARK  4 active torsions:
REMARK  status: ('A' for Active; 'I' for Inactive)
REMARK    1  A    between atoms: C2_3  and  C10_11 
REMARK    2  A    between atoms: C3_4  and  C4_5 
REMARK       I    between atoms: C10_11  and  N2_13 
REMARK    3  A    between atoms: N2_13  and  C11_15 
REMARK    4  A    between atoms: C11_15  and  C12_16 
ROOT
HETATM    1  N1  UNL     1      46.351   1.428  63.758  1.00  0.00    -0.191 NA
HETATM    2  C1  UNL     1      45.270   1.618  63.328  1.00  0.00     0.105 C 
HETATM    3  C2  UNL     1      43.964   1.830  62.775  1.00  0.00     0.113 C 
HETATM    4  C3  UNL     1      42.839   1.717  63.502  1.00  0.00     0.039 C 
ENDROOT
BRANCH   3   5
HETATM    5  C10 UNL     1      43.907   2.180  61.367  1.00  0.00     0.262 C 
HETATM    6  O1  UNL     1      44.974   2.383  60.760  1.00  0.00    -0.267 OA
HETATM    7  N2  UNL     1      42.674   2.283  60.705  1.00  0.00    -0.352 N 
ATOM      8  H2  UNL     1      41.826   2.110  61.245  1.00  0.00     0.163 HD
BRANCH   7   9
HETATM    9  C11 UNL     1      42.532   2.620  59.308  1.00  0.00     0.161 C 
BRANCH   9  10
HETATM   10  C12 UNL     1      41.138   2.680  58.856  1.00  0.00    -0.038 A 
HETATM   11  C13 UNL     1      40.330   1.588  59.156  1.00  0.00     0.025 A 
HETATM   12  C14 UNL     1      38.998   1.560  58.776  1.00  0.00     0.088 A 
HETATM   13  N3  UNL     1      38.485   2.602  58.114  1.00  0.00    -0.375 N 
HETATM   14  C15 UNL     1      39.249   3.681  57.810  1.00  0.00     0.088 A 
ATOM     15  H3  UNL     1      37.504   2.585  57.833  1.00  0.00     0.164 HD
HETATM   16  C16 UNL     1      40.573   3.724  58.177  1.00  0.00     0.025 A 
ENDBRANCH   9  10
ENDBRANCH   7   9
ENDBRANCH   3   5
BRANCH   4  17
HETATM   17  C4  UNL     1      42.931   1.372  64.904  1.00  0.00    -0.035 A 
HETATM   18  C5  UNL     1      42.588   0.146  65.433  1.00  0.00     0.011 A 
HETATM   19  C6  UNL     1      42.674  -0.093  66.792  1.00  0.00     0.001 A 
HETATM   20  C7  UNL     1      43.106   0.878  67.669  1.00  0.00     0.000 A 
HETATM   21  C8  UNL     1      43.453   2.109  67.157  1.00  0.00     0.001 A 
HETATM   22  C9  UNL     1      43.372   2.360  65.806  1.00  0.00     0.011 A 
ENDBRANCH   4  17
TORSDOF 4
ENDMDL
MODEL 5
REMARK VINA RESULT: -8.223241349      2.604      4.416
REMARK  4 active torsions:
REMARK  status: ('A' for Active; 'I' for Inactive)
REMARK    1  A    between atoms: C2_3  and  C10_11 
REMARK    2  A    between atoms: C3_4  and  C4_5 
REMARK       I    between atoms: C10_11  and  N2_13 
REMARK    3  A    between atoms: N2_13  and  C11_15 
REMARK    4  A    between atoms: C11_15  and  C12_16 
ROOT
HETATM    1  N1  UNL     1      40.842   0.095  61.228  1.00  0.00    -0.191 NA
HETATM    2  C1  UNL     1      41.141   1.160  60.821  1.00  0.00     0.105 C 
HETATM    3  C2  UNL     1      41.469   2.466  60.327  1.00  0.00     0.113 C 
HETATM    4  C3  UNL     1      42.536   3.159  60.759  1.00  0.00     0.039 C 
ENDROOT
BRANCH   3   5
HETATM    5  C10 UNL     1      40.580   3.019  59.321  1.00  0.00     0.262 C 
HETATM    6  O1  UNL     1      40.983   3.972  58.630  1.00  0.00    -0.267 OA
HETATM    7  N2  UNL     1      39.296   2.487  59.131  1.00  0.00    -0.352 N 
ATOM      8  H2  UNL     1      39.009   1.707  59.722  1.00  0.00     0.163 HD
BRANCH   7   9
HETATM    9  C11 UNL     1      38.356   2.975  58.149  1.00  0.00     0.161 C 
BRANCH   9  10
HETATM   10  C12 UNL     1      37.082   3.420  58.725  1.00  0.00    -0.038 A 
HETATM   11  C13 UNL     1      36.219   2.431  59.187  1.00  0.00     0.025 A 
HETATM   12  C14 UNL     1      34.999   2.758  59.754  1.00  0.00     0.088 A 
HETATM   13  N3  UNL     1      34.649   4.044  59.859  1.00  0.00    -0.375 N 
HETATM   14  C15 UNL     1      35.472   5.029  59.418  1.00  0.00     0.088 A 
ATOM     15  H3  UNL     1      33.751   4.288  60.276  1.00  0.00     0.164 HD
HETATM   16  C16 UNL     1      36.685   4.722  58.852  1.00  0.00     0.025 A 
ENDBRANCH   9  10
ENDBRANCH   7   9
ENDBRANCH   3   5
BRANCH   4  17
HETATM   17  C4  UNL     1      43.405   2.577  61.759  1.00  0.00    -0.035 A 
HETATM   18  C5  UNL     1      43.000   2.195  63.021  1.00  0.00     0.011 A 
HETATM   19  C6  UNL     1      43.900   1.675  63.932  1.00  0.00     0.001 A 
HETATM   20  C7  UNL     1      45.233   1.517  63.618  1.00  0.00     0.000 A 
HETATM   21  C8  UNL     1      45.654   1.893  62.361  1.00  0.00     0.001 A 
HETATM   22  C9  UNL     1      44.768   2.412  61.445  1.00  0.00     0.011 A 
ENDBRANCH   4  17
TORSDOF 4
ENDMDL
