MODEL 1
REMARK VINA RESULT: -7.973551449      0.000      0.000
REMARK  4 active torsions:
REMARK  status: ('A' for Active; 'I' for Inactive)
REMARK       I    between atoms: C1_2  and  N1_3 
REMARK    1  A    between atoms: C1_2  and  C11_17 
REMARK    2  A    between atoms: N1_3  and  C2_5 
REMARK    3  A    between atoms: C2_5  and  C3_6 
REMARK    4  A    between atoms: C3_6  and  N2_7 
ROOT
HETATM    1  C2  UNL     1      40.846   3.093  61.872  1.00  0.00     0.143 C 
ENDROOT
BRANCH   1   2
HETATM    2  N1  UNL     1      41.380   2.548  63.079  1.00  0.00    -0.355 N 
HETATM    3  C1  UNL     1      41.465   1.161  63.357  1.00  0.00     0.251 C 
HETATM    4  O1  UNL     1      41.055   0.309  62.515  1.00  0.00    -0.268 OA
ATOM      5  H1  UNL     1      41.723   3.198  63.786  1.00  0.00     0.162 HD
BRANCH   3   6
HETATM    6  C11 UNL     1      42.015   0.664  64.597  1.00  0.00     0.032 A 
HETATM    7  C12 UNL     1      41.305  -0.107  65.489  1.00  0.00     0.017 A 
HETATM    8  C13 UNL     1      41.865  -0.567  66.670  1.00  0.00     0.001 A 
HETATM    9  C14 UNL     1      43.162  -0.270  67.003  1.00  0.00     0.000 A 
HETATM   10  C15 UNL     1      43.898   0.502  66.129  1.00  0.00     0.001 A 
HETATM   11  C16 UNL     1      43.330   0.953  64.957  1.00  0.00     0.017 A 
ENDBRANCH   3   6
ENDBRANCH   1   2
BRANCH   1  12
HETATM   12  C3  UNL     1      41.839   3.764  60.966  1.00  0.00     0.149 C 
BRANCH  12  13
HETATM   13  N2  UNL     1      42.758   2.738  60.512  1.00  0.00    -0.340 N 
HETATM   14  C4  UNL     1      42.543   1.963  59.436  1.00  0.00     0.183 A 
HETATM   15  N3  UNL     1      43.556   1.102  59.247  1.00  0.00    -0.350 N 
HETATM   16  C5  UNL     1      44.433   1.351  60.239  1.00  0.00     0.060 A 
ATOM     17  H3  UNL     1      43.644   0.407  58.507  1.00  0.00     0.166 HD
HETATM   18  C6  UNL     1      45.649   0.753  60.519  1.00  0.00     0.032 A 
HETATM   19  C10 UNL     1      43.943   2.376  61.041  1.00  0.00     0.062 A 
HETATM   20  C7  UNL     1      46.368   1.193  61.608  1.00  0.00     0.002 A 
HETATM   21  C8  UNL     1      45.860   2.219  62.396  1.00  0.00     0.002 A 
HETATM   22  C9  UNL     1      44.647   2.824  62.127  1.00  0.00     0.032 A 
ENDBRANCH  12  13
ENDBRANCH   1  12
TORSDOF 4
ENDMDL
MODEL 2
REMARK VINA RESULT: -7.788395620      3.437      6.054
REMARK  4 active torsions:
REMARK  status: ('A' for Active; 'I' for Inactive)
REMARK       I    between atoms: C1_2  and  N1_3 
REMARK    1  A    between atoms: C1_2  and  C11_17 
REMARK    2  A    between atoms: N1_3  and  C2_5 
REMARK    3  A    between atoms: C2_5  and  C3_6 
REMARK    4  A    between atoms: C3_6  and  N2_7 
ROOT
HETATM    1  C2  UNL     1      40.584   3.225  59.545  1.00  0.00     0.143 C 
ENDROOT
BRANCH   1   2
HETATM    2  N1  UNL     1      41.434   2.911  60.648  1.00  0.00    -0.355 N 
HETATM    3  C1  UNL     1      42.782   2.492  60.520  1.00  0.00     0.251 C 
HETATM    4  O1  UNL     1      43.314   2.373  59.377  1.00  0.00    -0.268 OA
ATOM      5  H1  UNL     1      41.047   2.994  61.587  1.00  0.00     0.162 HD
BRANCH   3   6
HETATM    6  C11 UNL     1      43.598   2.186  61.672  1.00  0.00     0.032 A 
HETATM    7  C12 UNL     1      44.974   2.184  61.651  1.00  0.00     0.017 A 
HETATM    8  C13 UNL     1      45.725   1.886  62.777  1.00  0.00     0.001 A 
HETATM    9  C14 UNL     1      45.122   1.578  63.971  1.00  0.00     0.000 A 
HETATM   10  C15 UNL     1      43.745   1.572  64.022  1.00  0.00     0.001 A 
HETATM   11  C16 UNL     1      43.009   1.870  62.896  1.00  0.00     0.017 A 
ENDBRANCH   3   6
ENDBRANCH   1   2
BRANCH   1  12
HETATM   12  C3  UNL     1      39.222   2.591  59.572  1.00  0.00     0.149 C 
BRANCH  12  13
HETATM   13  N2  UNL     1      38.264   3.654  59.809  1.00  0.00    -0.340 N 
HETATM   14  C4  UNL     1      37.565   4.262  58.837  1.00  0.00     0.183 A 
HETATM   15  N3  UNL     1      36.753   5.205  59.341  1.00  0.00    -0.350 N 
HETATM   16  C5  UNL     1      36.954   5.183  60.673  1.00  0.00     0.060 A 
ATOM     17  H3  UNL     1      36.117   5.811  58.824  1.00  0.00     0.166 HD
HETATM   18  C6  UNL     1      36.375   5.948  61.671  1.00  0.00     0.032 A 
HETATM   19  C10 UNL     1      37.902   4.213  60.980  1.00  0.00     0.062 A 
HETATM   20  C7  UNL     1      36.755   5.731  62.976  1.00  0.00     0.002 A 
HETATM   21  C8  UNL     1      37.705   4.756  63.261  1.00  0.00     0.002 A 
HETATM   22  C9  UNL     1      38.290   3.986  62.274  1.00  0.00     0.032 A 
ENDBRANCH  12  13
ENDBRANCH   1  12
TORSDOF 4
ENDMDL
MODEL 3
REMARK VINA RESULT: -7.780695637      1.324      1.719
REMARK  4 active torsions:
REMARK  status: ('A' for Active; 'I' for Inactive)
REMARK       I    between atoms: C1_2  and  N1_3 
REMARK    1  A    between atoms: C1_2  and  C11_17 
REMARK    2  A    between atoms: N1_3  and  C2_5 
REMARK    3  A    between atoms: C2_5  and  C3_6 
REMARK    4  A    between atoms: C3_6  and  N2_7 
ROOT
HETATM    1  C2  UNL     1      42.075   1.505  60.740  1.00  0.00     0.143 C 
ENDROOT
BRANCH   1   2
HETATM    2  N1  UNL     1      42.342   0.920  62.014  1.00  0.00    -0.355 N 
HETATM    3  C1  UNL     1      42.085   1.557  63.254  1.00  0.00     0.251 C 
HETATM    4  O1  UNL     1      41.587   2.721  63.288  1.00  0.00    -0.268 OA
ATOM      5  H1  UNL     1      42.743  -0.018  62.034  1.00  0.00     0.162 HD
BRANCH   3   6
HETATM    6  C11 UNL     1      42.376   0.917  64.515  1.00  0.00     0.032 A 
HETATM    7  C12 UNL     1      41.449   0.197  65.234  1.00  0.00     0.017 A 
HETATM    8  C13 UNL     1      41.763  -0.405  66.442  1.00  0.00     0.001 A 
HETATM    9  C14 UNL     1      43.024  -0.307  66.977  1.00  0.00     0.000 A 
HETATM   10  C15 UNL     1      43.973   0.409  66.279  1.00  0.00     0.001 A 
HETATM   11  C16 UNL     1      43.648   1.003  65.078  1.00  0.00     0.017 A 
ENDBRANCH   3   6
ENDBRANCH   1   2
BRANCH   1  12
HETATM   12  C3  UNL     1      43.203   2.293  60.137  1.00  0.00     0.149 C 
BRANCH  12  13
HETATM   13  N2  UNL     1      44.415   1.525  60.345  1.00  0.00    -0.340 N 
HETATM   14  C4  UNL     1      44.784   0.488  59.576  1.00  0.00     0.183 A 
HETATM   15  N3  UNL     1      45.948  -0.036  59.994  1.00  0.00    -0.350 N 
HETATM   16  C5  UNL     1      46.316   0.701  61.060  1.00  0.00     0.060 A 
ATOM     17  H3  UNL     1      46.449  -0.827  59.589  1.00  0.00     0.166 HD
HETATM   18  C6  UNL     1      47.432   0.594  61.871  1.00  0.00     0.032 A 
HETATM   19  C10 UNL     1      45.360   1.685  61.291  1.00  0.00     0.062 A 
HETATM   20  C7  UNL     1      47.581   1.482  62.912  1.00  0.00     0.002 A 
HETATM   21  C8  UNL     1      46.615   2.458  63.125  1.00  0.00     0.002 A 
HETATM   22  C9  UNL     1      45.496   2.574  62.324  1.00  0.00     0.032 A 
ENDBRANCH  12  13
ENDBRANCH   1  12
TORSDOF 4
ENDMDL
MODEL 4
REMARK VINA RESULT: -7.777968543      3.453      5.995
REMARK  4 active torsions:
REMARK  status: ('A' for Active; 'I' for Inactive)
REMARK       I    between atoms: C1_2  and  N1_3 
REMARK    1  A    between atoms: C1_2  and  C11_17 
REMARK    2  A    between atoms: N1_3  and  C2_5 
REMARK    3  A    between atoms: C2_5  and  C3_6 
REMARK    4  A    between atoms: C3_6  and  N2_7 
ROOT
HETATM    1  C2  UNL     1      40.419   2.959  59.278  1.00  0.00     0.143 C 
ENDROOT
BRANCH   1   2
HETATM    2  N1  UNL     1      41.246   2.678  60.407  1.00  0.00    -0.355 N 
HETATM    3  C1  UNL     1      42.645   2.462  60.336  1.00  0.00     0.251 C 
HETATM    4  O1  UNL     1      43.248   2.510  59.224  1.00  0.00    -0.268 OA
ATOM      5  H1  UNL     1      40.802   2.630  61.324  1.00  0.00     0.162 HD
BRANCH   3   6
HETATM    6  C11 UNL     1      43.434   2.180  61.513  1.00  0.00     0.032 A 
HETATM    7  C12 UNL     1      42.895   1.752  62.704  1.00  0.00     0.017 A 
HETATM    8  C13 UNL     1      43.682   1.490  63.814  1.00  0.00     0.001 A 
HETATM    9  C14 UNL     1      45.045   1.648  63.771  1.00  0.00     0.000 A 
HETATM   10  C15 UNL     1      45.613   2.076  62.590  1.00  0.00     0.001 A 
HETATM   11  C16 UNL     1      44.819   2.333  61.493  1.00  0.00     0.017 A 
ENDBRANCH   3   6
ENDBRANCH   1   2
BRANCH   1  12
HETATM   12  C3  UNL     1      39.018   2.421  59.347  1.00  0.00     0.149 C 
BRANCH  12  13
HETATM   13  N2  UNL     1      38.150   3.539  59.663  1.00  0.00    -0.340 N 
HETATM   14  C4  UNL     1      37.495   4.261  58.739  1.00  0.00     0.183 A 
HETATM   15  N3  UNL     1      36.764   5.232  59.311  1.00  0.00    -0.350 N 
HETATM   16  C5  UNL     1      36.971   5.108  60.637  1.00  0.00     0.060 A 
ATOM     17  H3  UNL     1      36.175   5.918  58.841  1.00  0.00     0.166 HD
HETATM   18  C6  UNL     1      36.461   5.850  61.688  1.00  0.00     0.032 A 
HETATM   19  C10 UNL     1      37.840   4.048  60.870  1.00  0.00     0.062 A 
HETATM   20  C7  UNL     1      36.831   5.519  62.972  1.00  0.00     0.002 A 
HETATM   21  C8  UNL     1      37.701   4.456  63.183  1.00  0.00     0.002 A 
HETATM   22  C9  UNL     1      38.217   3.708  62.143  1.00  0.00     0.032 A 
ENDBRANCH  12  13
ENDBRANCH   1  12
TORSDOF 4
ENDMDL
MODEL 5
REMARK VINA RESULT: -7.762327336      4.131      6.601
REMARK  4 active torsions:
REMARK  status: ('A' for Active; 'I' for Inactive)
REMARK       I    between atoms: C1_2  and  N1_3 
REMARK    1  A    between atoms: C1_2  and  C11_17 
REMARK    2  A    between atoms: N1_3  and  C2_5 
REMARK    3  A    between atoms: C2_5  and  C3_6 
REMARK    4  A    between atoms: C3_6  and  N2_7 
ROOT
HETATM    1  C2  UNL     1      39.965   2.312  58.946  1.00  0.00     0.143 C 
ENDROOT
BRANCH   1   2
HETATM    2  N1  UNL     1      40.810   2.139  60.084  1.00  0.00    -0.355 N 
HETATM    3  C1  UNL     1      42.214   2.335  60.071  1.00  0.00     0.251 C 
HETATM    4  O1  UNL     1      42.805   2.686  59.008  1.00  0.00    -0.268 OA
ATOM      5  H1  UNL     1      40.376   1.856  60.962  1.00  0.00     0.162 HD
BRANCH   3   6
HETATM    6  C11 UNL     1      43.021   2.144  61.254  1.00  0.00     0.032 A 
HETATM    7  C12 UNL     1      42.536   1.618  62.429  1.00  0.00     0.017 A 
HETATM    8  C13 UNL     1      43.340   1.449  63.545  1.00  0.00     0.001 A 
HETATM    9  C14 UNL     1      44.666   1.801  63.524  1.00  0.00     0.000 A 
HETATM   10  C15 UNL     1      45.180   2.332  62.360  1.00  0.00     0.001 A 
HETATM   11  C16 UNL     1      44.371   2.495  61.257  1.00  0.00     0.017 A 
ENDBRANCH   3   6
ENDBRANCH   1   2
BRANCH   1  12
HETATM   12  C3  UNL     1      39.279   3.644  58.842  1.00  0.00     0.149 C 
BRANCH  12  13
HETATM   13  N2  UNL     1      37.857   3.402  58.996  1.00  0.00    -0.340 N 
HETATM   14  C4  UNL     1      37.191   2.431  58.351  1.00  0.00     0.183 A 
HETATM   15  N3  UNL     1      35.889   2.434  58.682  1.00  0.00    -0.350 N 
HETATM   16  C5  UNL     1      35.742   3.443  59.563  1.00  0.00     0.060 A 
ATOM     17  H3  UNL     1      35.164   1.805  58.339  1.00  0.00     0.166 HD
HETATM   18  C6  UNL     1      34.609   3.888  60.221  1.00  0.00     0.032 A 
HETATM   19  C10 UNL     1      36.972   4.059  59.768  1.00  0.00     0.062 A 
HETATM   20  C7  UNL     1      34.720   4.955  61.085  1.00  0.00     0.002 A 
HETATM   21  C8  UNL     1      35.959   5.556  61.275  1.00  0.00     0.002 A 
HETATM   22  C9  UNL     1      37.097   5.121  60.624  1.00  0.00     0.032 A 
ENDBRANCH  12  13
ENDBRANCH   1  12
TORSDOF 4
ENDMDL
