MODEL 1
REMARK VINA RESULT: -7.822382164      0.000      0.000
REMARK  5 active torsions:
REMARK  status: ('A' for Active; 'I' for Inactive)
REMARK    1  A    between atoms: C3_3  and  C6_6 
REMARK    2  A    between atoms: C6_6  and  C7_8 
REMARK    3  A    between atoms: C7_8  and  N1_9 
REMARK       I    between atoms: N1_9  and  C8_11 
REMARK    4  A    between atoms: C8_11  and  C9_13 
REMARK    5  A    between atoms: C10_14  and  C11_15 
ROOT
HETATM    1  C1  UNL     1      37.615   4.212  62.150  1.00  0.00     0.013 C 
HETATM    2  C2  UNL     1      37.148   4.086  61.064  1.00  0.00    -0.100 C 
HETATM    3  C3  UNL     1      36.590   3.928  59.722  1.00  0.00     0.077 C 
HETATM    4  C4  UNL     1      35.469   4.952  59.499  1.00  0.00     0.037 C 
HETATM    5  C5  UNL     1      36.054   2.548  59.506  1.00  0.00     0.037 C 
ENDROOT
BRANCH   3   6
HETATM    6  C6  UNL     1      37.615   4.208  58.684  1.00  0.00     0.164 C 
HETATM    7  O1  UNL     1      37.752   5.313  58.209  1.00  0.00    -0.294 OA
BRANCH   6   8
HETATM    8  C7  UNL     1      38.483   3.093  58.231  1.00  0.00     0.203 C 
BRANCH   8   9
HETATM    9  N1  UNL     1      39.613   2.920  59.098  1.00  0.00    -0.351 N 
HETATM   10  C8  UNL     1      40.843   3.538  58.794  1.00  0.00     0.241 C 
HETATM   11  O2  UNL     1      40.957   4.244  57.763  1.00  0.00    -0.269 OA
ATOM     12  H1  UNL     1      39.526   2.347  59.938  1.00  0.00     0.163 HD
BRANCH  10  13
HETATM   13  C9  UNL     1      41.999   3.374  59.662  1.00  0.00     0.075 C 
HETATM   14  C10 UNL     1      42.646   2.225  59.701  1.00  0.00     0.024 C 
BRANCH  14  15
HETATM   15  C11 UNL     1      43.823   2.045  60.580  1.00  0.00     0.005 A 
HETATM   16  C12 UNL     1      44.105   2.674  61.762  1.00  0.00     0.020 A 
HETATM   17  C13 UNL     1      45.251   2.334  62.380  1.00  0.00     0.015 A 
HETATM   18  C14 UNL     1      46.034   1.394  61.779  1.00  0.00    -0.021 A 
HETATM   19  C15 UNL     1      47.345   0.840  62.248  1.00  0.00     0.056 C 
HETATM   20  S1  UNL     1      45.160   1.003  60.370  1.00  0.00    -0.095 SA
ENDBRANCH  14  15
ENDBRANCH  10  13
ENDBRANCH   8   9
ENDBRANCH   6   8
ENDBRANCH   3   6
TORSDOF 5
ENDMDL
MODEL 2
REMARK VINA RESULT: -7.675851052      1.258      1.798
REMARK  5 active torsions:
REMARK  status: ('A' for Active; 'I' for Inactive)
REMARK    1  A    between atoms: C3_3  and  C6_6 
REMARK    2  A    between atoms: C6_6  and  C7_8 
REMARK    3  A    between atoms: C7_8  and  N1_9 
REMARK       I    between atoms: N1_9  and  C8_11 
REMARK    4  A    between atoms: C8_11  and  C9_13 
REMARK    5  A    between atoms: C10_14  and  C11_15 
ROOT
HETATM    1  C1  UNL     1      34.773   2.471  59.995  1.00  0.00     0.013 C 
HETATM    2  C2  UNL     1      35.472   3.429  59.913  1.00  0.00    -0.100 C 
HETATM    3  C3  UNL     1      36.344   4.597  59.807  1.00  0.00     0.077 C 
HETATM    4  C4  UNL     1      36.067   5.563  60.966  1.00  0.00     0.037 C 
HETATM    5  C5  UNL     1      36.155   5.311  58.506  1.00  0.00     0.037 C 
ENDROOT
BRANCH   3   6
HETATM    6  C6  UNL     1      37.772   4.206  59.931  1.00  0.00     0.164 C 
HETATM    7  O1  UNL     1      38.403   4.419  60.942  1.00  0.00    -0.294 OA
BRANCH   6   8
HETATM    8  C7  UNL     1      38.424   3.540  58.777  1.00  0.00     0.203 C 
BRANCH   8   9
HETATM    9  N1  UNL     1      39.665   2.926  59.155  1.00  0.00    -0.351 N 
HETATM   10  C8  UNL     1      40.879   3.381  58.600  1.00  0.00     0.241 C 
HETATM   11  O2  UNL     1      40.882   4.323  57.772  1.00  0.00    -0.269 OA
ATOM     12  H1  UNL     1      39.669   2.160  59.828  1.00  0.00     0.163 HD
BRANCH  10  13
HETATM   13  C9  UNL     1      42.146   2.771  58.972  1.00  0.00     0.075 C 
HETATM   14  C10 UNL     1      42.533   2.753  60.234  1.00  0.00     0.024 C 
BRANCH  14  15
HETATM   15  C11 UNL     1      43.821   2.135  60.625  1.00  0.00     0.005 A 
HETATM   16  C12 UNL     1      44.515   1.143  59.990  1.00  0.00     0.020 A 
HETATM   17  C13 UNL     1      45.673   0.750  60.549  1.00  0.00     0.015 A 
HETATM   18  C14 UNL     1      46.058   1.371  61.700  1.00  0.00    -0.021 A 
HETATM   19  C15 UNL     1      47.290   1.129  62.519  1.00  0.00     0.056 C 
HETATM   20  S1  UNL     1      44.802   2.488  61.977  1.00  0.00    -0.095 SA
ENDBRANCH  14  15
ENDBRANCH  10  13
ENDBRANCH   8   9
ENDBRANCH   6   8
ENDBRANCH   3   6
TORSDOF 5
ENDMDL
MODEL 3
REMARK VINA RESULT: -7.653040551      1.213      1.380
REMARK  5 active torsions:
REMARK  status: ('A' for Active; 'I' for Inactive)
REMARK    1  A    between atoms: C3_3  and  C6_6 
REMARK    2  A    between atoms: C6_6  and  C7_8 
REMARK    3  A    between atoms: C7_8  and  N1_9 
REMARK       I    between atoms: N1_9  and  C8_11 
REMARK    4  A    between atoms: C8_11  and  C9_13 
REMARK    5  A    between atoms: C10_14  and  C11_15 
ROOT
HETATM    1  C1  UNL     1      35.197   4.428  61.879  1.00  0.00     0.013 C 
HETATM    2  C2  UNL     1      35.675   4.222  60.811  1.00  0.00    -0.100 C 
HETATM    3  C3  UNL     1      36.277   3.963  59.504  1.00  0.00     0.077 C 
HETATM    4  C4  UNL     1      35.899   5.082  58.524  1.00  0.00     0.037 C 
HETATM    5  C5  UNL     1      35.843   2.645  58.947  1.00  0.00     0.037 C 
ENDROOT
BRANCH   3   6
HETATM    6  C6  UNL     1      37.761   3.977  59.591  1.00  0.00     0.164 C 
HETATM    7  O1  UNL     1      38.335   4.400  60.569  1.00  0.00    -0.294 OA
BRANCH   6   8
HETATM    8  C7  UNL     1      38.540   3.455  58.441  1.00  0.00     0.203 C 
BRANCH   8   9
HETATM    9  N1  UNL     1      39.766   2.845  58.870  1.00  0.00    -0.351 N 
HETATM   10  C8  UNL     1      41.005   3.383  58.466  1.00  0.00     0.241 C 
HETATM   11  O2  UNL     1      41.043   4.398  57.730  1.00  0.00    -0.269 OA
ATOM     12  H1  UNL     1      39.741   2.020  59.469  1.00  0.00     0.163 HD
BRANCH  10  13
HETATM   13  C9  UNL     1      42.258   2.778  58.891  1.00  0.00     0.075 C 
HETATM   14  C10 UNL     1      42.595   2.769  60.167  1.00  0.00     0.024 C 
BRANCH  14  15
HETATM   15  C11 UNL     1      43.867   2.156  60.612  1.00  0.00     0.005 A 
HETATM   16  C12 UNL     1      44.550   1.112  60.050  1.00  0.00     0.020 A 
HETATM   17  C13 UNL     1      45.695   0.736  60.647  1.00  0.00     0.015 A 
HETATM   18  C14 UNL     1      46.080   1.425  61.759  1.00  0.00    -0.021 A 
HETATM   19  C15 UNL     1      47.299   1.215  62.606  1.00  0.00     0.056 C 
HETATM   20  S1  UNL     1      44.842   2.579  61.949  1.00  0.00    -0.095 SA
ENDBRANCH  14  15
ENDBRANCH  10  13
ENDBRANCH   8   9
ENDBRANCH   6   8
ENDBRANCH   3   6
TORSDOF 5
ENDMDL
MODEL 4
REMARK VINA RESULT: -7.651870195      1.022      1.217
REMARK  5 active torsions:
REMARK  status: ('A' for Active; 'I' for Inactive)
REMARK    1  A    between atoms: C3_3  and  C6_6 
REMARK    2  A    between atoms: C6_6  and  C7_8 
REMARK    3  A    between atoms: C7_8  and  N1_9 
REMARK       I    between atoms: N1_9  and  C8_11 
REMARK    4  A    between atoms: C8_11  and  C9_13 
REMARK    5  A    between atoms: C10_14  and  C11_15 
ROOT
HETATM    1  C1  UNL     1      39.343   4.049  61.999  1.00  0.00     0.013 C 
HETATM    2  C2  UNL     1      38.431   4.000  61.239  1.00  0.00    -0.100 C 
HETATM    3  C3  UNL     1      37.320   3.935  60.291  1.00  0.00     0.077 C 
HETATM    4  C4  UNL     1      36.320   5.062  60.581  1.00  0.00     0.037 C 
HETATM    5  C5  UNL     1      36.617   2.616  60.354  1.00  0.00     0.037 C 
ENDROOT
BRANCH   3   6
HETATM    6  C6  UNL     1      37.794   4.155  58.900  1.00  0.00     0.164 C 
HETATM    7  O1  UNL     1      37.725   5.241  58.371  1.00  0.00    -0.294 OA
BRANCH   6   8
HETATM    8  C7  UNL     1      38.363   3.003  58.159  1.00  0.00     0.203 C 
BRANCH   8   9
HETATM    9  N1  UNL     1      39.651   2.630  58.672  1.00  0.00    -0.351 N 
HETATM   10  C8  UNL     1      40.794   3.381  58.333  1.00  0.00     0.241 C 
HETATM   11  O2  UNL     1      40.695   4.380  57.581  1.00  0.00    -0.269 OA
ATOM     12  H1  UNL     1      39.738   1.818  59.284  1.00  0.00     0.163 HD
BRANCH  10  13
HETATM   13  C9  UNL     1      42.107   3.017  58.845  1.00  0.00     0.075 C 
HETATM   14  C10 UNL     1      42.218   2.282  59.935  1.00  0.00     0.024 C 
BRANCH  14  15
HETATM   15  C11 UNL     1      43.548   1.905  60.465  1.00  0.00     0.005 A 
HETATM   16  C12 UNL     1      44.456   1.028  59.938  1.00  0.00     0.020 A 
HETATM   17  C13 UNL     1      45.605   0.856  60.615  1.00  0.00     0.015 A 
HETATM   18  C14 UNL     1      45.770   1.567  61.766  1.00  0.00    -0.021 A 
HETATM   19  C15 UNL     1      46.942   1.563  62.700  1.00  0.00     0.056 C 
HETATM   20  S1  UNL     1      44.324   2.460  61.881  1.00  0.00    -0.095 SA
ENDBRANCH  14  15
ENDBRANCH  10  13
ENDBRANCH   8   9
ENDBRANCH   6   8
ENDBRANCH   3   6
TORSDOF 5
ENDMDL
MODEL 5
REMARK VINA RESULT: -7.594848799      1.349      1.570
REMARK  5 active torsions:
REMARK  status: ('A' for Active; 'I' for Inactive)
REMARK    1  A    between atoms: C3_3  and  C6_6 
REMARK    2  A    between atoms: C6_6  and  C7_8 
REMARK    3  A    between atoms: C7_8  and  N1_9 
REMARK       I    between atoms: N1_9  and  C8_11 
REMARK    4  A    between atoms: C8_11  and  C9_13 
REMARK    5  A    between atoms: C10_14  and  C11_15 
ROOT
HETATM    1  C1  UNL     1      37.903   4.071  61.927  1.00  0.00     0.013 C 
HETATM    2  C2  UNL     1      37.362   4.004  60.871  1.00  0.00    -0.100 C 
HETATM    3  C3  UNL     1      36.712   3.921  59.564  1.00  0.00     0.077 C 
HETATM    4  C4  UNL     1      35.510   4.873  59.517  1.00  0.00     0.037 C 
HETATM    5  C5  UNL     1      36.258   2.529  59.261  1.00  0.00     0.037 C 
ENDROOT
BRANCH   3   6
HETATM    6  C6  UNL     1      37.631   4.366  58.484  1.00  0.00     0.164 C 
HETATM    7  O1  UNL     1      37.655   5.516  58.106  1.00  0.00    -0.294 OA
BRANCH   6   8
HETATM    8  C7  UNL     1      38.534   3.363  57.868  1.00  0.00     0.203 C 
BRANCH   8   9
HETATM    9  N1  UNL     1      39.555   2.940  58.784  1.00  0.00    -0.351 N 
HETATM   10  C8  UNL     1      40.858   3.470  58.688  1.00  0.00     0.241 C 
HETATM   11  O2  UNL     1      41.133   4.315  57.803  1.00  0.00    -0.269 OA
ATOM     12  H1  UNL     1      39.337   2.254  59.506  1.00  0.00     0.163 HD
BRANCH  10  13
HETATM   13  C9  UNL     1      41.904   3.053  59.609  1.00  0.00     0.075 C 
HETATM   14  C10 UNL     1      41.665   2.982  60.905  1.00  0.00     0.024 C 
BRANCH  14  15
HETATM   15  C11 UNL     1      42.722   2.559  61.851  1.00  0.00     0.005 A 
HETATM   16  C12 UNL     1      44.078   2.575  61.673  1.00  0.00     0.020 A 
HETATM   17  C13 UNL     1      44.835   2.135  62.693  1.00  0.00     0.015 A 
HETATM   18  C14 UNL     1      44.191   1.710  63.817  1.00  0.00    -0.021 A 
HETATM   19  C15 UNL     1      44.788   1.178  65.085  1.00  0.00     0.056 C 
HETATM   20  S1  UNL     1      42.547   1.934  63.430  1.00  0.00    -0.095 SA
ENDBRANCH  14  15
ENDBRANCH  10  13
ENDBRANCH   8   9
ENDBRANCH   6   8
ENDBRANCH   3   6
TORSDOF 5
ENDMDL
