MODEL 1
REMARK VINA RESULT: -7.736428064      0.000      0.000
REMARK  5 active torsions:
REMARK  status: ('A' for Active; 'I' for Inactive)
REMARK    1  A    between atoms: C9_9  and  C10_10 
REMARK    2  A    between atoms: C10_10  and  C11_11 
REMARK    3  A    between atoms: C11_11  and  C12_12 
REMARK    4  A    between atoms: C12_12  and  C13_13 
REMARK    5  A    between atoms: C13_13  and  O1_14 
ROOT
HETATM    1  C1  UNL     1      43.507   3.058  66.433  1.00  0.00     0.016 C 
HETATM    2  C2  UNL     1      43.219   1.608  66.518  1.00  0.00    -0.033 C 
HETATM    3  C3  UNL     1      43.084   1.161  67.958  1.00  0.00     0.016 C 
HETATM    4  C4  UNL     1      44.065   0.670  65.729  1.00  0.00     0.064 C 
HETATM    5  C5  UNL     1      42.776  -0.087  65.400  1.00  0.00     0.018 C 
HETATM    6  C6  UNL     1      42.048   1.137  65.636  1.00  0.00    -0.000 C 
HETATM    7  C7  UNL     1      41.835   2.142  64.612  1.00  0.00     0.004 A 
HETATM    8  C8  UNL     1      42.671   2.331  63.480  1.00  0.00     0.010 A 
HETATM    9  C9  UNL     1      43.874   1.520  63.216  1.00  0.00     0.061 C 
HETATM   10  C14 UNL     1      44.612   1.238  64.464  1.00  0.00     0.136 C 
HETATM   11  O2  UNL     1      45.811   1.481  64.513  1.00  0.00    -0.297 OA
HETATM   12  C15 UNL     1      41.282   1.865  63.233  1.00  0.00    -0.038 A 
HETATM   13  C16 UNL     1      40.288   2.880  62.636  1.00  0.00     0.015 C 
HETATM   14  C17 UNL     1      40.940   0.460  62.850  1.00  0.00     0.015 C 
ENDROOT
BRANCH   9  15
HETATM   15  C10 UNL     1      44.781   2.095  62.179  1.00  0.00     0.013 C 
BRANCH  15  16
HETATM   16  C11 UNL     1      44.223   2.358  60.842  1.00  0.00     0.003 C 
BRANCH  16  17
HETATM   17  C12 UNL     1      44.192   1.036  60.072  1.00  0.00     0.026 C 
BRANCH  17  18
HETATM   18  C13 UNL     1      45.552   0.437  59.875  1.00  0.00     0.164 C 
BRANCH  18  19
HETATM   19  O1  UNL     1      45.941   0.800  58.561  1.00  0.00    -0.401 OA
ATOM     20  H1  UNL     1      46.453   1.594  58.656  1.00  0.00     0.209 HD
ENDBRANCH  18  19
ENDBRANCH  17  18
ENDBRANCH  16  17
ENDBRANCH  15  16
ENDBRANCH   9  15
TORSDOF 5
ENDMDL
MODEL 2
REMARK VINA RESULT: -7.727906426      3.157      4.802
REMARK  5 active torsions:
REMARK  status: ('A' for Active; 'I' for Inactive)
REMARK    1  A    between atoms: C9_9  and  C10_10 
REMARK    2  A    between atoms: C10_10  and  C11_11 
REMARK    3  A    between atoms: C11_11  and  C12_12 
REMARK    4  A    between atoms: C12_12  and  C13_13 
REMARK    5  A    between atoms: C13_13  and  O1_14 
ROOT
HETATM    1  C1  UNL     1      40.545   0.109  62.170  1.00  0.00     0.016 C 
HETATM    2  C2  UNL     1      41.134   0.834  63.319  1.00  0.00    -0.033 C 
HETATM    3  C3  UNL     1      40.769   0.169  64.629  1.00  0.00     0.016 C 
HETATM    4  C4  UNL     1      40.963   2.312  63.387  1.00  0.00     0.064 C 
HETATM    5  C5  UNL     1      42.418   2.377  63.855  1.00  0.00     0.018 C 
HETATM    6  C6  UNL     1      42.642   1.114  63.193  1.00  0.00    -0.000 C 
HETATM    7  C7  UNL     1      42.995   1.006  61.790  1.00  0.00     0.004 A 
HETATM    8  C8  UNL     1      42.686   1.979  60.803  1.00  0.00     0.010 A 
HETATM    9  C9  UNL     1      41.953   3.226  61.094  1.00  0.00     0.061 C 
HETATM   10  C14 UNL     1      40.864   2.990  62.064  1.00  0.00     0.136 C 
HETATM   11  O2  UNL     1      39.735   3.377  61.794  1.00  0.00    -0.297 OA
HETATM   12  C15 UNL     1      44.120   1.763  61.123  1.00  0.00    -0.038 A 
HETATM   13  C16 UNL     1      44.976   1.015  60.081  1.00  0.00     0.015 C 
HETATM   14  C17 UNL     1      44.938   2.721  61.930  1.00  0.00     0.015 C 
ENDROOT
BRANCH   9  15
HETATM   15  C10 UNL     1      41.444   3.930  59.881  1.00  0.00     0.013 C 
BRANCH  15  16
HETATM   16  C11 UNL     1      41.373   3.172  58.620  1.00  0.00     0.003 C 
BRANCH  16  17
HETATM   17  C12 UNL     1      39.969   2.575  58.503  1.00  0.00     0.026 C 
BRANCH  17  18
HETATM   18  C13 UNL     1      38.933   3.581  58.105  1.00  0.00     0.164 C 
BRANCH  18  19
HETATM   19  O1  UNL     1      39.241   3.938  56.769  1.00  0.00    -0.401 OA
ATOM     20  H1  UNL     1      38.753   4.735  56.597  1.00  0.00     0.209 HD
ENDBRANCH  18  19
ENDBRANCH  17  18
ENDBRANCH  16  17
ENDBRANCH  15  16
ENDBRANCH   9  15
TORSDOF 5
ENDMDL
MODEL 3
REMARK VINA RESULT: -7.608028007      1.060      1.245
REMARK  5 active torsions:
REMARK  status: ('A' for Active; 'I' for Inactive)
REMARK    1  A    between atoms: C9_9  and  C10_10 
REMARK    2  A    between atoms: C10_10  and  C11_11 
REMARK    3  A    between atoms: C11_11  and  C12_12 
REMARK    4  A    between atoms: C12_12  and  C13_13 
REMARK    5  A    between atoms: C13_13  and  O1_14 
ROOT
HETATM    1  C1  UNL     1      43.524   3.087  66.479  1.00  0.00     0.016 C 
HETATM    2  C2  UNL     1      43.271   1.633  66.602  1.00  0.00    -0.033 C 
HETATM    3  C3  UNL     1      43.186   1.215  68.054  1.00  0.00     0.016 C 
HETATM    4  C4  UNL     1      44.116   0.697  65.809  1.00  0.00     0.064 C 
HETATM    5  C5  UNL     1      42.837  -0.094  65.533  1.00  0.00     0.018 C 
HETATM    6  C6  UNL     1      42.088   1.117  65.763  1.00  0.00    -0.000 C 
HETATM    7  C7  UNL     1      41.824   2.096  64.725  1.00  0.00     0.004 A 
HETATM    8  C8  UNL     1      42.624   2.279  63.566  1.00  0.00     0.010 A 
HETATM    9  C9  UNL     1      43.838   1.489  63.285  1.00  0.00     0.061 C 
HETATM   10  C14 UNL     1      44.616   1.250  64.518  1.00  0.00     0.136 C 
HETATM   11  O2  UNL     1      45.809   1.520  64.529  1.00  0.00    -0.297 OA
HETATM   12  C15 UNL     1      41.241   1.777  63.367  1.00  0.00    -0.038 A 
HETATM   13  C16 UNL     1      40.208   2.757  62.777  1.00  0.00     0.015 C 
HETATM   14  C17 UNL     1      40.920   0.357  63.023  1.00  0.00     0.015 C 
ENDROOT
BRANCH   9  15
HETATM   15  C10 UNL     1      44.703   2.062  62.212  1.00  0.00     0.013 C 
BRANCH  15  16
HETATM   16  C11 UNL     1      44.053   2.829  61.137  1.00  0.00     0.003 C 
BRANCH  16  17
HETATM   17  C12 UNL     1      43.598   1.843  60.058  1.00  0.00     0.026 C 
BRANCH  17  18
HETATM   18  C13 UNL     1      42.343   2.271  59.361  1.00  0.00     0.164 C 
BRANCH  18  19
HETATM   19  O1  UNL     1      42.743   2.654  58.056  1.00  0.00    -0.401 OA
ATOM     20  H1  UNL     1      41.945   2.679  57.541  1.00  0.00     0.209 HD
ENDBRANCH  18  19
ENDBRANCH  17  18
ENDBRANCH  16  17
ENDBRANCH  15  16
ENDBRANCH   9  15
TORSDOF 5
ENDMDL
MODEL 4
REMARK VINA RESULT: -7.575064412      1.892      4.287
REMARK  5 active torsions:
REMARK  status: ('A' for Active; 'I' for Inactive)
REMARK    1  A    between atoms: C9_9  and  C10_10 
REMARK    2  A    between atoms: C10_10  and  C11_11 
REMARK    3  A    between atoms: C11_11  and  C12_12 
REMARK    4  A    between atoms: C12_12  and  C13_13 
REMARK    5  A    between atoms: C13_13  and  O1_14 
ROOT
HETATM    1  C1  UNL     1      41.343   0.289  61.222  1.00  0.00     0.016 C 
HETATM    2  C2  UNL     1      40.725   1.534  61.733  1.00  0.00    -0.033 C 
HETATM    3  C3  UNL     1      39.250   1.590  61.395  1.00  0.00     0.016 C 
HETATM    4  C4  UNL     1      41.403   2.829  61.449  1.00  0.00     0.064 C 
HETATM    5  C5  UNL     1      41.063   3.228  62.886  1.00  0.00     0.018 C 
HETATM    6  C6  UNL     1      41.007   1.825  63.217  1.00  0.00    -0.000 C 
HETATM    7  C7  UNL     1      42.175   1.055  63.603  1.00  0.00     0.004 A 
HETATM    8  C8  UNL     1      43.509   1.376  63.240  1.00  0.00     0.010 A 
HETATM    9  C9  UNL     1      43.866   2.542  62.410  1.00  0.00     0.061 C 
HETATM   10  C14 UNL     1      42.885   2.743  61.323  1.00  0.00     0.136 C 
HETATM   11  O2  UNL     1      43.288   2.857  60.173  1.00  0.00    -0.297 OA
HETATM   12  C15 UNL     1      43.156   1.457  64.680  1.00  0.00    -0.038 A 
HETATM   13  C16 UNL     1      43.701   0.355  65.609  1.00  0.00     0.015 C 
HETATM   14  C17 UNL     1      42.956   2.749  65.408  1.00  0.00     0.015 C 
ENDROOT
BRANCH   9  15
HETATM   15  C10 UNL     1      45.257   2.502  61.871  1.00  0.00     0.013 C 
BRANCH  15  16
HETATM   16  C11 UNL     1      45.874   1.184  61.643  1.00  0.00     0.003 C 
BRANCH  16  17
HETATM   17  C12 UNL     1      47.084   1.060  62.572  1.00  0.00     0.026 C 
BRANCH  17  18
HETATM   18  C13 UNL     1      47.687   2.384  62.932  1.00  0.00     0.164 C 
BRANCH  18  19
HETATM   19  O1  UNL     1      49.089   2.176  62.935  1.00  0.00    -0.401 OA
ATOM     20  H1  UNL     1      49.475   3.037  63.049  1.00  0.00     0.209 HD
ENDBRANCH  18  19
ENDBRANCH  17  18
ENDBRANCH  16  17
ENDBRANCH  15  16
ENDBRANCH   9  15
TORSDOF 5
ENDMDL
MODEL 5
REMARK VINA RESULT: -7.472838169      2.174      5.791
REMARK  5 active torsions:
REMARK  status: ('A' for Active; 'I' for Inactive)
REMARK    1  A    between atoms: C9_9  and  C10_10 
REMARK    2  A    between atoms: C10_10  and  C11_11 
REMARK    3  A    between atoms: C11_11  and  C12_12 
REMARK    4  A    between atoms: C12_12  and  C13_13 
REMARK    5  A    between atoms: C13_13  and  O1_14 
ROOT
HETATM    1  C1  UNL     1      42.327   3.797  61.035  1.00  0.00     0.016 C 
HETATM    2  C2  UNL     1      42.583   2.548  60.281  1.00  0.00    -0.033 C 
HETATM    3  C3  UNL     1      42.035   2.638  58.873  1.00  0.00     0.016 C 
HETATM    4  C4  UNL     1      42.237   1.250  60.923  1.00  0.00     0.064 C 
HETATM    5  C5  UNL     1      43.549   0.710  60.351  1.00  0.00     0.018 C 
HETATM    6  C6  UNL     1      44.044   2.065  60.322  1.00  0.00    -0.000 C 
HETATM    7  C7  UNL     1      44.686   2.699  61.458  1.00  0.00     0.004 A 
HETATM    8  C8  UNL     1      44.479   2.328  62.813  1.00  0.00     0.010 A 
HETATM    9  C9  UNL     1      43.567   1.246  63.227  1.00  0.00     0.061 C 
HETATM   10  C14 UNL     1      42.335   1.244  62.411  1.00  0.00     0.136 C 
HETATM   11  O2  UNL     1      41.249   1.238  62.975  1.00  0.00    -0.297 OA
HETATM   12  C15 UNL     1      45.832   2.104  62.244  1.00  0.00    -0.038 A 
HETATM   13  C16 UNL     1      46.961   3.048  62.702  1.00  0.00     0.015 C 
HETATM   14  C17 UNL     1      46.355   0.753  61.868  1.00  0.00     0.015 C 
ENDROOT
BRANCH   9  15
HETATM   15  C10 UNL     1      43.240   1.248  64.683  1.00  0.00     0.013 C 
BRANCH  15  16
HETATM   16  C11 UNL     1      44.351   1.121  65.641  1.00  0.00     0.003 C 
BRANCH  16  17
HETATM   17  C12 UNL     1      43.946   1.833  66.934  1.00  0.00     0.026 C 
BRANCH  17  18
HETATM   18  C13 UNL     1      43.669   0.888  68.064  1.00  0.00     0.164 C 
BRANCH  18  19
HETATM   19  O1  UNL     1      44.522  -0.223  67.850  1.00  0.00    -0.401 OA
ATOM     20  H1  UNL     1      44.412  -0.459  66.937  1.00  0.00     0.209 HD
ENDBRANCH  18  19
ENDBRANCH  17  18
ENDBRANCH  16  17
ENDBRANCH  15  16
ENDBRANCH   9  15
TORSDOF 5
ENDMDL
