MODEL 1
REMARK VINA RESULT: -8.952627495      0.000      0.000
REMARK  4 active torsions:
REMARK  status: ('A' for Active; 'I' for Inactive)
REMARK    1  A    between atoms: C5_6  and  C6_7 
REMARK    2  A    between atoms: C6_7  and  C7_9 
REMARK    3  A    between atoms: C8_10  and  C9_11 
REMARK    4  A    between atoms: C8_10  and  C10_14 
ROOT
HETATM    1  N1  UNL     1      36.343   4.508  58.174  1.00  0.00    -0.191 NA
HETATM    2  C1  UNL     1      37.382   4.152  58.536  1.00  0.00     0.099 C 
HETATM    3  C2  UNL     1      38.684   3.707  58.966  1.00  0.00     0.044 A 
HETATM    4  C3  UNL     1      39.748   3.669  58.097  1.00  0.00     0.023 A 
HETATM    5  C4  UNL     1      41.017   3.240  58.502  1.00  0.00     0.017 A 
HETATM    6  C5  UNL     1      41.246   2.841  59.787  1.00  0.00     0.014 A 
HETATM    7  C16 UNL     1      40.166   2.885  60.654  1.00  0.00     0.017 A 
HETATM    8  C17 UNL     1      38.915   3.305  60.262  1.00  0.00     0.023 A 
ENDROOT
BRANCH   6   9
HETATM    9  C6  UNL     1      42.558   2.371  60.301  1.00  0.00     0.183 C 
HETATM   10  O1  UNL     1      43.480   2.321  59.454  1.00  0.00    -0.288 OA
BRANCH   9  11
HETATM   11  C7  UNL     1      42.735   2.010  61.654  1.00  0.00     0.074 C 
HETATM   12  C8  UNL     1      43.774   1.849  62.417  1.00  0.00     0.054 C 
BRANCH  12  13
HETATM   13  C9  UNL     1      45.156   2.020  62.033  1.00  0.00     0.210 C 
HETATM   14  O2  UNL     1      45.844   3.069  62.190  1.00  0.00    -0.644 OA
HETATM   15  O3  UNL     1      45.935   1.010  61.410  1.00  0.00    -0.644 OA
ENDBRANCH  12  13
BRANCH  12  16
HETATM   16  C10 UNL     1      43.542   1.355  63.821  1.00  0.00    -0.019 A 
HETATM   17  C11 UNL     1      44.507   1.333  64.780  1.00  0.00     0.012 A 
HETATM   18  C12 UNL     1      44.281   0.778  66.051  1.00  0.00     0.001 A 
HETATM   19  C13 UNL     1      43.067   0.233  66.382  1.00  0.00     0.000 A 
HETATM   20  C14 UNL     1      42.094   0.258  65.416  1.00  0.00     0.001 A 
HETATM   21  C15 UNL     1      42.312   0.806  64.147  1.00  0.00     0.012 A 
ENDBRANCH  12  16
ENDBRANCH   9  11
ENDBRANCH   6   9
TORSDOF 4
ENDMDL
MODEL 2
REMARK VINA RESULT: -8.657667020      1.944      2.653
REMARK  4 active torsions:
REMARK  status: ('A' for Active; 'I' for Inactive)
REMARK    1  A    between atoms: C5_6  and  C6_7 
REMARK    2  A    between atoms: C6_7  and  C7_9 
REMARK    3  A    between atoms: C8_10  and  C9_11 
REMARK    4  A    between atoms: C8_10  and  C10_14 
ROOT
HETATM    1  N1  UNL     1      33.953   4.444  61.501  1.00  0.00    -0.191 NA
HETATM    2  C1  UNL     1      35.099   4.294  61.491  1.00  0.00     0.099 C 
HETATM    3  C2  UNL     1      36.526   4.092  61.462  1.00  0.00     0.044 A 
HETATM    4  C3  UNL     1      37.127   3.394  60.441  1.00  0.00     0.023 A 
HETATM    5  C4  UNL     1      38.511   3.190  60.401  1.00  0.00     0.017 A 
HETATM    6  C5  UNL     1      39.322   3.684  61.382  1.00  0.00     0.014 A 
HETATM    7  C16 UNL     1      38.705   4.386  62.404  1.00  0.00     0.017 A 
HETATM    8  C17 UNL     1      37.344   4.589  62.450  1.00  0.00     0.023 A 
ENDROOT
BRANCH   6   9
HETATM    9  C6  UNL     1      40.798   3.515  61.418  1.00  0.00     0.183 C 
HETATM   10  O1  UNL     1      41.424   4.062  60.481  1.00  0.00    -0.288 OA
BRANCH   9  11
HETATM   11  C7  UNL     1      41.433   2.786  62.446  1.00  0.00     0.074 C 
HETATM   12  C8  UNL     1      42.557   2.141  62.534  1.00  0.00     0.054 C 
BRANCH  12  13
HETATM   13  C9  UNL     1      43.547   1.995  61.492  1.00  0.00     0.210 C 
HETATM   14  O2  UNL     1      43.597   1.058  60.645  1.00  0.00    -0.644 OA
HETATM   15  O3  UNL     1      44.618   2.903  61.286  1.00  0.00    -0.644 OA
ENDBRANCH  12  13
BRANCH  12  16
HETATM   16  C10 UNL     1      42.839   1.395  63.812  1.00  0.00    -0.019 A 
HETATM   17  C11 UNL     1      41.903   0.671  64.483  1.00  0.00     0.012 A 
HETATM   18  C12 UNL     1      42.176   0.066  65.721  1.00  0.00     0.001 A 
HETATM   19  C13 UNL     1      43.410   0.178  66.309  1.00  0.00     0.000 A 
HETATM   20  C14 UNL     1      44.354   0.905  65.631  1.00  0.00     0.001 A 
HETATM   21  C15 UNL     1      44.089   1.514  64.399  1.00  0.00     0.012 A 
ENDBRANCH  12  16
ENDBRANCH   9  11
ENDBRANCH   6   9
TORSDOF 4
ENDMDL
MODEL 3
REMARK VINA RESULT: -8.614269662      1.682      2.113
REMARK  4 active torsions:
REMARK  status: ('A' for Active; 'I' for Inactive)
REMARK    1  A    between atoms: C5_6  and  C6_7 
REMARK    2  A    between atoms: C6_7  and  C7_9 
REMARK    3  A    between atoms: C8_10  and  C9_11 
REMARK    4  A    between atoms: C8_10  and  C10_14 
ROOT
HETATM    1  N1  UNL     1      34.122   2.182  59.994  1.00  0.00    -0.191 NA
HETATM    2  C1  UNL     1      35.249   2.373  60.168  1.00  0.00     0.099 C 
HETATM    3  C2  UNL     1      36.657   2.609  60.364  1.00  0.00     0.044 A 
HETATM    4  C3  UNL     1      37.482   2.917  59.307  1.00  0.00     0.023 A 
HETATM    5  C4  UNL     1      38.850   3.149  59.483  1.00  0.00     0.017 A 
HETATM    6  C5  UNL     1      39.421   3.080  60.721  1.00  0.00     0.014 A 
HETATM    7  C16 UNL     1      38.580   2.770  61.777  1.00  0.00     0.017 A 
HETATM    8  C17 UNL     1      37.233   2.540  61.611  1.00  0.00     0.023 A 
ENDROOT
BRANCH   6   9
HETATM    9  C6  UNL     1      40.862   3.311  60.998  1.00  0.00     0.183 C 
HETATM   10  O1  UNL     1      41.455   4.050  60.177  1.00  0.00    -0.288 OA
BRANCH   9  11
HETATM   11  C7  UNL     1      41.503   2.731  62.113  1.00  0.00     0.074 C 
HETATM   12  C8  UNL     1      42.647   2.141  62.292  1.00  0.00     0.054 C 
BRANCH  12  13
HETATM   13  C9  UNL     1      43.659   1.908  61.288  1.00  0.00     0.210 C 
HETATM   14  O2  UNL     1      43.628   1.009  60.400  1.00  0.00    -0.644 OA
HETATM   15  O3  UNL     1      44.849   2.673  61.172  1.00  0.00    -0.644 OA
ENDBRANCH  12  13
BRANCH  12  16
HETATM   16  C10 UNL     1      42.930   1.561  63.652  1.00  0.00    -0.019 A 
HETATM   17  C11 UNL     1      44.150   1.611  64.253  1.00  0.00     0.012 A 
HETATM   18  C12 UNL     1      44.402   0.977  65.481  1.00  0.00     0.001 A 
HETATM   19  C13 UNL     1      43.421   0.277  66.133  1.00  0.00     0.000 A 
HETATM   20  C14 UNL     1      42.191   0.228  65.529  1.00  0.00     0.001 A 
HETATM   21  C15 UNL     1      41.932   0.854  64.305  1.00  0.00     0.012 A 
ENDBRANCH  12  16
ENDBRANCH   9  11
ENDBRANCH   6   9
TORSDOF 4
ENDMDL
MODEL 4
REMARK VINA RESULT: -8.546552722      3.148      7.105
REMARK  4 active torsions:
REMARK  status: ('A' for Active; 'I' for Inactive)
REMARK    1  A    between atoms: C5_6  and  C6_7 
REMARK    2  A    between atoms: C6_7  and  C7_9 
REMARK    3  A    between atoms: C8_10  and  C9_11 
REMARK    4  A    between atoms: C8_10  and  C10_14 
ROOT
HETATM    1  N1  UNL     1      44.093  -0.164  67.660  1.00  0.00    -0.191 NA
HETATM    2  C1  UNL     1      43.870   0.286  66.618  1.00  0.00     0.099 C 
HETATM    3  C2  UNL     1      43.611   0.855  65.320  1.00  0.00     0.044 A 
HETATM    4  C3  UNL     1      44.631   1.358  64.546  1.00  0.00     0.023 A 
HETATM    5  C4  UNL     1      44.394   1.913  63.284  1.00  0.00     0.017 A 
HETATM    6  C5  UNL     1      43.131   1.974  62.769  1.00  0.00     0.014 A 
HETATM    7  C16 UNL     1      42.113   1.463  63.557  1.00  0.00     0.017 A 
HETATM    8  C17 UNL     1      42.339   0.917  64.800  1.00  0.00     0.023 A 
ENDROOT
BRANCH   6   9
HETATM    9  C6  UNL     1      42.790   2.546  61.441  1.00  0.00     0.183 C 
HETATM   10  O1  UNL     1      43.761   2.982  60.779  1.00  0.00    -0.288 OA
BRANCH   9  11
HETATM   11  C7  UNL     1      41.460   2.585  60.973  1.00  0.00     0.074 C 
HETATM   12  C8  UNL     1      40.909   2.900  59.839  1.00  0.00     0.054 C 
BRANCH  12  13
HETATM   13  C9  UNL     1      41.595   3.333  58.643  1.00  0.00     0.210 C 
HETATM   14  O2  UNL     1      42.620   2.791  58.140  1.00  0.00    -0.644 OA
HETATM   15  O3  UNL     1      41.199   4.453  57.866  1.00  0.00    -0.644 OA
ENDBRANCH  12  13
BRANCH  12  16
HETATM   16  C10 UNL     1      39.405   2.902  59.766  1.00  0.00    -0.019 A 
HETATM   17  C11 UNL     1      38.700   2.357  58.738  1.00  0.00     0.012 A 
HETATM   18  C12 UNL     1      37.301   2.459  58.657  1.00  0.00     0.001 A 
HETATM   19  C13 UNL     1      36.581   3.117  59.620  1.00  0.00     0.000 A 
HETATM   20  C14 UNL     1      37.291   3.665  60.657  1.00  0.00     0.001 A 
HETATM   21  C15 UNL     1      38.685   3.570  60.744  1.00  0.00     0.012 A 
ENDBRANCH  12  16
ENDBRANCH   9  11
ENDBRANCH   6   9
TORSDOF 4
ENDMDL
MODEL 5
REMARK VINA RESULT: -8.544114157      1.977      2.579
REMARK  4 active torsions:
REMARK  status: ('A' for Active; 'I' for Inactive)
REMARK    1  A    between atoms: C5_6  and  C6_7 
REMARK    2  A    between atoms: C6_7  and  C7_9 
REMARK    3  A    between atoms: C8_10  and  C9_11 
REMARK    4  A    between atoms: C8_10  and  C10_14 
ROOT
HETATM    1  N1  UNL     1      33.796   4.450  61.209  1.00  0.00    -0.191 NA
HETATM    2  C1  UNL     1      34.940   4.292  61.255  1.00  0.00     0.099 C 
HETATM    3  C2  UNL     1      36.368   4.110  61.329  1.00  0.00     0.044 A 
HETATM    4  C3  UNL     1      37.103   4.647  62.359  1.00  0.00     0.023 A 
HETATM    5  C4  UNL     1      38.490   4.479  62.443  1.00  0.00     0.017 A 
HETATM    6  C5  UNL     1      39.169   3.766  61.497  1.00  0.00     0.014 A 
HETATM    7  C16 UNL     1      38.417   3.229  60.464  1.00  0.00     0.017 A 
HETATM    8  C17 UNL     1      37.053   3.392  60.376  1.00  0.00     0.023 A 
ENDROOT
BRANCH   6   9
HETATM    9  C6  UNL     1      40.637   3.538  61.507  1.00  0.00     0.183 C 
HETATM   10  O1  UNL     1      41.257   3.991  60.517  1.00  0.00    -0.288 OA
BRANCH   9  11
HETATM   11  C7  UNL     1      41.271   2.857  62.567  1.00  0.00     0.074 C 
HETATM   12  C8  UNL     1      42.423   2.271  62.704  1.00  0.00     0.054 C 
BRANCH  12  13
HETATM   13  C9  UNL     1      43.454   2.159  61.699  1.00  0.00     0.210 C 
HETATM   14  O2  UNL     1      44.419   2.959  61.535  1.00  0.00    -0.644 OA
HETATM   15  O3  UNL     1      43.511   1.116  60.738  1.00  0.00    -0.644 OA
ENDBRANCH  12  13
BRANCH  12  16
HETATM   16  C10 UNL     1      42.697   1.559  64.003  1.00  0.00    -0.019 A 
HETATM   17  C11 UNL     1      43.908   1.563  64.623  1.00  0.00     0.012 A 
HETATM   18  C12 UNL     1      44.153   0.811  65.784  1.00  0.00     0.001 A 
HETATM   19  C13 UNL     1      43.172   0.036  66.348  1.00  0.00     0.000 A 
HETATM   20  C14 UNL     1      41.951   0.034  65.724  1.00  0.00     0.001 A 
HETATM   21  C15 UNL     1      41.699   0.779  64.566  1.00  0.00     0.012 A 
ENDBRANCH  12  16
ENDBRANCH   9  11
ENDBRANCH   6   9
TORSDOF 4
ENDMDL
