MODEL 1
REMARK VINA RESULT: -8.511434673      0.000      0.000
REMARK  1 active torsions:
REMARK  status: ('A' for Active; 'I' for Inactive)
REMARK       I    between atoms: C1_2  and  N2_4 
REMARK    1  A    between atoms: N2_4  and  C2_6 
ROOT
HETATM    1  C2  UNL     1      27.196   1.783   4.350  1.00  0.00     0.063 A 
HETATM    2  C3  UNL     1      27.191   0.380   4.400  1.00  0.00     0.025 A 
HETATM    3  C4  UNL     1      28.383  -0.296   4.431  1.00  0.00     0.016 A 
HETATM    4  C5  UNL     1      28.340  -1.715   4.482  1.00  0.00     0.001 A 
HETATM    5  C6  UNL     1      27.157  -2.392   4.500  1.00  0.00     0.003 A 
HETATM    6  C7  UNL     1      25.991  -1.674   4.468  1.00  0.00     0.038 A 
HETATM    7  C8  UNL     1      25.992  -0.279   4.417  1.00  0.00     0.088 A 
HETATM    8  O2  UNL     1      24.848   0.334   4.389  1.00  0.00    -0.309 OA
HETATM    9  C9  UNL     1      24.779   1.628   4.342  1.00  0.00     0.089 A 
HETATM   10  C10 UNL     1      23.521   2.222   4.314  1.00  0.00     0.039 A 
HETATM   11  C11 UNL     1      23.428   3.571   4.266  1.00  0.00     0.015 A 
HETATM   12  C12 UNL     1      24.557   4.345   4.244  1.00  0.00    -0.025 A 
HETATM   13  C13 UNL     1      24.415   5.716   4.194  1.00  0.00     0.012 A 
HETATM   14  C14 UNL     1      25.514   6.529   4.171  1.00  0.00     0.001 A 
HETATM   15  C15 UNL     1      26.769   5.976   4.197  1.00  0.00     0.001 A 
HETATM   16  C16 UNL     1      26.937   4.583   4.248  1.00  0.00     0.013 A 
HETATM   17  C17 UNL     1      25.838   3.787   4.271  1.00  0.00    -0.011 A 
HETATM   18  C18 UNL     1      25.937   2.400   4.322  1.00  0.00     0.037 A 
ENDROOT
BRANCH   1  19
HETATM   19  N2  UNL     1      28.246   2.379   4.335  1.00  0.00    -0.309 N 
HETATM   20  C1  UNL     1      29.499   2.646   4.754  1.00  0.00     0.333 C 
HETATM   21  N1  UNL     1      29.903   3.581   5.757  1.00  0.00    -0.040 NA
HETATM   22  O1  UNL     1      30.493   2.019   4.217  1.00  0.00    -0.251 OA
ATOM     23  H2  UNL     1      28.107   3.061   3.589  1.00  0.00     0.170 HD
ENDBRANCH   1  19
TORSDOF 1
ENDMDL
MODEL 2
REMARK VINA RESULT: -7.167858437      1.635      6.260
REMARK  1 active torsions:
REMARK  status: ('A' for Active; 'I' for Inactive)
REMARK       I    between atoms: C1_2  and  N2_4 
REMARK    1  A    between atoms: N2_4  and  C2_6 
ROOT
HETATM    1  C2  UNL     1      26.313   2.517   4.279  1.00  0.00     0.063 A 
HETATM    2  C3  UNL     1      26.453   3.912   4.209  1.00  0.00     0.025 A 
HETATM    3  C4  UNL     1      25.332   4.699   4.164  1.00  0.00     0.016 A 
HETATM    4  C5  UNL     1      25.512   6.107   4.094  1.00  0.00     0.001 A 
HETATM    5  C6  UNL     1      26.754   6.666   4.072  1.00  0.00     0.003 A 
HETATM    6  C7  UNL     1      27.846   5.840   4.119  1.00  0.00     0.038 A 
HETATM    7  C8  UNL     1      27.710   4.452   4.188  1.00  0.00     0.088 A 
HETATM    8  O2  UNL     1      28.790   3.732   4.229  1.00  0.00    -0.309 OA
HETATM    9  C9  UNL     1      28.734   2.439   4.294  1.00  0.00     0.089 A 
HETATM   10  C10 UNL     1      29.929   1.727   4.336  1.00  0.00     0.039 A 
HETATM   11  C11 UNL     1      29.891   0.376   4.404  1.00  0.00     0.015 A 
HETATM   12  C12 UNL     1      28.693  -0.286   4.432  1.00  0.00    -0.025 A 
HETATM   13  C13 UNL     1      28.702  -1.663   4.502  1.00  0.00     0.012 A 
HETATM   14  C14 UNL     1      27.530  -2.366   4.531  1.00  0.00     0.001 A 
HETATM   15  C15 UNL     1      26.335  -1.695   4.491  1.00  0.00     0.001 A 
HETATM   16  C16 UNL     1      26.301  -0.294   4.420  1.00  0.00     0.013 A 
HETATM   17  C17 UNL     1      27.471   0.393   4.392  1.00  0.00    -0.011 A 
HETATM   18  C18 UNL     1      27.506   1.782   4.322  1.00  0.00     0.037 A 
ENDROOT
BRANCH   1  19
HETATM   19  N2  UNL     1      25.211   2.025   4.299  1.00  0.00    -0.309 N 
HETATM   20  C1  UNL     1      23.947   1.853   3.861  1.00  0.00     0.333 C 
HETATM   21  N1  UNL     1      22.772   2.540   4.298  1.00  0.00    -0.040 NA
HETATM   22  O1  UNL     1      23.708   0.975   2.945  1.00  0.00    -0.251 OA
ATOM     23  H2  UNL     1      25.267   1.378   5.085  1.00  0.00     0.170 HD
ENDBRANCH   1  19
TORSDOF 1
ENDMDL
MODEL 3
REMARK VINA RESULT: -6.959346003      1.498      5.057
REMARK  1 active torsions:
REMARK  status: ('A' for Active; 'I' for Inactive)
REMARK       I    between atoms: C1_2  and  N2_4 
REMARK    1  A    between atoms: N2_4  and  C2_6 
ROOT
HETATM    1  C2  UNL     1      26.475   2.513   3.831  1.00  0.00     0.063 A 
HETATM    2  C3  UNL     1      25.215   3.098   4.036  1.00  0.00     0.025 A 
HETATM    3  C4  UNL     1      25.110   4.462   4.107  1.00  0.00     0.016 A 
HETATM    4  C5  UNL     1      23.819   5.018   4.315  1.00  0.00     0.001 A 
HETATM    5  C6  UNL     1      22.716   4.230   4.441  1.00  0.00     0.003 A 
HETATM    6  C7  UNL     1      22.868   2.871   4.362  1.00  0.00     0.038 A 
HETATM    7  C8  UNL     1      24.120   2.286   4.159  1.00  0.00     0.088 A 
HETATM    8  O2  UNL     1      24.188   0.992   4.096  1.00  0.00    -0.309 OA
HETATM    9  C9  UNL     1      25.319   0.386   3.909  1.00  0.00     0.089 A 
HETATM   10  C10 UNL     1      25.322  -1.004   3.850  1.00  0.00     0.039 A 
HETATM   11  C11 UNL     1      26.493  -1.655   3.655  1.00  0.00     0.015 A 
HETATM   12  C12 UNL     1      27.662  -0.955   3.516  1.00  0.00    -0.025 A 
HETATM   13  C13 UNL     1      28.831  -1.660   3.319  1.00  0.00     0.012 A 
HETATM   14  C14 UNL     1      30.023  -1.004   3.176  1.00  0.00     0.001 A 
HETATM   15  C15 UNL     1      30.054   0.366   3.228  1.00  0.00     0.001 A 
HETATM   16  C16 UNL     1      28.877   1.103   3.427  1.00  0.00     0.013 A 
HETATM   17  C17 UNL     1      27.700   0.441   3.569  1.00  0.00    -0.011 A 
HETATM   18  C18 UNL     1      26.499   1.113   3.769  1.00  0.00     0.037 A 
ENDROOT
BRANCH   1  19
HETATM   19  N2  UNL     1      27.451   3.215   3.719  1.00  0.00    -0.309 N 
HETATM   20  C1  UNL     1      28.256   4.243   4.058  1.00  0.00     0.333 C 
HETATM   21  N1  UNL     1      28.227   5.578   3.549  1.00  0.00    -0.040 NA
HETATM   22  O1  UNL     1      29.184   4.055   4.936  1.00  0.00    -0.251 OA
ATOM     23  H2  UNL     1      27.939   2.799   2.926  1.00  0.00     0.170 HD
ENDBRANCH   1  19
TORSDOF 1
ENDMDL
MODEL 4
REMARK VINA RESULT: -6.745322561      1.748      5.027
REMARK  1 active torsions:
REMARK  status: ('A' for Active; 'I' for Inactive)
REMARK       I    between atoms: C1_2  and  N2_4 
REMARK    1  A    between atoms: N2_4  and  C2_6 
ROOT
HETATM    1  C2  UNL     1      26.277   3.188   4.544  1.00  0.00     0.063 A 
HETATM    2  C3  UNL     1      24.913   3.503   4.436  1.00  0.00     0.025 A 
HETATM    3  C4  UNL     1      24.535   4.812   4.291  1.00  0.00     0.016 A 
HETATM    4  C5  UNL     1      23.147   5.094   4.184  1.00  0.00     0.001 A 
HETATM    5  C6  UNL     1      22.214   4.102   4.223  1.00  0.00     0.003 A 
HETATM    6  C7  UNL     1      22.638   2.808   4.369  1.00  0.00     0.038 A 
HETATM    7  C8  UNL     1      23.994   2.491   4.478  1.00  0.00     0.088 A 
HETATM    8  O2  UNL     1      24.321   1.243   4.614  1.00  0.00    -0.309 OA
HETATM    9  C9  UNL     1      25.562   0.880   4.719  1.00  0.00     0.089 A 
HETATM   10  C10 UNL     1      25.845  -0.474   4.862  1.00  0.00     0.039 A 
HETATM   11  C11 UNL     1      27.134  -0.872   4.974  1.00  0.00     0.015 A 
HETATM   12  C12 UNL     1      28.150   0.046   4.946  1.00  0.00    -0.025 A 
HETATM   13  C13 UNL     1      29.447  -0.405   5.062  1.00  0.00     0.012 A 
HETATM   14  C14 UNL     1      30.494   0.476   5.041  1.00  0.00     0.001 A 
HETATM   15  C15 UNL     1      30.250   1.817   4.901  1.00  0.00     0.001 A 
HETATM   16  C16 UNL     1      28.937   2.298   4.780  1.00  0.00     0.013 A 
HETATM   17  C17 UNL     1      27.906   1.415   4.803  1.00  0.00    -0.011 A 
HETATM   18  C18 UNL     1      26.583   1.827   4.688  1.00  0.00     0.037 A 
ENDROOT
BRANCH   1  19
HETATM   19  N2  UNL     1      27.101   4.069   4.508  1.00  0.00    -0.309 N 
HETATM   20  C1  UNL     1      27.628   5.225   4.054  1.00  0.00     0.333 C 
HETATM   21  N1  UNL     1      28.569   5.398   2.992  1.00  0.00    -0.040 NA
HETATM   22  O1  UNL     1      27.283   6.338   4.611  1.00  0.00    -0.251 OA
ATOM     23  H2  UNL     1      27.776   3.776   5.215  1.00  0.00     0.170 HD
ENDBRANCH   1  19
TORSDOF 1
ENDMDL
MODEL 5
REMARK VINA RESULT: -6.616878294      1.214      5.094
REMARK  1 active torsions:
REMARK  status: ('A' for Active; 'I' for Inactive)
REMARK       I    between atoms: C1_2  and  N2_4 
REMARK    1  A    between atoms: N2_4  and  C2_6 
ROOT
HETATM    1  C2  UNL     1      27.615   2.705   4.104  1.00  0.00     0.063 A 
HETATM    2  C3  UNL     1      27.104   4.010   4.025  1.00  0.00     0.025 A 
HETATM    3  C4  UNL     1      27.946   5.075   4.214  1.00  0.00     0.016 A 
HETATM    4  C5  UNL     1      27.394   6.381   4.127  1.00  0.00     0.001 A 
HETATM    5  C6  UNL     1      26.072   6.579   3.864  1.00  0.00     0.003 A 
HETATM    6  C7  UNL     1      25.268   5.485   3.681  1.00  0.00     0.038 A 
HETATM    7  C8  UNL     1      25.773   4.185   3.760  1.00  0.00     0.088 A 
HETATM    8  O2  UNL     1      24.952   3.197   3.576  1.00  0.00    -0.309 OA
HETATM    9  C9  UNL     1      25.357   1.967   3.634  1.00  0.00     0.089 A 
HETATM   10  C10 UNL     1      24.425   0.954   3.427  1.00  0.00     0.039 A 
HETATM   11  C11 UNL     1      24.828  -0.337   3.484  1.00  0.00     0.015 A 
HETATM   12  C12 UNL     1      26.137  -0.645   3.742  1.00  0.00    -0.025 A 
HETATM   13  C13 UNL     1      26.503  -1.974   3.791  1.00  0.00     0.012 A 
HETATM   14  C14 UNL     1      27.798  -2.330   4.047  1.00  0.00     0.001 A 
HETATM   15  C15 UNL     1      28.741  -1.357   4.255  1.00  0.00     0.001 A 
HETATM   16  C16 UNL     1      28.391   0.001   4.209  1.00  0.00     0.013 A 
HETATM   17  C17 UNL     1      27.102   0.343   3.956  1.00  0.00    -0.011 A 
HETATM   18  C18 UNL     1      26.692   1.670   3.897  1.00  0.00     0.037 A 
ENDROOT
BRANCH   1  19
HETATM   19  N2  UNL     1      28.788   2.533   4.336  1.00  0.00    -0.309 N 
HETATM   20  C1  UNL     1      29.882   2.513   5.125  1.00  0.00     0.333 C 
HETATM   21  N1  UNL     1      30.817   3.570   5.345  1.00  0.00    -0.040 NA
HETATM   22  O1  UNL     1      30.172   1.436   5.776  1.00  0.00    -0.251 OA
ATOM     23  H2  UNL     1      29.156   2.238   3.432  1.00  0.00     0.170 HD
ENDBRANCH   1  19
TORSDOF 1
ENDMDL
