MODEL 1
REMARK VINA RESULT: -9.983372888      0.000      0.000
REMARK  1 active torsions:
REMARK  status: ('A' for Active; 'I' for Inactive)
REMARK    1  A    between atoms: N2_11  and  O1_12 
ROOT
HETATM    1  N1  UNL     1      24.392   7.470   4.268  1.00  0.00    -0.102 NA
HETATM    2  C1  UNL     1      24.706   6.085   4.209  1.00  0.00     0.049 A 
HETATM    3  C2  UNL     1      23.728   5.142   4.366  1.00  0.00     0.039 A 
HETATM    4  C3  UNL     1      23.989   3.774   4.316  1.00  0.00    -0.021 A 
HETATM    5  C4  UNL     1      22.982   2.847   4.477  1.00  0.00     0.012 A 
HETATM    6  C5  UNL     1      23.285   1.508   4.420  1.00  0.00     0.002 A 
HETATM    7  C6  UNL     1      24.589   1.078   4.203  1.00  0.00     0.013 A 
HETATM    8  C7  UNL     1      25.589   2.006   4.044  1.00  0.00    -0.009 A 
HETATM    9  C8  UNL     1      26.911   1.656   3.823  1.00  0.00     0.015 A 
HETATM   10  C9  UNL     1      27.877   2.641   3.670  1.00  0.00     0.075 A 
HETATM   11  N2  UNL     1      27.546   3.930   3.730  1.00  0.00    -0.223 N 
HETATM   12  C10 UNL     1      26.287   4.297   3.940  1.00  0.00     0.076 A 
HETATM   13  C11 UNL     1      26.006   5.654   3.993  1.00  0.00     0.059 A 
HETATM   14  C12 UNL     1      25.286   3.368   4.100  1.00  0.00     0.015 A 
HETATM   15  C13 UNL     1      29.167   1.996   3.454  1.00  0.00     0.045 A 
HETATM   16  C14 UNL     1      28.894   0.707   3.492  1.00  0.00    -0.023 A 
HETATM   17  C15 UNL     1      29.807  -0.328   3.337  1.00  0.00     0.012 A 
HETATM   18  C16 UNL     1      29.370  -1.615   3.402  1.00  0.00     0.001 A 
HETATM   19  C17 UNL     1      28.043  -1.829   3.620  1.00  0.00     0.001 A 
HETATM   20  C18 UNL     1      27.099  -0.806   3.780  1.00  0.00     0.013 A 
HETATM   21  C19 UNL     1      27.528   0.492   3.717  1.00  0.00    -0.012 A 
ENDROOT
BRANCH  11  22
HETATM   22  O1  UNL     1      28.569   4.860   3.567  1.00  0.00    -0.282 OA
ATOM     23  H1  UNL     1      28.567   5.376   2.768  1.00  0.00     0.245 HD
ENDBRANCH  11  22
TORSDOF 1
ENDMDL
MODEL 2
REMARK VINA RESULT: -8.268856509      1.861      5.692
REMARK  1 active torsions:
REMARK  status: ('A' for Active; 'I' for Inactive)
REMARK    1  A    between atoms: N2_11  and  O1_12 
ROOT
HETATM    1  N1  UNL     1      30.302  -2.229   3.875  1.00  0.00    -0.102 NA
HETATM    2  C1  UNL     1      29.270  -1.253   3.862  1.00  0.00     0.049 A 
HETATM    3  C2  UNL     1      27.962  -1.624   3.710  1.00  0.00     0.039 A 
HETATM    4  C3  UNL     1      26.918  -0.701   3.692  1.00  0.00    -0.021 A 
HETATM    5  C4  UNL     1      25.609  -1.105   3.537  1.00  0.00     0.012 A 
HETATM    6  C5  UNL     1      24.611  -0.162   3.525  1.00  0.00     0.002 A 
HETATM    7  C6  UNL     1      24.902   1.190   3.665  1.00  0.00     0.013 A 
HETATM    8  C7  UNL     1      26.208   1.588   3.818  1.00  0.00    -0.009 A 
HETATM    9  C8  UNL     1      26.577   2.915   3.964  1.00  0.00     0.015 A 
HETATM   10  C9  UNL     1      27.915   3.254   4.115  1.00  0.00     0.075 A 
HETATM   11  N2  UNL     1      28.857   2.312   4.123  1.00  0.00    -0.223 N 
HETATM   12  C10 UNL     1      28.534   1.030   3.986  1.00  0.00     0.076 A 
HETATM   13  C11 UNL     1      29.558   0.097   4.002  1.00  0.00     0.059 A 
HETATM   14  C12 UNL     1      27.226   0.633   3.832  1.00  0.00     0.015 A 
HETATM   15  C13 UNL     1      28.015   4.703   4.245  1.00  0.00     0.045 A 
HETATM   16  C14 UNL     1      26.767   5.122   4.166  1.00  0.00    -0.023 A 
HETATM   17  C15 UNL     1      26.340   6.440   4.238  1.00  0.00     0.012 A 
HETATM   18  C16 UNL     1      25.011   6.715   4.138  1.00  0.00     0.001 A 
HETATM   19  C17 UNL     1      24.154   5.671   3.972  1.00  0.00     0.001 A 
HETATM   20  C18 UNL     1      24.555   4.330   3.896  1.00  0.00     0.013 A 
HETATM   21  C19 UNL     1      25.889   4.043   3.995  1.00  0.00    -0.012 A 
ENDROOT
BRANCH  11  22
HETATM   22  O1  UNL     1      30.176   2.728   4.279  1.00  0.00    -0.282 OA
ATOM     23  H1  UNL     1      30.859   2.131   3.994  1.00  0.00     0.245 HD
ENDBRANCH  11  22
TORSDOF 1
ENDMDL
MODEL 3
REMARK VINA RESULT: -7.975101267      2.452      6.384
REMARK  1 active torsions:
REMARK  status: ('A' for Active; 'I' for Inactive)
REMARK    1  A    between atoms: N2_11  and  O1_12 
ROOT
HETATM    1  N1  UNL     1      27.005  -3.147   4.875  1.00  0.00    -0.102 NA
HETATM    2  C1  UNL     1      27.137  -1.737   4.765  1.00  0.00     0.049 A 
HETATM    3  C2  UNL     1      28.368  -1.145   4.830  1.00  0.00     0.039 A 
HETATM    4  C3  UNL     1      28.544   0.234   4.726  1.00  0.00    -0.021 A 
HETATM    5  C4  UNL     1      29.798   0.802   4.795  1.00  0.00     0.012 A 
HETATM    6  C5  UNL     1      29.926   2.165   4.688  1.00  0.00     0.002 A 
HETATM    7  C6  UNL     1      28.811   2.977   4.512  1.00  0.00     0.013 A 
HETATM    8  C7  UNL     1      27.563   2.406   4.445  1.00  0.00    -0.009 A 
HETATM    9  C8  UNL     1      26.406   3.147   4.271  1.00  0.00     0.015 A 
HETATM   10  C9  UNL     1      25.173   2.511   4.210  1.00  0.00     0.075 A 
HETATM   11  N2  UNL     1      25.088   1.186   4.317  1.00  0.00    -0.223 N 
HETATM   12  C10 UNL     1      26.180   0.448   4.484  1.00  0.00     0.076 A 
HETATM   13  C11 UNL     1      26.026  -0.926   4.590  1.00  0.00     0.059 A 
HETATM   14  C12 UNL     1      27.428   1.020   4.552  1.00  0.00     0.015 A 
HETATM   15  C13 UNL     1      24.138   3.521   4.025  1.00  0.00     0.045 A 
HETATM   16  C14 UNL     1      24.801   4.661   3.988  1.00  0.00    -0.023 A 
HETATM   17  C15 UNL     1      24.250   5.924   3.826  1.00  0.00     0.012 A 
HETATM   18  C16 UNL     1      25.070   7.010   3.809  1.00  0.00     0.001 A 
HETATM   19  C17 UNL     1      26.407   6.803   3.953  1.00  0.00     0.001 A 
HETATM   20  C18 UNL     1      26.993   5.540   4.118  1.00  0.00     0.013 A 
HETATM   21  C19 UNL     1      26.177   4.442   4.137  1.00  0.00    -0.012 A 
ENDROOT
BRANCH  11  22
HETATM   22  O1  UNL     1      23.818   0.620   4.247  1.00  0.00    -0.282 OA
ATOM     23  H1  UNL     1      23.765  -0.327   4.177  1.00  0.00     0.245 HD
ENDBRANCH  11  22
TORSDOF 1
ENDMDL
MODEL 4
REMARK VINA RESULT: -7.562188779      1.806      3.265
REMARK  1 active torsions:
REMARK  status: ('A' for Active; 'I' for Inactive)
REMARK    1  A    between atoms: N2_11  and  O1_12 
ROOT
HETATM    1  N1  UNL     1      23.575   7.348   4.522  1.00  0.00    -0.102 NA
HETATM    2  C1  UNL     1      24.462   6.251   4.358  1.00  0.00     0.049 A 
HETATM    3  C2  UNL     1      25.753   6.453   3.954  1.00  0.00     0.039 A 
HETATM    4  C3  UNL     1      26.658   5.407   3.780  1.00  0.00    -0.021 A 
HETATM    5  C4  UNL     1      27.953   5.641   3.373  1.00  0.00     0.012 A 
HETATM    6  C5  UNL     1      28.811   4.581   3.214  1.00  0.00     0.002 A 
HETATM    7  C6  UNL     1      28.391   3.278   3.457  1.00  0.00     0.013 A 
HETATM    8  C7  UNL     1      27.098   3.049   3.862  1.00  0.00    -0.009 A 
HETATM    9  C8  UNL     1      26.606   1.781   4.123  1.00  0.00     0.015 A 
HETATM   10  C9  UNL     1      25.289   1.615   4.530  1.00  0.00     0.075 A 
HETATM   11  N2  UNL     1      24.486   2.667   4.674  1.00  0.00    -0.223 N 
HETATM   12  C10 UNL     1      24.929   3.896   4.431  1.00  0.00     0.076 A 
HETATM   13  C11 UNL     1      24.045   4.950   4.599  1.00  0.00     0.059 A 
HETATM   14  C12 UNL     1      26.223   4.124   4.025  1.00  0.00     0.015 A 
HETATM   15  C13 UNL     1      25.042   0.192   4.731  1.00  0.00     0.045 A 
HETATM   16  C14 UNL     1      26.194  -0.381   4.441  1.00  0.00    -0.023 A 
HETATM   17  C15 UNL     1      26.466  -1.742   4.483  1.00  0.00     0.012 A 
HETATM   18  C16 UNL     1      27.710  -2.181   4.152  1.00  0.00     0.001 A 
HETATM   19  C17 UNL     1      28.641  -1.255   3.792  1.00  0.00     0.001 A 
HETATM   20  C18 UNL     1      28.396   0.124   3.740  1.00  0.00     0.013 A 
HETATM   21  C19 UNL     1      27.148   0.577   4.070  1.00  0.00    -0.012 A 
ENDROOT
BRANCH  11  22
HETATM   22  O1  UNL     1      23.179   2.422   5.085  1.00  0.00    -0.282 OA
ATOM     23  H1  UNL     1      22.882   2.854   5.878  1.00  0.00     0.245 HD
ENDBRANCH  11  22
TORSDOF 1
ENDMDL
MODEL 5
REMARK VINA RESULT: -7.034506765      2.022      3.245
REMARK  1 active torsions:
REMARK  status: ('A' for Active; 'I' for Inactive)
REMARK    1  A    between atoms: N2_11  and  O1_12 
ROOT
HETATM    1  N1  UNL     1      22.023   4.869   4.693  1.00  0.00    -0.102 NA
HETATM    2  C1  UNL     1      23.301   4.339   4.371  1.00  0.00     0.049 A 
HETATM    3  C2  UNL     1      24.378   5.168   4.211  1.00  0.00     0.039 A 
HETATM    4  C3  UNL     1      25.649   4.693   3.895  1.00  0.00    -0.021 A 
HETATM    5  C4  UNL     1      26.716   5.551   3.740  1.00  0.00     0.012 A 
HETATM    6  C5  UNL     1      27.952   5.040   3.428  1.00  0.00     0.002 A 
HETATM    7  C6  UNL     1      28.141   3.672   3.267  1.00  0.00     0.013 A 
HETATM    8  C7  UNL     1      27.074   2.820   3.422  1.00  0.00    -0.009 A 
HETATM    9  C8  UNL     1      27.183   1.446   3.278  1.00  0.00     0.015 A 
HETATM   10  C9  UNL     1      26.067   0.638   3.448  1.00  0.00     0.075 A 
HETATM   11  N2  UNL     1      24.884   1.169   3.750  1.00  0.00    -0.223 N 
HETATM   12  C10 UNL     1      24.748   2.483   3.895  1.00  0.00     0.076 A 
HETATM   13  C11 UNL     1      23.491   2.975   4.210  1.00  0.00     0.059 A 
HETATM   14  C12 UNL     1      25.816   3.335   3.739  1.00  0.00     0.015 A 
HETATM   15  C13 UNL     1      26.464  -0.750   3.239  1.00  0.00     0.045 A 
HETATM   16  C14 UNL     1      27.753  -0.681   2.968  1.00  0.00    -0.023 A 
HETATM   17  C15 UNL     1      28.591  -1.752   2.692  1.00  0.00     0.012 A 
HETATM   18  C16 UNL     1      29.905  -1.518   2.429  1.00  0.00     0.001 A 
HETATM   19  C17 UNL     1      30.341  -0.229   2.449  1.00  0.00     0.001 A 
HETATM   20  C18 UNL     1      29.519   0.873   2.723  1.00  0.00     0.013 A 
HETATM   21  C19 UNL     1      28.196   0.649   2.989  1.00  0.00    -0.012 A 
ENDROOT
BRANCH  11  22
HETATM   22  O1  UNL     1      23.811   0.295   3.904  1.00  0.00    -0.282 OA
ATOM     23  H1  UNL     1      22.950   0.678   4.025  1.00  0.00     0.245 HD
ENDBRANCH  11  22
TORSDOF 1
ENDMDL
