MODEL 1
REMARK VINA RESULT: 1.738630314      0.000      0.000
REMARK  3 active torsions:
REMARK  status: ('A' for Active; 'I' for Inactive)
REMARK    1  A    between atoms: C4_4  and  C5_5 
REMARK    2  A    between atoms: C5_5  and  C6_6 
REMARK    3  A    between atoms: C6_6  and  C7_7 
ROOT
HETATM    1  C5  UNL     1      26.369   2.365   3.996  1.00  0.00    -0.061 C 
ENDROOT
BRANCH   1   2
HETATM    2  C4  UNL     1      25.462   3.473   4.081  1.00  0.00     0.021 A 
HETATM    3  C3  UNL     1      24.108   3.257   4.224  1.00  0.00     0.029 A 
HETATM    4  C2  UNL     1      23.207   4.326   4.308  1.00  0.00    -0.032 A 
HETATM    5  C1  UNL     1      21.759   4.140   4.460  1.00  0.00     0.050 C 
HETATM    6  C19 UNL     1      23.717   5.618   4.244  1.00  0.00     0.066 A 
HETATM    7  C17 UNL     1      25.059   5.858   4.103  1.00  0.00     0.061 A 
HETATM    8  N3  UNL     1      23.143   6.850   4.293  1.00  0.00    -0.350 N 
HETATM    9  C16 UNL     1      25.901   4.783   4.025  1.00  0.00     0.052 A 
HETATM   10  N2  UNL     1      25.310   7.176   4.065  1.00  0.00    -0.350 N 
HETATM   11  C18 UNL     1      24.110   7.781   4.185  1.00  0.00     0.181 A 
ATOM     12  H2  UNL     1      26.220   7.627   3.968  1.00  0.00     0.166 HD
ATOM     13  H3  UNL     1      22.145   7.037   4.395  1.00  0.00     0.166 HD
ENDBRANCH   1   2
BRANCH   1  14
HETATM   14  C6  UNL     1      27.139   1.439   3.923  1.00  0.00    -0.060 C 
BRANCH  14  15
HETATM   15  C7  UNL     1      28.070   0.357   3.827  1.00  0.00     0.034 A 
HETATM   16  C8  UNL     1      28.175  -0.636   4.775  1.00  0.00     0.109 A 
HETATM   17  N1  UNL     1      29.055  -1.649   4.673  1.00  0.00    -0.364 N 
HETATM   18  C9  UNL     1      29.888  -1.733   3.614  1.00  0.00     0.042 A 
ATOM     19  H1  UNL     1      29.092  -2.360   5.403  1.00  0.00     0.165 HD
HETATM   20  C10 UNL     1      30.792  -2.785   3.523  1.00  0.00     0.030 A 
HETATM   21  C14 UNL     1      29.806  -0.752   2.650  1.00  0.00    -0.008 A 
HETATM   22  C11 UNL     1      31.612  -2.804   2.412  1.00  0.00     0.002 A 
HETATM   23  C12 UNL     1      31.582  -1.865   1.420  1.00  0.00     0.001 A 
HETATM   24  C13 UNL     1      30.657  -0.830   1.559  1.00  0.00     0.014 A 
HETATM   25  C15 UNL     1      28.904   0.299   2.739  1.00  0.00     0.035 A 
ENDBRANCH  14  15
ENDBRANCH   1  14
TORSDOF 3
ENDMDL
MODEL 2
REMARK VINA RESULT: 3.200907750      1.499      8.714
REMARK  3 active torsions:
REMARK  status: ('A' for Active; 'I' for Inactive)
REMARK    1  A    between atoms: C4_4  and  C5_5 
REMARK    2  A    between atoms: C5_5  and  C6_6 
REMARK    3  A    between atoms: C6_6  and  C7_7 
ROOT
HETATM    1  C5  UNL     1      26.782   1.277   4.186  1.00  0.00    -0.061 C 
ENDROOT
BRANCH   1   2
HETATM    2  C4  UNL     1      27.447   0.008   4.119  1.00  0.00     0.021 A 
HETATM    3  C3  UNL     1      26.744  -1.161   4.322  1.00  0.00     0.029 A 
HETATM    4  C2  UNL     1      27.377  -2.408   4.261  1.00  0.00    -0.032 A 
HETATM    5  C1  UNL     1      26.666  -3.676   4.471  1.00  0.00     0.050 C 
HETATM    6  C19 UNL     1      28.740  -2.438   3.988  1.00  0.00     0.066 A 
HETATM    7  C17 UNL     1      29.461  -1.290   3.782  1.00  0.00     0.061 A 
HETATM    8  N3  UNL     1      29.642  -3.448   3.860  1.00  0.00    -0.350 N 
HETATM    9  C16 UNL     1      28.801  -0.095   3.851  1.00  0.00     0.052 A 
HETATM   10  N2  UNL     1      30.750  -1.570   3.537  1.00  0.00    -0.350 N 
HETATM   11  C18 UNL     1      30.849  -2.915   3.588  1.00  0.00     0.181 A 
ATOM     12  H2  UNL     1      31.499  -0.904   3.350  1.00  0.00     0.166 HD
ATOM     13  H3  UNL     1      29.439  -4.443   3.953  1.00  0.00     0.166 HD
ENDBRANCH   1   2
BRANCH   1  14
HETATM   14  C6  UNL     1      26.217   2.341   4.235  1.00  0.00    -0.060 C 
BRANCH  14  15
HETATM   15  C7  UNL     1      25.548   3.606   4.269  1.00  0.00     0.034 A 
HETATM   16  C8  UNL     1      24.415   3.843   5.014  1.00  0.00     0.109 A 
HETATM   17  N1  UNL     1      23.796   5.037   5.037  1.00  0.00    -0.364 N 
HETATM   18  C9  UNL     1      24.272   6.073   4.314  1.00  0.00     0.042 A 
ATOM     19  H1  UNL     1      22.959   5.161   5.606  1.00  0.00     0.165 HD
HETATM   20  C10 UNL     1      23.621   7.301   4.347  1.00  0.00     0.030 A 
HETATM   21  C14 UNL     1      25.405   5.865   3.558  1.00  0.00    -0.008 A 
HETATM   22  C11 UNL     1      24.167   8.313   3.582  1.00  0.00     0.002 A 
HETATM   23  C12 UNL     1      25.286   8.174   2.812  1.00  0.00     0.001 A 
HETATM   24  C13 UNL     1      25.902   6.923   2.812  1.00  0.00     0.014 A 
HETATM   25  C15 UNL     1      26.056   4.639   3.523  1.00  0.00     0.035 A 
ENDBRANCH  14  15
ENDBRANCH   1  14
TORSDOF 3
ENDMDL
MODEL 3
REMARK VINA RESULT: 3.327520833      4.806     11.194
REMARK  3 active torsions:
REMARK  status: ('A' for Active; 'I' for Inactive)
REMARK    1  A    between atoms: C4_4  and  C5_5 
REMARK    2  A    between atoms: C5_5  and  C6_6 
REMARK    3  A    between atoms: C6_6  and  C7_7 
ROOT
HETATM    1  C5  UNL     1      24.489   7.623   5.662  1.00  0.00    -0.061 C 
ENDROOT
BRANCH   1   2
HETATM    2  C4  UNL     1      24.803   6.421   4.944  1.00  0.00     0.021 A 
HETATM    3  C3  UNL     1      25.953   6.341   4.188  1.00  0.00     0.029 A 
HETATM    4  C2  UNL     1      26.276   5.177   3.479  1.00  0.00    -0.032 A 
HETATM    5  C1  UNL     1      27.491   5.049   2.663  1.00  0.00     0.050 C 
HETATM    6  C19 UNL     1      25.402   4.099   3.558  1.00  0.00     0.066 A 
HETATM    7  C17 UNL     1      24.252   4.155   4.302  1.00  0.00     0.061 A 
HETATM    8  N3  UNL     1      25.408   2.853   3.012  1.00  0.00    -0.350 N 
HETATM    9  C16 UNL     1      23.978   5.312   4.978  1.00  0.00     0.052 A 
HETATM   10  N2  UNL     1      23.574   3.000   4.225  1.00  0.00    -0.350 N 
HETATM   11  C18 UNL     1      24.303   2.199   3.421  1.00  0.00     0.181 A 
ATOM     12  H2  UNL     1      22.690   2.774   4.681  1.00  0.00     0.166 HD
ATOM     13  H3  UNL     1      26.128   2.476   2.397  1.00  0.00     0.166 HD
ENDBRANCH   1   2
BRANCH   1  14
HETATM   14  C6  UNL     1      24.231   8.630   6.273  1.00  0.00    -0.060 C 
BRANCH  14  15
HETATM   15  C7  UNL     1      23.942   9.818   7.016  1.00  0.00     0.034 A 
HETATM   16  C8  UNL     1      23.840  11.064   6.439  1.00  0.00     0.109 A 
HETATM   17  N1  UNL     1      23.567  12.174   7.149  1.00  0.00    -0.364 N 
HETATM   18  C9  UNL     1      23.379  12.108   8.484  1.00  0.00     0.042 A 
ATOM     19  H1  UNL     1      23.502  13.074   6.673  1.00  0.00     0.165 HD
HETATM   20  C10 UNL     1      23.098  13.264   9.204  1.00  0.00     0.030 A 
HETATM   21  C14 UNL     1      23.475  10.874   9.089  1.00  0.00    -0.008 A 
HETATM   22  C11 UNL     1      22.918  13.118  10.566  1.00  0.00     0.002 A 
HETATM   23  C12 UNL     1      22.999  11.925  11.227  1.00  0.00     0.001 A 
HETATM   24  C13 UNL     1      23.283  10.796  10.459  1.00  0.00     0.014 A 
HETATM   25  C15 UNL     1      23.756   9.719   8.371  1.00  0.00     0.035 A 
ENDBRANCH  14  15
ENDBRANCH   1  14
TORSDOF 3
ENDMDL
MODEL 4
REMARK VINA RESULT: 3.441957341      4.636     11.169
REMARK  3 active torsions:
REMARK  status: ('A' for Active; 'I' for Inactive)
REMARK    1  A    between atoms: C4_4  and  C5_5 
REMARK    2  A    between atoms: C5_5  and  C6_6 
REMARK    3  A    between atoms: C6_6  and  C7_7 
ROOT
HETATM    1  C5  UNL     1      24.455   7.785   5.762  1.00  0.00    -0.061 C 
ENDROOT
BRANCH   1   2
HETATM    2  C4  UNL     1      24.765   6.594   5.025  1.00  0.00     0.021 A 
HETATM    3  C3  UNL     1      23.806   5.622   4.835  1.00  0.00     0.029 A 
HETATM    4  C2  UNL     1      24.090   4.452   4.119  1.00  0.00    -0.032 A 
HETATM    5  C1  UNL     1      23.098   3.393   3.893  1.00  0.00     0.050 C 
HETATM    6  C19 UNL     1      25.372   4.296   3.603  1.00  0.00     0.066 A 
HETATM    7  C17 UNL     1      26.342   5.248   3.779  1.00  0.00     0.061 A 
HETATM    8  N3  UNL     1      25.970   3.312   2.879  1.00  0.00    -0.350 N 
HETATM    9  C16 UNL     1      26.019   6.374   4.484  1.00  0.00     0.052 A 
HETATM   10  N2  UNL     1      27.491   4.876   3.194  1.00  0.00    -0.350 N 
HETATM   11  C18 UNL     1      27.246   3.672   2.638  1.00  0.00     0.181 A 
ATOM     12  H2  UNL     1      28.367   5.397   3.173  1.00  0.00     0.166 HD
ATOM     13  H3  UNL     1      25.528   2.447   2.571  1.00  0.00     0.166 HD
ENDBRANCH   1   2
BRANCH   1  14
HETATM   14  C6  UNL     1      24.202   8.785   6.387  1.00  0.00    -0.060 C 
BRANCH  14  15
HETATM   15  C7  UNL     1      23.915   9.962   7.148  1.00  0.00     0.034 A 
HETATM   16  C8  UNL     1      23.796  11.214   6.588  1.00  0.00     0.109 A 
HETATM   17  N1  UNL     1      23.526  12.314   7.315  1.00  0.00    -0.364 N 
HETATM   18  C9  UNL     1      23.359  12.231   8.652  1.00  0.00     0.042 A 
ATOM     19  H1  UNL     1      23.447  13.218   6.851  1.00  0.00     0.165 HD
HETATM   20  C10 UNL     1      23.080  13.376   9.390  1.00  0.00     0.030 A 
HETATM   21  C14 UNL     1      23.473  10.990   9.241  1.00  0.00    -0.008 A 
HETATM   22  C11 UNL     1      22.922  13.213  10.752  1.00  0.00     0.002 A 
HETATM   23  C12 UNL     1      23.022  12.013  11.397  1.00  0.00     0.001 A 
HETATM   24  C13 UNL     1      23.302  10.895  10.613  1.00  0.00     0.014 A 
HETATM   25  C15 UNL     1      23.751   9.846   8.505  1.00  0.00     0.035 A 
ENDBRANCH  14  15
ENDBRANCH   1  14
TORSDOF 3
ENDMDL
MODEL 5
REMARK VINA RESULT: 3.513962149      1.750      8.851
REMARK  3 active torsions:
REMARK  status: ('A' for Active; 'I' for Inactive)
REMARK    1  A    between atoms: C4_4  and  C5_5 
REMARK    2  A    between atoms: C5_5  and  C6_6 
REMARK    3  A    between atoms: C6_6  and  C7_7 
ROOT
HETATM    1  C5  UNL     1      27.532   1.525   3.527  1.00  0.00    -0.061 C 
ENDROOT
BRANCH   1   2
HETATM    2  C4  UNL     1      27.999   0.175   3.658  1.00  0.00     0.021 A 
HETATM    3  C3  UNL     1      27.116  -0.843   3.952  1.00  0.00     0.029 A 
HETATM    4  C2  UNL     1      27.553  -2.167   4.085  1.00  0.00    -0.032 A 
HETATM    5  C1  UNL     1      26.647  -3.280   4.397  1.00  0.00     0.050 C 
HETATM    6  C19 UNL     1      28.908  -2.429   3.911  1.00  0.00     0.066 A 
HETATM    7  C17 UNL     1      29.804  -1.434   3.618  1.00  0.00     0.061 A 
HETATM    8  N3  UNL     1      29.650  -3.567   3.967  1.00  0.00    -0.350 N 
HETATM    9  C16 UNL     1      29.332  -0.157   3.498  1.00  0.00     0.052 A 
HETATM   10  N2  UNL     1      31.046  -1.928   3.497  1.00  0.00    -0.350 N 
HETATM   11  C18 UNL     1      30.936  -3.255   3.716  1.00  0.00     0.181 A 
ATOM     12  H2  UNL     1      31.897  -1.408   3.284  1.00  0.00     0.166 HD
ATOM     13  H3  UNL     1      29.293  -4.502   4.166  1.00  0.00     0.166 HD
ENDBRANCH   1   2
BRANCH   1  14
HETATM   14  C6  UNL     1      27.131   2.657   3.417  1.00  0.00    -0.060 C 
BRANCH  14  15
HETATM   15  C7  UNL     1      26.631   3.992   3.292  1.00  0.00     0.034 A 
HETATM   16  C8  UNL     1      27.145   4.912   2.406  1.00  0.00     0.109 A 
HETATM   17  N1  UNL     1      26.666   6.165   2.298  1.00  0.00    -0.364 N 
HETATM   18  C9  UNL     1      25.640   6.578   3.072  1.00  0.00     0.042 A 
ATOM     19  H1  UNL     1      27.083   6.808   1.625  1.00  0.00     0.165 HD
HETATM   20  C10 UNL     1      25.156   7.876   2.949  1.00  0.00     0.030 A 
HETATM   21  C14 UNL     1      25.105   5.679   3.968  1.00  0.00    -0.008 A 
HETATM   22  C11 UNL     1      24.105   8.226   3.773  1.00  0.00     0.002 A 
HETATM   23  C12 UNL     1      23.529   7.384   4.682  1.00  0.00     0.001 A 
HETATM   24  C13 UNL     1      24.051   6.094   4.767  1.00  0.00     0.014 A 
HETATM   25  C15 UNL     1      25.587   4.383   4.092  1.00  0.00     0.035 A 
ENDBRANCH  14  15
ENDBRANCH   1  14
TORSDOF 3
ENDMDL
