MODEL 1
REMARK VINA RESULT: 3.554010779      0.000      0.000
REMARK  2 active torsions:
REMARK  status: ('A' for Active; 'I' for Inactive)
REMARK    1  A    between atoms: C8_9  and  C9_10 
REMARK    2  A    between atoms: C10_11  and  C11_12 
ROOT
HETATM    1  N1  UNL     1      25.745  -0.556   4.891  1.00  0.00    -0.191 NA
HETATM    2  C1  UNL     1      25.778   0.530   4.520  1.00  0.00     0.099 C 
HETATM    3  C2  UNL     1      25.828   1.884   4.043  1.00  0.00     0.045 A 
HETATM    4  C3  UNL     1      26.299   2.159   2.775  1.00  0.00     0.023 A 
HETATM    5  C4  UNL     1      26.367   3.434   2.269  1.00  0.00     0.014 A 
HETATM    6  C5  UNL     1      25.949   4.508   3.057  1.00  0.00    -0.026 A 
HETATM    7  C6  UNL     1      26.013   5.791   2.562  1.00  0.00     0.014 A 
HETATM    8  C7  UNL     1      25.592   6.821   3.368  1.00  0.00     0.021 A 
HETATM    9  C8  UNL     1      25.109   6.606   4.652  1.00  0.00     0.019 A 
HETATM   10  C18 UNL     1      25.047   5.320   5.144  1.00  0.00     0.032 A 
HETATM   11  C19 UNL     1      25.474   4.268   4.328  1.00  0.00    -0.023 A 
HETATM   12  C20 UNL     1      25.421   2.956   4.801  1.00  0.00     0.035 A 
ENDROOT
BRANCH   9  13
HETATM   13  C9  UNL     1      24.665   7.670   5.508  1.00  0.00    -0.059 C 
HETATM   14  C10 UNL     1      24.307   8.576   6.242  1.00  0.00    -0.025 C 
BRANCH  14  15
HETATM   15  C11 UNL     1      23.912   9.638   7.113  1.00  0.00     0.163 A 
HETATM   16  N2  UNL     1      23.695  10.939   6.816  1.00  0.00    -0.333 N 
HETATM   17  C12 UNL     1      23.340  11.615   7.896  1.00  0.00     0.061 A 
ATOM     18  H2  UNL     1      23.791  11.344   5.885  1.00  0.00     0.168 HD
HETATM   19  C13 UNL     1      23.021  12.937   8.096  1.00  0.00     0.032 A 
HETATM   20  C17 UNL     1      23.325  10.718   8.943  1.00  0.00     0.061 A 
HETATM   21  C14 UNL     1      22.677  13.376   9.383  1.00  0.00     0.002 A 
HETATM   22  C15 UNL     1      22.657  12.494  10.438  1.00  0.00     0.002 A 
HETATM   23  C16 UNL     1      22.984  11.161  10.210  1.00  0.00     0.032 A 
HETATM   24  N3  UNL     1      23.682   9.510   8.430  1.00  0.00    -0.333 N 
ATOM     25  H3  UNL     1      23.762   8.644   8.962  1.00  0.00     0.168 HD
ENDBRANCH  14  15
ENDBRANCH   9  13
TORSDOF 2
ENDMDL
MODEL 2
REMARK VINA RESULT: 3.686607611      0.056      1.183
REMARK  2 active torsions:
REMARK  status: ('A' for Active; 'I' for Inactive)
REMARK    1  A    between atoms: C8_9  and  C9_10 
REMARK    2  A    between atoms: C10_11  and  C11_12 
ROOT
HETATM    1  N1  UNL     1      25.745  -0.608   4.887  1.00  0.00    -0.191 NA
HETATM    2  C1  UNL     1      25.781   0.478   4.518  1.00  0.00     0.099 C 
HETATM    3  C2  UNL     1      25.833   1.833   4.044  1.00  0.00     0.045 A 
HETATM    4  C3  UNL     1      26.308   2.110   2.777  1.00  0.00     0.023 A 
HETATM    5  C4  UNL     1      26.379   3.386   2.274  1.00  0.00     0.014 A 
HETATM    6  C5  UNL     1      25.960   4.459   3.063  1.00  0.00    -0.026 A 
HETATM    7  C6  UNL     1      26.026   5.742   2.570  1.00  0.00     0.014 A 
HETATM    8  C7  UNL     1      25.604   6.771   3.376  1.00  0.00     0.021 A 
HETATM    9  C8  UNL     1      25.117   6.554   4.659  1.00  0.00     0.019 A 
HETATM   10  C18 UNL     1      25.052   5.268   5.148  1.00  0.00     0.032 A 
HETATM   11  C19 UNL     1      25.481   4.217   4.332  1.00  0.00    -0.023 A 
HETATM   12  C20 UNL     1      25.425   2.904   4.803  1.00  0.00     0.035 A 
ENDROOT
BRANCH   9  13
HETATM   13  C9  UNL     1      24.672   7.617   5.515  1.00  0.00    -0.059 C 
HETATM   14  C10 UNL     1      24.312   8.520   6.253  1.00  0.00    -0.025 C 
BRANCH  14  15
HETATM   15  C11 UNL     1      23.912   9.574   7.132  1.00  0.00     0.163 A 
HETATM   16  N2  UNL     1      23.665   9.520   8.460  1.00  0.00    -0.333 N 
HETATM   17  C12 UNL     1      23.317  10.709   8.922  1.00  0.00     0.061 A 
ATOM     18  H2  UNL     1      23.737   8.676   9.028  1.00  0.00     0.168 HD
HETATM   19  C13 UNL     1      22.976  11.149  10.179  1.00  0.00     0.032 A 
HETATM   20  C17 UNL     1      23.337  11.577   7.851  1.00  0.00     0.061 A 
HETATM   21  C14 UNL     1      22.645  12.498  10.372  1.00  0.00     0.002 A 
HETATM   22  C15 UNL     1      22.661  13.376   9.313  1.00  0.00     0.002 A 
HETATM   23  C16 UNL     1      23.010  12.907   8.050  1.00  0.00     0.032 A 
HETATM   24  N3  UNL     1      23.707  10.849   6.763  1.00  0.00    -0.333 N 
ATOM     25  H3  UNL     1      23.812  11.214   5.817  1.00  0.00     0.168 HD
ENDBRANCH  14  15
ENDBRANCH   9  13
TORSDOF 2
ENDMDL
MODEL 3
REMARK VINA RESULT: 4.188923659      1.549      1.864
REMARK  2 active torsions:
REMARK  status: ('A' for Active; 'I' for Inactive)
REMARK    1  A    between atoms: C8_9  and  C9_10 
REMARK    2  A    between atoms: C10_11  and  C11_12 
ROOT
HETATM    1  N1  UNL     1      29.869   1.144   3.271  1.00  0.00    -0.191 NA
HETATM    2  C1  UNL     1      28.817   1.599   3.342  1.00  0.00     0.099 C 
HETATM    3  C2  UNL     1      27.497   2.158   3.423  1.00  0.00     0.045 A 
HETATM    4  C3  UNL     1      26.422   1.486   2.874  1.00  0.00     0.023 A 
HETATM    5  C4  UNL     1      25.139   1.974   2.923  1.00  0.00     0.014 A 
HETATM    6  C5  UNL     1      24.894   3.198   3.548  1.00  0.00    -0.026 A 
HETATM    7  C6  UNL     1      23.613   3.698   3.603  1.00  0.00     0.014 A 
HETATM    8  C7  UNL     1      23.412   4.906   4.227  1.00  0.00     0.021 A 
HETATM    9  C8  UNL     1      24.454   5.627   4.797  1.00  0.00     0.019 A 
HETATM   10  C18 UNL     1      25.734   5.122   4.739  1.00  0.00     0.032 A 
HETATM   11  C19 UNL     1      25.945   3.894   4.105  1.00  0.00    -0.023 A 
HETATM   12  C20 UNL     1      27.232   3.360   4.034  1.00  0.00     0.035 A 
ENDROOT
BRANCH   9  13
HETATM   13  C9  UNL     1      24.262   6.889   5.453  1.00  0.00    -0.059 C 
HETATM   14  C10 UNL     1      24.100   7.953   6.029  1.00  0.00    -0.025 C 
BRANCH  14  15
HETATM   15  C11 UNL     1      23.909   9.186   6.726  1.00  0.00     0.163 A 
HETATM   16  N2  UNL     1      23.849  10.440   6.225  1.00  0.00    -0.333 N 
HETATM   17  C12 UNL     1      23.659  11.323   7.191  1.00  0.00     0.061 A 
ATOM     18  H2  UNL     1      23.938  10.674   5.237  1.00  0.00     0.168 HD
HETATM   19  C13 UNL     1      23.534  12.692   7.181  1.00  0.00     0.032 A 
HETATM   20  C17 UNL     1      23.592  10.616   8.373  1.00  0.00     0.061 A 
HETATM   21  C14 UNL     1      23.337  13.376   8.389  1.00  0.00     0.002 A 
HETATM   22  C15 UNL     1      23.267  12.684   9.577  1.00  0.00     0.002 A 
HETATM   23  C16 UNL     1      23.397  11.299   9.561  1.00  0.00     0.032 A 
HETATM   24  N3  UNL     1      23.750   9.303   8.055  1.00  0.00    -0.333 N 
ATOM     25  H3  UNL     1      23.747   8.530   8.719  1.00  0.00     0.168 HD
ENDBRANCH  14  15
ENDBRANCH   9  13
TORSDOF 2
ENDMDL
MODEL 4
REMARK VINA RESULT: 4.611841702      1.566      2.256
REMARK  2 active torsions:
REMARK  status: ('A' for Active; 'I' for Inactive)
REMARK    1  A    between atoms: C8_9  and  C9_10 
REMARK    2  A    between atoms: C10_11  and  C11_12 
ROOT
HETATM    1  N1  UNL     1      29.726   1.020   3.072  1.00  0.00    -0.191 NA
HETATM    2  C1  UNL     1      28.677   1.472   3.185  1.00  0.00     0.099 C 
HETATM    3  C2  UNL     1      27.359   2.026   3.318  1.00  0.00     0.045 A 
HETATM    4  C3  UNL     1      26.263   1.342   2.830  1.00  0.00     0.023 A 
HETATM    5  C4  UNL     1      24.981   1.825   2.931  1.00  0.00     0.014 A 
HETATM    6  C5  UNL     1      24.760   3.058   3.548  1.00  0.00    -0.026 A 
HETATM    7  C6  UNL     1      23.480   3.554   3.655  1.00  0.00     0.014 A 
HETATM    8  C7  UNL     1      23.303   4.770   4.268  1.00  0.00     0.021 A 
HETATM    9  C8  UNL     1      24.367   5.504   4.777  1.00  0.00     0.019 A 
HETATM   10  C18 UNL     1      25.646   5.004   4.668  1.00  0.00     0.032 A 
HETATM   11  C19 UNL     1      25.832   3.767   4.044  1.00  0.00    -0.023 A 
HETATM   12  C20 UNL     1      27.117   3.237   3.922  1.00  0.00     0.035 A 
ENDROOT
BRANCH   9  13
HETATM   13  C9  UNL     1      24.199   6.777   5.421  1.00  0.00    -0.059 C 
HETATM   14  C10 UNL     1      24.060   7.849   5.987  1.00  0.00    -0.025 C 
BRANCH  14  15
HETATM   15  C11 UNL     1      23.898   9.092   6.673  1.00  0.00     0.163 A 
HETATM   16  N2  UNL     1      23.665   9.309   7.987  1.00  0.00    -0.333 N 
HETATM   17  C12 UNL     1      23.575  10.603   8.241  1.00  0.00     0.061 A 
ATOM     18  H2  UNL     1      23.571   8.574   8.687  1.00  0.00     0.168 HD
HETATM   19  C13 UNL     1      23.350  11.305   9.402  1.00  0.00     0.032 A 
HETATM   20  C17 UNL     1      23.757  11.261   7.042  1.00  0.00     0.061 A 
HETATM   21  C14 UNL     1      23.306  12.706   9.364  1.00  0.00     0.002 A 
HETATM   22  C15 UNL     1      23.487  13.376   8.176  1.00  0.00     0.002 A 
HETATM   23  C16 UNL     1      23.712  12.644   7.014  1.00  0.00     0.032 A 
HETATM   24  N3  UNL     1      23.953  10.304   6.096  1.00  0.00    -0.333 N 
ATOM     25  H3  UNL     1      24.117  10.479   5.105  1.00  0.00     0.168 HD
ENDBRANCH  14  15
ENDBRANCH   9  13
TORSDOF 2
ENDMDL
MODEL 5
REMARK VINA RESULT: 7.412816454      1.017      1.017
REMARK  2 active torsions:
REMARK  status: ('A' for Active; 'I' for Inactive)
REMARK    1  A    between atoms: C8_9  and  C9_10 
REMARK    2  A    between atoms: C10_11  and  C11_12 
ROOT
HETATM    1  N1  UNL     1      23.504  -0.226   2.932  1.00  0.00    -0.191 NA
HETATM    2  C1  UNL     1      24.092   0.759   2.977  1.00  0.00     0.099 C 
HETATM    3  C2  UNL     1      24.839   1.985   3.025  1.00  0.00     0.045 A 
HETATM    4  C3  UNL     1      26.014   2.113   2.312  1.00  0.00     0.023 A 
HETATM    5  C4  UNL     1      26.766   3.262   2.322  1.00  0.00     0.014 A 
HETATM    6  C5  UNL     1      26.341   4.354   3.081  1.00  0.00    -0.026 A 
HETATM    7  C6  UNL     1      27.086   5.511   3.100  1.00  0.00     0.014 A 
HETATM    8  C7  UNL     1      26.635   6.563   3.859  1.00  0.00     0.021 A 
HETATM    9  C8  UNL     1      25.460   6.493   4.598  1.00  0.00     0.019 A 
HETATM   10  C18 UNL     1      24.717   5.333   4.575  1.00  0.00     0.032 A 
HETATM   11  C19 UNL     1      25.172   4.258   3.805  1.00  0.00    -0.023 A 
HETATM   12  C20 UNL     1      24.438   3.072   3.764  1.00  0.00     0.035 A 
ENDROOT
BRANCH   9  13
HETATM   13  C9  UNL     1      24.973   7.582   5.396  1.00  0.00    -0.059 C 
HETATM   14  C10 UNL     1      24.571   8.502   6.090  1.00  0.00    -0.025 C 
BRANCH  14  15
HETATM   15  C11 UNL     1      24.112   9.567   6.924  1.00  0.00     0.163 A 
HETATM   16  N2  UNL     1      23.856  10.852   6.591  1.00  0.00    -0.333 N 
HETATM   17  C12 UNL     1      23.445  11.538   7.644  1.00  0.00     0.061 A 
ATOM     18  H2  UNL     1      23.965  11.240   5.654  1.00  0.00     0.168 HD
HETATM   19  C13 UNL     1      23.072  12.852   7.804  1.00  0.00     0.032 A 
HETATM   20  C17 UNL     1      23.432  10.665   8.711  1.00  0.00     0.061 A 
HETATM   21  C14 UNL     1      22.675  13.307   9.069  1.00  0.00     0.002 A 
HETATM   22  C15 UNL     1      22.656  12.448  10.144  1.00  0.00     0.002 A 
HETATM   23  C16 UNL     1      23.038  11.123   9.957  1.00  0.00     0.032 A 
HETATM   24  N3  UNL     1      23.848   9.460   8.237  1.00  0.00    -0.333 N 
ATOM     25  H3  UNL     1      23.943   8.609   8.791  1.00  0.00     0.168 HD
ENDBRANCH  14  15
ENDBRANCH   9  13
TORSDOF 2
ENDMDL
