MODEL 1
REMARK VINA RESULT: -7.361282758      0.000      0.000
REMARK  11 active torsions:
REMARK  status: ('A' for Active; 'I' for Inactive)
REMARK    1  A    between atoms: C2_2  and  O2_4 
REMARK    2  A    between atoms: O2_4  and  C3_5 
REMARK    3  A    between atoms: C3_5  and  C4_6 
REMARK    4  A    between atoms: C4_6  and  O4_8 
REMARK    5  A    between atoms: O4_8  and  C5_9 
REMARK    6  A    between atoms: C5_9  and  C6_11 
REMARK    7  A    between atoms: C6_11  and  O6_13 
REMARK    8  A    between atoms: O6_13  and  C8_14 
REMARK    9  A    between atoms: C12_19  and  O8_20 
REMARK   10  A    between atoms: O8_20  and  C13_21 
REMARK       I    between atoms: C13_21  and  N1_23 
REMARK   11  A    between atoms: N1_23  and  C14_25 
ROOT
HETATM    1  C3  UNL     1      22.643  30.750  18.167  1.00  0.00     0.184 C 
HETATM    2  C9  UNL     1      23.591  31.900  18.503  1.00  0.00     0.052 C 
HETATM    3  C10 UNL     1      23.501  31.990  20.006  1.00  0.00     0.006 C 
HETATM    4  C11 UNL     1      23.536  30.527  20.412  1.00  0.00     0.036 C 
HETATM    5  C12 UNL     1      22.539  29.930  19.441  1.00  0.00     0.179 C 
ENDROOT
BRANCH   1   6
HETATM    6  O2  UNL     1      23.156  29.921  17.175  1.00  0.00    -0.297 OA
BRANCH   6   7
HETATM    7  C2  UNL     1      22.522  29.531  16.024  1.00  0.00     0.256 C 
HETATM    8  C1  UNL     1      22.709  30.205  14.705  1.00  0.00     0.126 C 
HETATM    9  O1  UNL     1      21.745  28.562  16.071  1.00  0.00    -0.266 OA
ENDBRANCH   6   7
ENDBRANCH   1   6
BRANCH   1  10
HETATM   10  C4  UNL     1      21.338  31.363  17.824  1.00  0.00     0.304 C 
HETATM   11  O3  UNL     1      20.280  30.863  18.283  1.00  0.00    -0.261 OA
BRANCH  10  12
HETATM   12  O4  UNL     1      21.183  32.478  17.015  1.00  0.00    -0.240 OA
BRANCH  12  13
HETATM   13  C5  UNL     1      20.991  33.754  17.517  1.00  0.00     0.295 C 
HETATM   14  O5  UNL     1      20.599  33.897  18.700  1.00  0.00    -0.262 OA
BRANCH  13  15
HETATM   15  C6  UNL     1      21.227  34.978  16.712  1.00  0.00     0.227 C 
HETATM   16  C7  UNL     1      22.700  34.993  16.354  1.00  0.00     0.051 C 
BRANCH  15  17
HETATM   17  O6  UNL     1      20.397  35.050  15.594  1.00  0.00    -0.313 OA
BRANCH  17  18
HETATM   18  C8  UNL     1      19.385  35.962  15.449  1.00  0.00     0.399 C 
HETATM   19  O7  UNL     1      18.264  35.718  15.938  1.00  0.00    -0.276 OA
ENDBRANCH  17  18
ENDBRANCH  15  17
ENDBRANCH  13  15
ENDBRANCH  12  13
ENDBRANCH  10  12
ENDBRANCH   1  10
BRANCH   5  20
HETATM   20  O8  UNL     1      22.914  28.585  19.240  1.00  0.00    -0.295 OA
BRANCH  20  21
HETATM   21  C13 UNL     1      22.075  27.513  19.432  1.00  0.00     0.361 C 
HETATM   22  O9  UNL     1      22.417  26.419  18.887  1.00  0.00    -0.238 OA
HETATM   23  N1  UNL     1      20.876  27.574  20.193  1.00  0.00    -0.333 N 
ATOM     24  H1  UNL     1      20.597  28.451  20.633  1.00  0.00     0.165 HD
BRANCH  23  25
HETATM   25  C14 UNL     1      20.052  26.401  20.345  1.00  0.00     0.078 C 
HETATM   26  C15 UNL     1      19.924  25.999  21.798  1.00  0.00     0.032 C 
HETATM   27  C16 UNL     1      18.678  26.592  19.726  1.00  0.00     0.032 C 
ENDBRANCH  23  25
ENDBRANCH  20  21
ENDBRANCH   5  20
TORSDOF 11
ENDMDL
MODEL 2
REMARK VINA RESULT: -7.312341622      1.352      1.723
REMARK  11 active torsions:
REMARK  status: ('A' for Active; 'I' for Inactive)
REMARK    1  A    between atoms: C2_2  and  O2_4 
REMARK    2  A    between atoms: O2_4  and  C3_5 
REMARK    3  A    between atoms: C3_5  and  C4_6 
REMARK    4  A    between atoms: C4_6  and  O4_8 
REMARK    5  A    between atoms: O4_8  and  C5_9 
REMARK    6  A    between atoms: C5_9  and  C6_11 
REMARK    7  A    between atoms: C6_11  and  O6_13 
REMARK    8  A    between atoms: O6_13  and  C8_14 
REMARK    9  A    between atoms: C12_19  and  O8_20 
REMARK   10  A    between atoms: O8_20  and  C13_21 
REMARK       I    between atoms: C13_21  and  N1_23 
REMARK   11  A    between atoms: N1_23  and  C14_25 
ROOT
HETATM    1  C3  UNL     1      22.498  30.683  18.183  1.00  0.00     0.184 C 
HETATM    2  C9  UNL     1      23.462  31.856  18.357  1.00  0.00     0.052 C 
HETATM    3  C10 UNL     1      23.564  31.996  19.856  1.00  0.00     0.006 C 
HETATM    4  C11 UNL     1      23.676  30.548  20.300  1.00  0.00     0.036 C 
HETATM    5  C12 UNL     1      22.573  29.906  19.486  1.00  0.00     0.179 C 
ENDROOT
BRANCH   1   6
HETATM    6  O2  UNL     1      22.893  29.828  17.160  1.00  0.00    -0.297 OA
BRANCH   6   7
HETATM    7  C2  UNL     1      23.424  30.189  15.949  1.00  0.00     0.256 C 
HETATM    8  C1  UNL     1      22.605  30.649  14.789  1.00  0.00     0.126 C 
HETATM    9  O1  UNL     1      24.657  30.134  15.799  1.00  0.00    -0.266 OA
ENDBRANCH   6   7
ENDBRANCH   1   6
BRANCH   1  10
HETATM   10  C4  UNL     1      21.149  31.268  17.993  1.00  0.00     0.304 C 
HETATM   11  O3  UNL     1      20.229  30.558  17.515  1.00  0.00    -0.261 OA
BRANCH  10  12
HETATM   12  O4  UNL     1      20.809  32.575  18.307  1.00  0.00    -0.240 OA
BRANCH  12  13
HETATM   13  C5  UNL     1      20.150  32.923  19.474  1.00  0.00     0.295 C 
HETATM   14  O5  UNL     1      19.725  32.019  20.234  1.00  0.00    -0.262 OA
BRANCH  13  15
HETATM   15  C6  UNL     1      19.918  34.332  19.875  1.00  0.00     0.227 C 
HETATM   16  C7  UNL     1      21.279  34.990  19.988  1.00  0.00     0.051 C 
BRANCH  15  17
HETATM   17  O6  UNL     1      19.062  35.002  19.001  1.00  0.00    -0.313 OA
BRANCH  17  18
HETATM   18  C8  UNL     1      19.481  35.919  18.074  1.00  0.00     0.399 C 
HETATM   19  O7  UNL     1      19.490  35.610  16.865  1.00  0.00    -0.276 OA
ENDBRANCH  17  18
ENDBRANCH  15  17
ENDBRANCH  13  15
ENDBRANCH  12  13
ENDBRANCH  10  12
ENDBRANCH   1  10
BRANCH   5  20
HETATM   20  O8  UNL     1      22.942  28.559  19.280  1.00  0.00    -0.295 OA
BRANCH  20  21
HETATM   21  C13 UNL     1      22.098  27.491  19.470  1.00  0.00     0.361 C 
HETATM   22  O9  UNL     1      22.423  26.403  18.904  1.00  0.00    -0.238 OA
HETATM   23  N1  UNL     1      20.911  27.549  20.250  1.00  0.00    -0.333 N 
ATOM     24  H1  UNL     1      20.645  28.422  20.707  1.00  0.00     0.165 HD
BRANCH  23  25
HETATM   25  C14 UNL     1      20.081  26.380  20.398  1.00  0.00     0.078 C 
HETATM   26  C15 UNL     1      19.904  26.008  21.853  1.00  0.00     0.032 C 
HETATM   27  C16 UNL     1      18.729  26.559  19.729  1.00  0.00     0.032 C 
ENDBRANCH  23  25
ENDBRANCH  20  21
ENDBRANCH   5  20
TORSDOF 11
ENDMDL
MODEL 3
REMARK VINA RESULT: -7.264427972      1.441      2.350
REMARK  11 active torsions:
REMARK  status: ('A' for Active; 'I' for Inactive)
REMARK    1  A    between atoms: C2_2  and  O2_4 
REMARK    2  A    between atoms: O2_4  and  C3_5 
REMARK    3  A    between atoms: C3_5  and  C4_6 
REMARK    4  A    between atoms: C4_6  and  O4_8 
REMARK    5  A    between atoms: O4_8  and  C5_9 
REMARK    6  A    between atoms: C5_9  and  C6_11 
REMARK    7  A    between atoms: C6_11  and  O6_13 
REMARK    8  A    between atoms: O6_13  and  C8_14 
REMARK    9  A    between atoms: C12_19  and  O8_20 
REMARK   10  A    between atoms: O8_20  and  C13_21 
REMARK       I    between atoms: C13_21  and  N1_23 
REMARK   11  A    between atoms: N1_23  and  C14_25 
ROOT
HETATM    1  C3  UNL     1      22.767  30.770  17.840  1.00  0.00     0.184 C 
HETATM    2  C9  UNL     1      23.816  31.609  18.570  1.00  0.00     0.052 C 
HETATM    3  C10 UNL     1      23.446  31.431  20.022  1.00  0.00     0.006 C 
HETATM    4  C11 UNL     1      23.145  29.944  20.091  1.00  0.00     0.036 C 
HETATM    5  C12 UNL     1      22.271  29.766  18.866  1.00  0.00     0.179 C 
ENDROOT
BRANCH   1   6
HETATM    6  O2  UNL     1      23.314  30.054  16.781  1.00  0.00    -0.297 OA
BRANCH   6   7
HETATM    7  C2  UNL     1      22.912  30.093  15.472  1.00  0.00     0.256 C 
HETATM    8  C1  UNL     1      22.060  29.046  14.835  1.00  0.00     0.126 C 
HETATM    9  O1  UNL     1      23.273  31.050  14.766  1.00  0.00    -0.266 OA
ENDBRANCH   6   7
ENDBRANCH   1   6
BRANCH   1  10
HETATM   10  C4  UNL     1      21.683  31.700  17.444  1.00  0.00     0.304 C 
HETATM   11  O3  UNL     1      20.527  31.251  17.241  1.00  0.00    -0.261 OA
BRANCH  10  12
HETATM   12  O4  UNL     1      21.844  33.066  17.272  1.00  0.00    -0.240 OA
BRANCH  12  13
HETATM   13  C5  UNL     1      21.069  34.005  17.931  1.00  0.00     0.295 C 
HETATM   14  O5  UNL     1      20.567  34.954  17.281  1.00  0.00    -0.262 OA
BRANCH  13  15
HETATM   15  C6  UNL     1      20.799  33.945  19.388  1.00  0.00     0.227 C 
HETATM   16  C7  UNL     1      21.263  35.262  19.978  1.00  0.00     0.051 C 
BRANCH  15  17
HETATM   17  O6  UNL     1      19.463  33.664  19.673  1.00  0.00    -0.313 OA
BRANCH  17  18
HETATM   18  C8  UNL     1      19.023  32.468  20.176  1.00  0.00     0.399 C 
HETATM   19  O7  UNL     1      19.846  31.664  20.657  1.00  0.00    -0.276 OA
ENDBRANCH  17  18
ENDBRANCH  15  17
ENDBRANCH  13  15
ENDBRANCH  12  13
ENDBRANCH  10  12
ENDBRANCH   1  10
BRANCH   5  20
HETATM   20  O8  UNL     1      22.439  28.434  18.430  1.00  0.00    -0.295 OA
BRANCH  20  21
HETATM   21  C13 UNL     1      21.574  27.410  18.731  1.00  0.00     0.361 C 
HETATM   22  O9  UNL     1      21.384  26.542  17.824  1.00  0.00    -0.238 OA
HETATM   23  N1  UNL     1      20.901  27.281  19.976  1.00  0.00    -0.333 N 
ATOM     24  H1  UNL     1      21.051  27.976  20.708  1.00  0.00     0.165 HD
BRANCH  23  25
HETATM   25  C14 UNL     1      20.009  26.174  20.210  1.00  0.00     0.078 C 
HETATM   26  C15 UNL     1      20.003  25.765  21.666  1.00  0.00     0.032 C 
HETATM   27  C16 UNL     1      18.596  26.478  19.740  1.00  0.00     0.032 C 
ENDBRANCH  23  25
ENDBRANCH  20  21
ENDBRANCH   5  20
TORSDOF 11
ENDMDL
MODEL 4
REMARK VINA RESULT: -7.213303869      2.469      5.461
REMARK  11 active torsions:
REMARK  status: ('A' for Active; 'I' for Inactive)
REMARK    1  A    between atoms: C2_2  and  O2_4 
REMARK    2  A    between atoms: O2_4  and  C3_5 
REMARK    3  A    between atoms: C3_5  and  C4_6 
REMARK    4  A    between atoms: C4_6  and  O4_8 
REMARK    5  A    between atoms: O4_8  and  C5_9 
REMARK    6  A    between atoms: C5_9  and  C6_11 
REMARK    7  A    between atoms: C6_11  and  O6_13 
REMARK    8  A    between atoms: O6_13  and  C8_14 
REMARK    9  A    between atoms: C12_19  and  O8_20 
REMARK   10  A    between atoms: O8_20  and  C13_21 
REMARK       I    between atoms: C13_21  and  N1_23 
REMARK   11  A    between atoms: N1_23  and  C14_25 
ROOT
HETATM    1  C3  UNL     1      21.377  28.369  18.801  1.00  0.00     0.184 C 
HETATM    2  C9  UNL     1      22.225  27.551  19.775  1.00  0.00     0.052 C 
HETATM    3  C10 UNL     1      23.363  28.485  20.105  1.00  0.00     0.006 C 
HETATM    4  C11 UNL     1      22.642  29.809  20.290  1.00  0.00     0.036 C 
HETATM    5  C12 UNL     1      21.734  29.820  19.078  1.00  0.00     0.179 C 
ENDROOT
BRANCH   1   6
HETATM    6  O2  UNL     1      20.015  28.219  19.038  1.00  0.00    -0.297 OA
BRANCH   6   7
HETATM    7  C2  UNL     1      19.412  27.204  19.733  1.00  0.00     0.256 C 
HETATM    8  C1  UNL     1      19.197  27.223  21.210  1.00  0.00     0.126 C 
HETATM    9  O1  UNL     1      19.018  26.205  19.107  1.00  0.00    -0.266 OA
ENDBRANCH   6   7
ENDBRANCH   1   6
BRANCH   1  10
HETATM   10  C4  UNL     1      21.799  27.973  17.436  1.00  0.00     0.304 C 
HETATM   11  O3  UNL     1      21.434  26.863  16.974  1.00  0.00    -0.261 OA
BRANCH  10  12
HETATM   12  O4  UNL     1      22.588  28.749  16.602  1.00  0.00    -0.240 OA
BRANCH  12  13
HETATM   13  C5  UNL     1      22.064  29.673  15.713  1.00  0.00     0.295 C 
HETATM   14  O5  UNL     1      20.828  29.888  15.706  1.00  0.00    -0.262 OA
BRANCH  13  15
HETATM   15  C6  UNL     1      22.905  30.431  14.753  1.00  0.00     0.227 C 
HETATM   16  C7  UNL     1      22.091  30.592  13.485  1.00  0.00     0.051 C 
BRANCH  15  17
HETATM   17  O6  UNL     1      23.344  31.647  15.274  1.00  0.00    -0.313 OA
BRANCH  17  18
HETATM   18  C8  UNL     1      24.055  31.770  16.438  1.00  0.00     0.399 C 
HETATM   19  O7  UNL     1      25.089  31.090  16.600  1.00  0.00    -0.276 OA
ENDBRANCH  17  18
ENDBRANCH  15  17
ENDBRANCH  13  15
ENDBRANCH  12  13
ENDBRANCH  10  12
ENDBRANCH   1  10
BRANCH   5  20
HETATM   20  O8  UNL     1      20.601  30.590  19.418  1.00  0.00    -0.295 OA
BRANCH  20  21
HETATM   21  C13 UNL     1      20.464  31.927  19.128  1.00  0.00     0.361 C 
HETATM   22  O9  UNL     1      20.806  32.293  17.962  1.00  0.00    -0.238 OA
HETATM   23  N1  UNL     1      19.968  32.889  20.049  1.00  0.00    -0.333 N 
ATOM     24  H1  UNL     1      19.690  32.599  20.987  1.00  0.00     0.165 HD
BRANCH  23  25
HETATM   25  C14 UNL     1      19.855  34.273  19.663  1.00  0.00     0.078 C 
HETATM   26  C15 UNL     1      18.600  34.904  20.225  1.00  0.00     0.032 C 
HETATM   27  C16 UNL     1      21.079  35.075  20.071  1.00  0.00     0.032 C 
ENDBRANCH  23  25
ENDBRANCH  20  21
ENDBRANCH   5  20
TORSDOF 11
ENDMDL
MODEL 5
REMARK VINA RESULT: -7.164459159      2.322      4.678
REMARK  11 active torsions:
REMARK  status: ('A' for Active; 'I' for Inactive)
REMARK    1  A    between atoms: C2_2  and  O2_4 
REMARK    2  A    between atoms: O2_4  and  C3_5 
REMARK    3  A    between atoms: C3_5  and  C4_6 
REMARK    4  A    between atoms: C4_6  and  O4_8 
REMARK    5  A    between atoms: O4_8  and  C5_9 
REMARK    6  A    between atoms: C5_9  and  C6_11 
REMARK    7  A    between atoms: C6_11  and  O6_13 
REMARK    8  A    between atoms: O6_13  and  C8_14 
REMARK    9  A    between atoms: C12_19  and  O8_20 
REMARK   10  A    between atoms: O8_20  and  C13_21 
REMARK       I    between atoms: C13_21  and  N1_23 
REMARK   11  A    between atoms: N1_23  and  C14_25 
ROOT
HETATM    1  C3  UNL     1      21.123  31.929  19.650  1.00  0.00     0.184 C 
HETATM    2  C9  UNL     1      21.141  33.453  19.762  1.00  0.00     0.052 C 
HETATM    3  C10 UNL     1      19.690  33.826  19.587  1.00  0.00     0.006 C 
HETATM    4  C11 UNL     1      18.991  32.779  20.436  1.00  0.00     0.036 C 
HETATM    5  C12 UNL     1      19.701  31.518  19.990  1.00  0.00     0.179 C 
ENDROOT
BRANCH   1   6
HETATM    6  O2  UNL     1      21.967  31.326  20.576  1.00  0.00    -0.297 OA
BRANCH   6   7
HETATM    7  C2  UNL     1      23.190  30.760  20.323  1.00  0.00     0.256 C 
HETATM    8  C1  UNL     1      24.447  31.546  20.149  1.00  0.00     0.126 C 
HETATM    9  O1  UNL     1      23.266  29.523  20.232  1.00  0.00    -0.266 OA
ENDBRANCH   6   7
ENDBRANCH   1   6
BRANCH   1  10
HETATM   10  C4  UNL     1      21.444  31.604  18.240  1.00  0.00     0.304 C 
HETATM   11  O3  UNL     1      22.059  32.444  17.536  1.00  0.00    -0.261 OA
BRANCH  10  12
HETATM   12  O4  UNL     1      21.111  30.413  17.613  1.00  0.00    -0.240 OA
BRANCH  12  13
HETATM   13  C5  UNL     1      21.941  29.783  16.701  1.00  0.00     0.295 C 
HETATM   14  O5  UNL     1      23.070  29.379  17.073  1.00  0.00    -0.262 OA
BRANCH  13  15
HETATM   15  C6  UNL     1      21.556  29.559  15.286  1.00  0.00     0.227 C 
HETATM   16  C7  UNL     1      22.222  30.649  14.470  1.00  0.00     0.051 C 
BRANCH  15  17
HETATM   17  O6  UNL     1      21.877  28.276  14.842  1.00  0.00    -0.313 OA
BRANCH  17  18
HETATM   18  C8  UNL     1      22.351  27.997  13.588  1.00  0.00     0.399 C 
HETATM   19  O7  UNL     1      23.438  27.399  13.461  1.00  0.00    -0.276 OA
ENDBRANCH  17  18
ENDBRANCH  15  17
ENDBRANCH  13  15
ENDBRANCH  12  13
ENDBRANCH  10  12
ENDBRANCH   1  10
BRANCH   5  20
HETATM   20  O8  UNL     1      19.654  30.613  21.072  1.00  0.00    -0.295 OA
BRANCH  20  21
HETATM   21  C13 UNL     1      19.699  29.246  20.935  1.00  0.00     0.361 C 
HETATM   22  O9  UNL     1      19.071  28.568  21.805  1.00  0.00    -0.238 OA
HETATM   23  N1  UNL     1      20.397  28.578  19.893  1.00  0.00    -0.333 N 
ATOM     24  H1  UNL     1      20.903  29.119  19.192  1.00  0.00     0.165 HD
BRANCH  23  25
HETATM   25  C14 UNL     1      20.393  27.138  19.823  1.00  0.00     0.078 C 
HETATM   26  C15 UNL     1      18.998  26.599  19.598  1.00  0.00     0.032 C 
HETATM   27  C16 UNL     1      21.340  26.622  18.753  1.00  0.00     0.032 C 
ENDBRANCH  23  25
ENDBRANCH  20  21
ENDBRANCH   5  20
TORSDOF 11
ENDMDL
