MODEL 1
REMARK VINA RESULT: -6.706500703      0.000      0.000
REMARK  8 active torsions:
REMARK  status: ('A' for Active; 'I' for Inactive)
REMARK    1  A    between atoms: S1_2  and  C2_3 
REMARK       I    between atoms: N3_9  and  C4_11 
REMARK    2  A    between atoms: C4_11  and  C5_13 
REMARK    3  A    between atoms: C5_13  and  O2_14 
REMARK    4  A    between atoms: O2_14  and  C6_15 
REMARK    5  A    between atoms: C6_15  and  C7_17 
REMARK    6  A    between atoms: C7_17  and  S2_18 
REMARK    7  A    between atoms: S2_18  and  C8_19 
REMARK    8  A    between atoms: C8_19  and  C9_21 
ROOT
HETATM    1  C2  UNL     1      22.365  33.671  16.378  1.00  0.00     0.129 A 
HETATM    2  N1  UNL     1      21.480  32.914  15.747  1.00  0.00    -0.286 N 
ATOM      3  H1  UNL     1      20.548  33.281  15.553  1.00  0.00     0.188 HD
HETATM    4  N2  UNL     1      21.781  31.740  15.382  1.00  0.00    -0.278 N 
ATOM      5  H2  UNL     1      21.099  31.158  14.895  1.00  0.00     0.189 HD
HETATM    6  C3  UNL     1      23.005  31.275  15.644  1.00  0.00     0.168 A 
HETATM    7  N3  UNL     1      23.521  30.103  15.359  1.00  0.00    -0.304 N 
ATOM      8  H3  UNL     1      24.480  29.873  15.619  1.00  0.00     0.171 HD
HETATM    9  C4  UNL     1      22.714  29.181  14.689  1.00  0.00     0.247 C 
HETATM   10  O1  UNL     1      22.334  29.407  13.491  1.00  0.00    -0.271 OA
HETATM   11  S3  UNL     1      23.717  32.611  16.446  1.00  0.00    -0.026 SA
ENDROOT
BRANCH   9  12
HETATM   12  C5  UNL     1      22.288  27.936  15.358  1.00  0.00     0.281 C 
BRANCH  12  13
HETATM   13  O2  UNL     1      21.531  28.204  16.506  1.00  0.00    -0.311 OA
BRANCH  13  14
HETATM   14  C6  UNL     1      21.535  27.418  17.622  1.00  0.00     0.269 C 
HETATM   15  O3  UNL     1      21.494  26.161  17.564  1.00  0.00    -0.264 OA
BRANCH  14  16
HETATM   16  C7  UNL     1      21.589  27.988  18.994  1.00  0.00     0.193 C 
BRANCH  16  17
HETATM   17  S2  UNL     1      21.961  29.755  18.977  1.00  0.00    -0.082 SA
BRANCH  17  18
HETATM   18  C8  UNL     1      20.423  30.616  18.598  1.00  0.00     0.191 C 
HETATM   19  O4  UNL     1      20.139  30.718  17.408  1.00  0.00    -0.285 OA
BRANCH  18  20
HETATM   20  C9  UNL     1      19.541  31.172  19.644  1.00  0.00     0.075 A 
HETATM   21  C10 UNL     1      19.973  31.345  21.038  1.00  0.00     0.023 A 
HETATM   22  C11 UNL     1      19.734  32.550  20.163  1.00  0.00    -0.036 A 
HETATM   23  C12 UNL     1      20.989  33.332  19.851  1.00  0.00     0.015 C 
HETATM   24  C13 UNL     1      18.487  33.391  20.399  1.00  0.00     0.015 C 
ENDBRANCH  18  20
ENDBRANCH  17  18
ENDBRANCH  16  17
ENDBRANCH  14  16
ENDBRANCH  13  14
ENDBRANCH  12  13
ENDBRANCH   9  12
BRANCH   1  25
HETATM   25  S1  UNL     1      22.188  35.353  16.995  1.00  0.00    -0.108 SA
HETATM   26  C1  UNL     1      20.464  35.869  16.772  1.00  0.00     0.097 C 
ENDBRANCH   1  25
TORSDOF 8
ENDMDL
MODEL 2
REMARK VINA RESULT: -6.687041086      2.534      4.165
REMARK  8 active torsions:
REMARK  status: ('A' for Active; 'I' for Inactive)
REMARK    1  A    between atoms: S1_2  and  C2_3 
REMARK       I    between atoms: N3_9  and  C4_11 
REMARK    2  A    between atoms: C4_11  and  C5_13 
REMARK    3  A    between atoms: C5_13  and  O2_14 
REMARK    4  A    between atoms: O2_14  and  C6_15 
REMARK    5  A    between atoms: C6_15  and  C7_17 
REMARK    6  A    between atoms: C7_17  and  S2_18 
REMARK    7  A    between atoms: S2_18  and  C8_19 
REMARK    8  A    between atoms: C8_19  and  C9_21 
ROOT
HETATM    1  C2  UNL     1      25.359  33.660  17.599  1.00  0.00     0.129 A 
HETATM    2  N1  UNL     1      24.150  33.660  17.058  1.00  0.00    -0.286 N 
ATOM      3  H1  UNL     1      23.588  34.511  17.076  1.00  0.00     0.188 HD
HETATM    4  N2  UNL     1      23.686  32.612  16.519  1.00  0.00    -0.278 N 
ATOM      5  H2  UNL     1      22.755  32.613  16.102  1.00  0.00     0.189 HD
HETATM    6  C3  UNL     1      24.435  31.507  16.505  1.00  0.00     0.168 A 
HETATM    7  N3  UNL     1      24.154  30.326  16.007  1.00  0.00    -0.304 N 
ATOM      8  H3  UNL     1      24.824  29.558  16.063  1.00  0.00     0.171 HD
HETATM    9  C4  UNL     1      22.910  30.156  15.395  1.00  0.00     0.247 C 
HETATM   10  O1  UNL     1      22.631  30.780  14.317  1.00  0.00    -0.271 OA
HETATM   11  S3  UNL     1      25.852  32.039  17.308  1.00  0.00    -0.026 SA
ENDROOT
BRANCH   9  12
HETATM   12  C5  UNL     1      21.903  29.256  15.991  1.00  0.00     0.281 C 
BRANCH  12  13
HETATM   13  O2  UNL     1      20.805  29.970  16.485  1.00  0.00    -0.311 OA
BRANCH  13  14
HETATM   14  C6  UNL     1      20.824  30.692  17.643  1.00  0.00     0.269 C 
HETATM   15  O3  UNL     1      21.102  31.920  17.671  1.00  0.00    -0.264 OA
BRANCH  14  16
HETATM   16  C7  UNL     1      20.516  30.082  18.965  1.00  0.00     0.193 C 
BRANCH  16  17
HETATM   17  S2  UNL     1      21.984  29.373  19.741  1.00  0.00    -0.082 SA
BRANCH  17  18
HETATM   18  C8  UNL     1      21.962  27.604  19.394  1.00  0.00     0.191 C 
HETATM   19  O4  UNL     1      23.041  27.023  19.473  1.00  0.00    -0.285 OA
BRANCH  18  20
HETATM   20  C9  UNL     1      20.728  26.876  19.035  1.00  0.00     0.075 A 
HETATM   21  C10 UNL     1      20.505  25.467  19.388  1.00  0.00     0.023 A 
HETATM   22  C11 UNL     1      19.698  26.553  20.056  1.00  0.00    -0.036 A 
HETATM   23  C12 UNL     1      19.988  26.705  21.531  1.00  0.00     0.015 C 
HETATM   24  C13 UNL     1      18.239  26.731  19.659  1.00  0.00     0.015 C 
ENDBRANCH  18  20
ENDBRANCH  17  18
ENDBRANCH  16  17
ENDBRANCH  14  16
ENDBRANCH  13  14
ENDBRANCH  12  13
ENDBRANCH   9  12
BRANCH   1  25
HETATM   25  S1  UNL     1      26.238  35.002  18.417  1.00  0.00    -0.108 SA
HETATM   26  C1  UNL     1      27.529  34.287  19.470  1.00  0.00     0.097 C 
ENDBRANCH   1  25
TORSDOF 8
ENDMDL
MODEL 3
REMARK VINA RESULT: -6.684407186      3.222      5.189
REMARK  8 active torsions:
REMARK  status: ('A' for Active; 'I' for Inactive)
REMARK    1  A    between atoms: S1_2  and  C2_3 
REMARK       I    between atoms: N3_9  and  C4_11 
REMARK    2  A    between atoms: C4_11  and  C5_13 
REMARK    3  A    between atoms: C5_13  and  O2_14 
REMARK    4  A    between atoms: O2_14  and  C6_15 
REMARK    5  A    between atoms: C6_15  and  C7_17 
REMARK    6  A    between atoms: C7_17  and  S2_18 
REMARK    7  A    between atoms: S2_18  and  C8_19 
REMARK    8  A    between atoms: C8_19  and  C9_21 
ROOT
HETATM    1  C2  UNL     1      22.795  30.025  15.048  1.00  0.00     0.129 A 
HETATM    2  N1  UNL     1      23.964  29.833  15.641  1.00  0.00    -0.286 N 
ATOM      3  H1  UNL     1      24.505  28.993  15.433  1.00  0.00     0.188 HD
HETATM    4  N2  UNL     1      24.416  30.684  16.463  1.00  0.00    -0.278 N 
ATOM      5  H2  UNL     1      25.316  30.535  16.919  1.00  0.00     0.189 HD
HETATM    6  C3  UNL     1      23.695  31.776  16.723  1.00  0.00     0.168 A 
HETATM    7  N3  UNL     1      23.970  32.773  17.531  1.00  0.00    -0.304 N 
ATOM      8  H3  UNL     1      23.325  33.557  17.639  1.00  0.00     0.171 HD
HETATM    9  C4  UNL     1      25.174  32.726  18.238  1.00  0.00     0.247 C 
HETATM   10  O1  UNL     1      26.288  32.799  17.620  1.00  0.00    -0.271 OA
HETATM   11  S3  UNL     1      22.323  31.532  15.726  1.00  0.00    -0.026 SA
ENDROOT
BRANCH   9  12
HETATM   12  C5  UNL     1      25.172  32.587  19.708  1.00  0.00     0.281 C 
BRANCH  12  13
HETATM   13  O2  UNL     1      23.951  32.084  20.174  1.00  0.00    -0.311 OA
BRANCH  13  14
HETATM   14  C6  UNL     1      23.682  30.754  20.324  1.00  0.00     0.269 C 
HETATM   15  O3  UNL     1      24.588  29.882  20.377  1.00  0.00    -0.264 OA
BRANCH  14  16
HETATM   16  C7  UNL     1      22.293  30.233  20.439  1.00  0.00     0.193 C 
BRANCH  16  17
HETATM   17  S2  UNL     1      21.775  29.356  18.948  1.00  0.00    -0.082 SA
BRANCH  17  18
HETATM   18  C8  UNL     1      21.935  27.593  19.290  1.00  0.00     0.191 C 
HETATM   19  O4  UNL     1      23.066  27.191  19.543  1.00  0.00    -0.285 OA
BRANCH  18  20
HETATM   20  C9  UNL     1      20.782  26.670  19.273  1.00  0.00     0.075 A 
HETATM   21  C10 UNL     1      20.526  25.699  20.346  1.00  0.00     0.023 A 
HETATM   22  C11 UNL     1      19.609  26.883  20.159  1.00  0.00    -0.036 A 
HETATM   23  C12 UNL     1      19.662  27.877  21.296  1.00  0.00     0.015 C 
HETATM   24  C13 UNL     1      18.228  26.653  19.560  1.00  0.00     0.015 C 
ENDBRANCH  18  20
ENDBRANCH  17  18
ENDBRANCH  16  17
ENDBRANCH  14  16
ENDBRANCH  13  14
ENDBRANCH  12  13
ENDBRANCH   9  12
BRANCH   1  25
HETATM   25  S1  UNL     1      21.941  28.980  13.855  1.00  0.00    -0.108 SA
HETATM   26  C1  UNL     1      23.027  27.593  13.425  1.00  0.00     0.097 C 
ENDBRANCH   1  25
TORSDOF 8
ENDMDL
MODEL 4
REMARK VINA RESULT: -6.519778823      1.227      1.514
REMARK  8 active torsions:
REMARK  status: ('A' for Active; 'I' for Inactive)
REMARK    1  A    between atoms: S1_2  and  C2_3 
REMARK       I    between atoms: N3_9  and  C4_11 
REMARK    2  A    between atoms: C4_11  and  C5_13 
REMARK    3  A    between atoms: C5_13  and  O2_14 
REMARK    4  A    between atoms: O2_14  and  C6_15 
REMARK    5  A    between atoms: C6_15  and  C7_17 
REMARK    6  A    between atoms: C7_17  and  S2_18 
REMARK    7  A    between atoms: S2_18  and  C8_19 
REMARK    8  A    between atoms: C8_19  and  C9_21 
ROOT
HETATM    1  C2  UNL     1      22.054  33.988  16.760  1.00  0.00     0.129 A 
HETATM    2  N1  UNL     1      21.207  33.252  16.057  1.00  0.00    -0.286 N 
ATOM      3  H1  UNL     1      20.264  33.597  15.878  1.00  0.00     0.188 HD
HETATM    4  N2  UNL     1      21.559  32.122  15.604  1.00  0.00    -0.278 N 
ATOM      5  H2  UNL     1      20.906  31.556  15.062  1.00  0.00     0.189 HD
HETATM    6  C3  UNL     1      22.796  31.686  15.848  1.00  0.00     0.168 A 
HETATM    7  N3  UNL     1      23.362  30.561  15.479  1.00  0.00    -0.304 N 
ATOM      8  H3  UNL     1      24.326  30.348  15.735  1.00  0.00     0.171 HD
HETATM    9  C4  UNL     1      22.601  29.665  14.724  1.00  0.00     0.247 C 
HETATM   10  O1  UNL     1      22.227  29.972  13.543  1.00  0.00    -0.271 OA
HETATM   11  S3  UNL     1      23.445  32.979  16.765  1.00  0.00    -0.026 SA
ENDROOT
BRANCH   9  12
HETATM   12  C5  UNL     1      22.215  28.355  15.286  1.00  0.00     0.281 C 
BRANCH  12  13
HETATM   13  O2  UNL     1      21.514  28.499  16.490  1.00  0.00    -0.311 OA
BRANCH  13  14
HETATM   14  C6  UNL     1      21.623  27.637  17.543  1.00  0.00     0.269 C 
HETATM   15  O3  UNL     1      21.504  26.391  17.412  1.00  0.00    -0.264 OA
BRANCH  14  16
HETATM   16  C7  UNL     1      21.893  28.107  18.928  1.00  0.00     0.193 C 
BRANCH  16  17
HETATM   17  S2  UNL     1      20.454  28.916  19.659  1.00  0.00    -0.082 SA
BRANCH  17  18
HETATM   18  C8  UNL     1      20.593  30.676  19.291  1.00  0.00     0.191 C 
HETATM   19  O4  UNL     1      20.393  31.002  18.124  1.00  0.00    -0.285 OA
BRANCH  18  20
HETATM   20  C9  UNL     1      20.927  31.682  20.319  1.00  0.00     0.075 A 
HETATM   21  C10 UNL     1      21.453  31.321  21.642  1.00  0.00     0.023 A 
HETATM   22  C11 UNL     1      22.338  32.019  20.639  1.00  0.00    -0.036 A 
HETATM   23  C12 UNL     1      23.477  31.164  20.135  1.00  0.00     0.015 C 
HETATM   24  C13 UNL     1      22.674  33.488  20.856  1.00  0.00     0.015 C 
ENDBRANCH  18  20
ENDBRANCH  17  18
ENDBRANCH  16  17
ENDBRANCH  14  16
ENDBRANCH  13  14
ENDBRANCH  12  13
ENDBRANCH   9  12
BRANCH   1  25
HETATM   25  S1  UNL     1      21.802  35.608  17.506  1.00  0.00    -0.108 SA
HETATM   26  C1  UNL     1      20.398  35.504  18.648  1.00  0.00     0.097 C 
ENDBRANCH   1  25
TORSDOF 8
ENDMDL
MODEL 5
REMARK VINA RESULT: -6.435793390      3.028      5.369
REMARK  8 active torsions:
REMARK  status: ('A' for Active; 'I' for Inactive)
REMARK    1  A    between atoms: S1_2  and  C2_3 
REMARK       I    between atoms: N3_9  and  C4_11 
REMARK    2  A    between atoms: C4_11  and  C5_13 
REMARK    3  A    between atoms: C5_13  and  O2_14 
REMARK    4  A    between atoms: O2_14  and  C6_15 
REMARK    5  A    between atoms: C6_15  and  C7_17 
REMARK    6  A    between atoms: C7_17  and  S2_18 
REMARK    7  A    between atoms: S2_18  and  C8_19 
REMARK    8  A    between atoms: C8_19  and  C9_21 
ROOT
HETATM    1  C2  UNL     1      22.506  30.094  15.784  1.00  0.00     0.129 A 
HETATM    2  N1  UNL     1      22.178  29.732  17.015  1.00  0.00    -0.286 N 
ATOM      3  H1  UNL     1      21.396  29.093  17.163  1.00  0.00     0.188 HD
HETATM    4  N2  UNL     1      22.827  30.170  18.010  1.00  0.00    -0.278 N 
ATOM      5  H2  UNL     1      22.574  29.890  18.957  1.00  0.00     0.189 HD
HETATM    6  C3  UNL     1      23.847  31.005  17.798  1.00  0.00     0.168 A 
HETATM    7  N3  UNL     1      24.644  31.572  18.673  1.00  0.00    -0.304 N 
ATOM      8  H3  UNL     1      25.393  32.197  18.374  1.00  0.00     0.171 HD
HETATM    9  C4  UNL     1      24.433  31.292  20.025  1.00  0.00     0.247 C 
HETATM   10  O1  UNL     1      24.624  30.114  20.477  1.00  0.00    -0.271 OA
HETATM   11  S3  UNL     1      23.838  31.136  16.090  1.00  0.00    -0.026 SA
ENDROOT
BRANCH   9  12
HETATM   12  C5  UNL     1      23.982  32.354  20.946  1.00  0.00     0.281 C 
BRANCH  12  13
HETATM   13  O2  UNL     1      22.599  32.295  21.161  1.00  0.00    -0.311 OA
BRANCH  13  14
HETATM   14  C6  UNL     1      21.668  32.681  20.241  1.00  0.00     0.269 C 
HETATM   15  O3  UNL     1      21.916  33.520  19.337  1.00  0.00    -0.264 OA
BRANCH  14  16
HETATM   16  C7  UNL     1      20.283  32.136  20.237  1.00  0.00     0.193 C 
BRANCH  16  17
HETATM   17  S2  UNL     1      20.125  30.685  21.301  1.00  0.00    -0.082 SA
BRANCH  17  18
HETATM   18  C8  UNL     1      19.825  29.271  20.223  1.00  0.00     0.191 C 
HETATM   19  O4  UNL     1      20.082  29.432  19.034  1.00  0.00    -0.285 OA
BRANCH  18  20
HETATM   20  C9  UNL     1      19.299  27.984  20.724  1.00  0.00     0.075 A 
HETATM   21  C10 UNL     1      18.834  26.915  19.830  1.00  0.00     0.023 A 
HETATM   22  C11 UNL     1      20.099  26.736  20.633  1.00  0.00    -0.036 A 
HETATM   23  C12 UNL     1      21.350  26.673  19.789  1.00  0.00     0.015 C 
HETATM   24  C13 UNL     1      20.077  25.803  21.835  1.00  0.00     0.015 C 
ENDBRANCH  18  20
ENDBRANCH  17  18
ENDBRANCH  16  17
ENDBRANCH  14  16
ENDBRANCH  13  14
ENDBRANCH  12  13
ENDBRANCH   9  12
BRANCH   1  25
HETATM   25  S1  UNL     1      21.751  29.618  14.220  1.00  0.00    -0.108 SA
HETATM   26  C1  UNL     1      22.425  28.010  13.722  1.00  0.00     0.097 C 
ENDBRANCH   1  25
TORSDOF 8
ENDMDL
