MODEL 1
REMARK VINA RESULT: -7.030096972      0.000      0.000
REMARK  6 active torsions:
REMARK  status: ('A' for Active; 'I' for Inactive)
REMARK    1  A    between atoms: O1_2  and  C2_3 
REMARK    2  A    between atoms: C4_5  and  C5_6 
REMARK    3  A    between atoms: C9_14  and  O3_15 
REMARK    4  A    between atoms: O3_15  and  C10_16 
REMARK    5  A    between atoms: C16_23  and  O4_24 
REMARK    6  A    between atoms: C18_26  and  O5_27 
ROOT
HETATM    1  C2  UNL     1      25.198  32.385  17.614  1.00  0.00     0.105 A 
HETATM    2  C3  UNL     1      24.302  31.738  16.797  1.00  0.00     0.052 A 
HETATM    3  C4  UNL     1      23.206  31.059  17.345  1.00  0.00     0.011 A 
HETATM    4  C9  UNL     1      22.963  30.998  18.697  1.00  0.00     0.114 A 
HETATM    5  C16 UNL     1      23.886  31.659  19.506  1.00  0.00     0.138 A 
HETATM    6  C18 UNL     1      24.989  32.343  18.967  1.00  0.00     0.138 A 
ENDROOT
BRANCH   3   7
HETATM    7  C5  UNL     1      22.296  30.362  16.405  1.00  0.00     0.183 C 
HETATM    8  C6  UNL     1      22.309  30.990  15.011  1.00  0.00     0.269 C 
HETATM    9  N1  UNL     1      21.278  30.258  14.271  1.00  0.00    -0.070 N 
HETATM   10  C7  UNL     1      21.875  28.937  14.050  1.00  0.00     0.258 C 
ATOM     11  H12 UNL     1      20.367  30.235  14.730  1.00  0.00     0.277 HD
ATOM     12  H11 UNL     1      20.960  30.723  13.421  1.00  0.00     0.277 HD
HETATM   13  C8  UNL     1      22.075  28.298  15.382  1.00  0.00     0.196 C 
HETATM   14  O2  UNL     1      22.805  29.045  16.295  1.00  0.00    -0.378 OA
ENDBRANCH   3   7
BRANCH   4  15
HETATM   15  O3  UNL     1      21.913  30.355  19.185  1.00  0.00    -0.342 OA
BRANCH  15  16
HETATM   16  C10 UNL     1      21.454  29.472  20.062  1.00  0.00     0.132 C 
HETATM   17  C11 UNL     1      22.046  28.082  19.781  1.00  0.00     0.062 C 
HETATM   18  C12 UNL     1      21.000  27.147  19.174  1.00  0.00     0.274 C 
HETATM   19  N2  UNL     1      20.028  26.824  20.204  1.00  0.00     0.084 N 
HETATM   20  C13 UNL     1      18.801  26.384  19.578  1.00  0.00     0.309 C 
HETATM   21  C14 UNL     1      19.798  27.994  21.059  1.00  0.00     0.274 C 
HETATM   22  C15 UNL     1      19.957  29.224  20.148  1.00  0.00     0.062 C 
ENDBRANCH  15  16
ENDBRANCH   4  15
BRANCH   1  23
HETATM   23  O1  UNL     1      26.290  33.064  17.089  1.00  0.00    -0.353 OA
HETATM   24  C1  UNL     1      26.199  34.246  16.355  1.00  0.00     0.210 C 
ENDBRANCH   1  23
BRANCH   5  25
HETATM   25  O4  UNL     1      23.782  31.685  20.863  1.00  0.00    -0.351 OA
HETATM   26  C17 UNL     1      22.984  32.500  21.662  1.00  0.00     0.210 C 
ENDBRANCH   5  25
BRANCH   6  27
HETATM   27  O5  UNL     1      25.915  33.007  19.753  1.00  0.00    -0.351 OA
HETATM   28  C19 UNL     1      25.808  34.362  20.133  1.00  0.00     0.210 C 
ENDBRANCH   6  27
TORSDOF 6
ENDMDL
MODEL 2
REMARK VINA RESULT: -6.475766208      1.031      1.107
REMARK  6 active torsions:
REMARK  status: ('A' for Active; 'I' for Inactive)
REMARK    1  A    between atoms: O1_2  and  C2_3 
REMARK    2  A    between atoms: C4_5  and  C5_6 
REMARK    3  A    between atoms: C9_14  and  O3_15 
REMARK    4  A    between atoms: O3_15  and  C10_16 
REMARK    5  A    between atoms: C16_23  and  O4_24 
REMARK    6  A    between atoms: C18_26  and  O5_27 
ROOT
HETATM    1  C2  UNL     1      25.454  33.076  17.355  1.00  0.00     0.105 A 
HETATM    2  C3  UNL     1      24.662  32.197  16.655  1.00  0.00     0.052 A 
HETATM    3  C4  UNL     1      23.527  31.634  17.255  1.00  0.00     0.011 A 
HETATM    4  C9  UNL     1      23.146  31.917  18.545  1.00  0.00     0.114 A 
HETATM    5  C16 UNL     1      23.965  32.809  19.236  1.00  0.00     0.138 A 
HETATM    6  C18 UNL     1      25.105  33.379  18.644  1.00  0.00     0.138 A 
ENDROOT
BRANCH   3   7
HETATM    7  C5  UNL     1      22.735  30.676  16.450  1.00  0.00     0.183 C 
HETATM    8  C6  UNL     1      21.834  31.376  15.432  1.00  0.00     0.269 C 
HETATM    9  N1  UNL     1      21.054  30.292  14.828  1.00  0.00    -0.070 N 
HETATM   10  C7  UNL     1      22.026  29.587  13.987  1.00  0.00     0.258 C 
ATOM     11  H12 UNL     1      20.571  29.698  15.501  1.00  0.00     0.277 HD
ATOM     12  H11 UNL     1      20.217  30.602  14.335  1.00  0.00     0.277 HD
HETATM   13  C8  UNL     1      23.068  29.006  14.882  1.00  0.00     0.196 C 
HETATM   14  O2  UNL     1      23.687  29.908  15.735  1.00  0.00    -0.378 OA
ENDBRANCH   3   7
BRANCH   4  15
HETATM   15  O3  UNL     1      22.062  31.376  19.083  1.00  0.00    -0.342 OA
BRANCH  15  16
HETATM   16  C10 UNL     1      21.561  30.458  19.899  1.00  0.00     0.132 C 
HETATM   17  C11 UNL     1      22.614  29.381  20.203  1.00  0.00     0.062 C 
HETATM   18  C12 UNL     1      22.292  28.073  19.479  1.00  0.00     0.274 C 
HETATM   19  N2  UNL     1      21.117  27.488  20.104  1.00  0.00     0.084 N 
HETATM   20  C13 UNL     1      20.499  26.566  19.178  1.00  0.00     0.309 C 
HETATM   21  C14 UNL     1      20.184  28.546  20.503  1.00  0.00     0.274 C 
HETATM   22  C15 UNL     1      20.340  29.668  19.461  1.00  0.00     0.062 C 
ENDBRANCH  15  16
ENDBRANCH   4  15
BRANCH   1  23
HETATM   23  O1  UNL     1      26.582  33.644  16.776  1.00  0.00    -0.353 OA
HETATM   24  C1  UNL     1      26.563  34.784  15.974  1.00  0.00     0.210 C 
ENDBRANCH   1  23
BRANCH   5  25
HETATM   25  O4  UNL     1      23.719  33.183  20.521  1.00  0.00    -0.351 OA
HETATM   26  C17 UNL     1      24.115  32.562  21.703  1.00  0.00     0.210 C 
ENDBRANCH   5  25
BRANCH   6  27
HETATM   27  O5  UNL     1      25.931  34.267  19.312  1.00  0.00    -0.351 OA
HETATM   28  C19 UNL     1      27.144  33.906  19.936  1.00  0.00     0.210 C 
ENDBRANCH   6  27
TORSDOF 6
ENDMDL
MODEL 3
REMARK VINA RESULT: -6.383561973      1.466      4.927
REMARK  6 active torsions:
REMARK  status: ('A' for Active; 'I' for Inactive)
REMARK    1  A    between atoms: O1_2  and  C2_3 
REMARK    2  A    between atoms: C4_5  and  C5_6 
REMARK    3  A    between atoms: C9_14  and  O3_15 
REMARK    4  A    between atoms: O3_15  and  C10_16 
REMARK    5  A    between atoms: C16_23  and  O4_24 
REMARK    6  A    between atoms: C18_26  and  O5_27 
ROOT
HETATM    1  C2  UNL     1      23.128  32.329  21.491  1.00  0.00     0.105 A 
HETATM    2  C3  UNL     1      22.393  31.208  21.189  1.00  0.00     0.052 A 
HETATM    3  C4  UNL     1      22.441  30.656  19.902  1.00  0.00     0.011 A 
HETATM    4  C9  UNL     1      23.205  31.185  18.889  1.00  0.00     0.114 A 
HETATM    5  C16 UNL     1      23.940  32.322  19.219  1.00  0.00     0.138 A 
HETATM    6  C18 UNL     1      23.899  32.885  20.506  1.00  0.00     0.138 A 
ENDROOT
BRANCH   3   7
HETATM    7  C5  UNL     1      21.602  29.463  19.641  1.00  0.00     0.183 C 
HETATM    8  C6  UNL     1      22.368  28.156  19.847  1.00  0.00     0.269 C 
HETATM    9  N1  UNL     1      21.428  27.112  19.430  1.00  0.00    -0.070 N 
HETATM   10  C7  UNL     1      20.430  27.088  20.504  1.00  0.00     0.258 C 
ATOM     11  H12 UNL     1      21.038  27.245  18.498  1.00  0.00     0.277 HD
ATOM     12  H11 UNL     1      21.862  26.208  19.239  1.00  0.00     0.277 HD
HETATM   13  C8  UNL     1      19.734  28.407  20.508  1.00  0.00     0.196 C 
HETATM   14  O2  UNL     1      20.562  29.516  20.602  1.00  0.00    -0.378 OA
ENDBRANCH   3   7
BRANCH   4  15
HETATM   15  O3  UNL     1      23.237  30.635  17.684  1.00  0.00    -0.342 OA
BRANCH  15  16
HETATM   16  C10 UNL     1      22.773  30.643  16.441  1.00  0.00     0.132 C 
HETATM   17  C11 UNL     1      21.560  29.708  16.317  1.00  0.00     0.062 C 
HETATM   18  C12 UNL     1      21.920  28.433  15.553  1.00  0.00     0.274 C 
HETATM   19  N2  UNL     1      22.134  28.786  14.160  1.00  0.00     0.084 N 
HETATM   20  C13 UNL     1      22.938  27.762  13.530  1.00  0.00     0.309 C 
HETATM   21  C14 UNL     1      22.781  30.099  14.070  1.00  0.00     0.274 C 
HETATM   22  C15 UNL     1      23.689  30.212  15.308  1.00  0.00     0.062 C 
ENDBRANCH  15  16
ENDBRANCH   4  15
BRANCH   1  23
HETATM   23  O1  UNL     1      23.093  32.891  22.762  1.00  0.00    -0.353 OA
HETATM   24  C1  UNL     1      24.138  32.816  23.681  1.00  0.00     0.210 C 
ENDBRANCH   1  23
BRANCH   5  25
HETATM   25  O4  UNL     1      24.740  32.961  18.322  1.00  0.00    -0.351 OA
HETATM   26  C17 UNL     1      26.022  32.618  17.895  1.00  0.00     0.210 C 
ENDBRANCH   5  25
BRANCH   6  27
HETATM   27  O5  UNL     1      24.622  34.013  20.853  1.00  0.00    -0.351 OA
HETATM   28  C19 UNL     1      24.169  35.336  20.665  1.00  0.00     0.210 C 
ENDBRANCH   6  27
TORSDOF 6
ENDMDL
MODEL 4
REMARK VINA RESULT: -6.334786519      3.562      3.873
REMARK  6 active torsions:
REMARK  status: ('A' for Active; 'I' for Inactive)
REMARK    1  A    between atoms: O1_2  and  C2_3 
REMARK    2  A    between atoms: C4_5  and  C5_6 
REMARK    3  A    between atoms: C9_14  and  O3_15 
REMARK    4  A    between atoms: O3_15  and  C10_16 
REMARK    5  A    between atoms: C16_23  and  O4_24 
REMARK    6  A    between atoms: C18_26  and  O5_27 
ROOT
HETATM    1  C2  UNL     1      21.115  34.869  15.851  1.00  0.00     0.105 A 
HETATM    2  C3  UNL     1      21.609  33.591  15.745  1.00  0.00     0.052 A 
HETATM    3  C4  UNL     1      21.788  32.803  16.890  1.00  0.00     0.011 A 
HETATM    4  C9  UNL     1      21.489  33.246  18.157  1.00  0.00     0.114 A 
HETATM    5  C16 UNL     1      20.991  34.545  18.240  1.00  0.00     0.138 A 
HETATM    6  C18 UNL     1      20.808  35.344  17.098  1.00  0.00     0.138 A 
ENDROOT
BRANCH   3   7
HETATM    7  C5  UNL     1      22.349  31.445  16.702  1.00  0.00     0.183 C 
HETATM    8  C6  UNL     1      21.317  30.459  16.154  1.00  0.00     0.269 C 
HETATM    9  N1  UNL     1      22.009  29.168  16.152  1.00  0.00    -0.070 N 
HETATM   10  C7  UNL     1      22.974  29.288  15.054  1.00  0.00     0.258 C 
ATOM     11  H12 UNL     1      22.423  28.912  17.048  1.00  0.00     0.277 HD
ATOM     12  H11 UNL     1      21.391  28.360  16.082  1.00  0.00     0.277 HD
HETATM   13  C8  UNL     1      23.940  30.367  15.412  1.00  0.00     0.196 C 
HETATM   14  O2  UNL     1      23.371  31.591  15.732  1.00  0.00    -0.378 OA
ENDBRANCH   3   7
BRANCH   4  15
HETATM   15  O3  UNL     1      21.661  32.475  19.221  1.00  0.00    -0.342 OA
BRANCH  15  16
HETATM   16  C10 UNL     1      21.140  31.571  20.039  1.00  0.00     0.132 C 
HETATM   17  C11 UNL     1      22.219  30.577  20.496  1.00  0.00     0.062 C 
HETATM   18  C12 UNL     1      22.039  29.217  19.822  1.00  0.00     0.274 C 
HETATM   19  N2  UNL     1      20.847  28.593  20.372  1.00  0.00     0.084 N 
HETATM   20  C13 UNL     1      20.370  27.588  19.448  1.00  0.00     0.309 C 
HETATM   21  C14 UNL     1      19.823  29.611  20.626  1.00  0.00     0.274 C 
HETATM   22  C15 UNL     1      20.011  30.685  19.540  1.00  0.00     0.062 C 
ENDBRANCH  15  16
ENDBRANCH   4  15
BRANCH   1  23
HETATM   23  O1  UNL     1      20.930  35.664  14.727  1.00  0.00    -0.353 OA
HETATM   24  C1  UNL     1      21.832  36.636  14.298  1.00  0.00     0.210 C 
ENDBRANCH   1  23
BRANCH   5  25
HETATM   25  O4  UNL     1      20.654  35.124  19.425  1.00  0.00    -0.351 OA
HETATM   26  C17 UNL     1      19.437  35.082  20.102  1.00  0.00     0.210 C 
ENDBRANCH   5  25
BRANCH   6  27
HETATM   27  O5  UNL     1      20.314  36.636  17.159  1.00  0.00    -0.351 OA
HETATM   28  C19 UNL     1      18.951  36.973  17.016  1.00  0.00     0.210 C 
ENDBRANCH   6  27
TORSDOF 6
ENDMDL
MODEL 5
REMARK VINA RESULT: -6.304080477      2.305      4.831
REMARK  6 active torsions:
REMARK  status: ('A' for Active; 'I' for Inactive)
REMARK    1  A    between atoms: O1_2  and  C2_3 
REMARK    2  A    between atoms: C4_5  and  C5_6 
REMARK    3  A    between atoms: C9_14  and  O3_15 
REMARK    4  A    between atoms: O3_15  and  C10_16 
REMARK    5  A    between atoms: C16_23  and  O4_24 
REMARK    6  A    between atoms: C18_26  and  O5_27 
ROOT
HETATM    1  C2  UNL     1      22.168  32.472  16.353  1.00  0.00     0.105 A 
HETATM    2  C3  UNL     1      22.691  32.658  17.610  1.00  0.00     0.052 A 
HETATM    3  C4  UNL     1      22.827  31.574  18.488  1.00  0.00     0.011 A 
HETATM    4  C9  UNL     1      22.456  30.292  18.157  1.00  0.00     0.114 A 
HETATM    5  C16 UNL     1      21.927  30.128  16.878  1.00  0.00     0.138 A 
HETATM    6  C18 UNL     1      21.785  31.208  15.990  1.00  0.00     0.138 A 
ENDROOT
BRANCH   3   7
HETATM    7  C5  UNL     1      23.374  31.854  19.836  1.00  0.00     0.183 C 
HETATM    8  C6  UNL     1      24.151  33.170  19.886  1.00  0.00     0.269 C 
HETATM    9  N1  UNL     1      24.709  33.213  21.241  1.00  0.00    -0.070 N 
HETATM   10  C7  UNL     1      23.545  33.478  22.092  1.00  0.00     0.258 C 
ATOM     11  H12 UNL     1      25.241  32.384  21.503  1.00  0.00     0.277 HD
ATOM     12  H11 UNL     1      25.475  33.876  21.359  1.00  0.00     0.277 HD
HETATM   13  C8  UNL     1      22.620  32.313  21.975  1.00  0.00     0.196 C 
HETATM   14  O2  UNL     1      22.245  31.981  20.682  1.00  0.00    -0.378 OA
ENDBRANCH   3   7
BRANCH   4  15
HETATM   15  O3  UNL     1      22.605  29.285  19.006  1.00  0.00    -0.342 OA
BRANCH  15  16
HETATM   16  C10 UNL     1      22.035  28.479  19.891  1.00  0.00     0.132 C 
HETATM   17  C11 UNL     1      22.122  27.019  19.418  1.00  0.00     0.062 C 
HETATM   18  C12 UNL     1      20.760  26.508  18.948  1.00  0.00     0.274 C 
HETATM   19  N2  UNL     1      19.903  26.365  20.113  1.00  0.00     0.084 N 
HETATM   20  C13 UNL     1      18.521  26.378  19.689  1.00  0.00     0.309 C 
HETATM   21  C14 UNL     1      20.176  27.443  21.069  1.00  0.00     0.274 C 
HETATM   22  C15 UNL     1      20.566  28.671  20.228  1.00  0.00     0.062 C 
ENDBRANCH  15  16
ENDBRANCH   4  15
BRANCH   1  23
HETATM   23  O1  UNL     1      22.026  33.533  15.469  1.00  0.00    -0.353 OA
HETATM   24  C1  UNL     1      21.221  34.648  15.704  1.00  0.00     0.210 C 
ENDBRANCH   1  23
BRANCH   5  25
HETATM   25  O4  UNL     1      21.512  28.920  16.408  1.00  0.00    -0.351 OA
HETATM   26  C17 UNL     1      22.260  27.917  15.796  1.00  0.00     0.210 C 
ENDBRANCH   5  25
BRANCH   6  27
HETATM   27  O5  UNL     1      21.263  31.066  14.715  1.00  0.00    -0.351 OA
HETATM   28  C19 UNL     1      22.000  30.610  13.601  1.00  0.00     0.210 C 
ENDBRANCH   6  27
TORSDOF 6
ENDMDL
