MODEL 1
REMARK VINA RESULT: -7.314072127      0.000      0.000
REMARK  6 active torsions:
REMARK  status: ('A' for Active; 'I' for Inactive)
REMARK    1  A    between atoms: C2_2  and  N1_3 
REMARK    2  A    between atoms: C3_4  and  S1_5 
REMARK    3  A    between atoms: S1_5  and  C4_6 
REMARK    4  A    between atoms: C4_6  and  C5_7 
REMARK       I    between atoms: C5_7  and  N2_9 
REMARK    5  A    between atoms: N2_9  and  C6_11 
REMARK    6  A    between atoms: C13_22  and  N5_23 
ROOT
HETATM    1  N1  UNL     1      21.389  30.088  20.525  1.00  0.00    -0.160 N 
HETATM    2  C3  UNL     1      22.492  30.806  20.484  1.00  0.00     0.177 A 
HETATM    3  N3  UNL     1      23.477  29.934  20.084  1.00  0.00    -0.265 N 
ATOM      4  H3  UNL     1      24.461  30.169  19.950  1.00  0.00     0.189 HD
HETATM    5  N4  UNL     1      22.942  28.749  19.902  1.00  0.00    -0.130 N 
ATOM      6  H4  UNL     1      23.454  27.918  19.603  1.00  0.00     0.205 HD
HETATM    7  C13 UNL     1      21.628  28.786  20.166  1.00  0.00     0.699 A 
ENDROOT
BRANCH   2   8
HETATM    8  S1  UNL     1      22.873  32.474  20.819  1.00  0.00    -0.083 SA
BRANCH   8   9
HETATM    9  C4  UNL     1      23.096  33.570  19.459  1.00  0.00     0.185 C 
BRANCH   9  10
HETATM   10  C5  UNL     1      22.326  33.024  18.279  1.00  0.00     0.227 C 
HETATM   11  O1  UNL     1      21.198  33.466  17.951  1.00  0.00    -0.273 OA
HETATM   12  N2  UNL     1      22.887  31.976  17.503  1.00  0.00    -0.356 N 
ATOM     13  H2  UNL     1      23.805  31.611  17.759  1.00  0.00     0.162 HD
BRANCH  12  14
HETATM   14  C6  UNL     1      22.199  31.407  16.359  1.00  0.00     0.084 C 
HETATM   15  C7  UNL     1      21.339  30.252  16.832  1.00  0.00     0.025 C 
HETATM   16  C8  UNL     1      22.027  28.925  16.491  1.00  0.00     0.002 C 
HETATM   17  C9  UNL     1      21.981  28.804  14.985  1.00  0.00     0.004 C 
HETATM   18  C10 UNL     1      22.746  29.955  14.391  1.00  0.00    -0.017 C 
HETATM   19  C11 UNL     1      21.963  30.608  13.270  1.00  0.00     0.010 C 
HETATM   20  C12 UNL     1      23.259  30.936  15.386  1.00  0.00     0.029 C 
ENDBRANCH  12  14
ENDBRANCH   9  10
ENDBRANCH   8   9
ENDBRANCH   2   8
BRANCH   1  21
HETATM   21  C2  UNL     1      20.081  30.556  20.881  1.00  0.00     0.145 C 
HETATM   22  C1  UNL     1      19.399  31.237  19.687  1.00  0.00     0.027 C 
ENDBRANCH   1  21
BRANCH   7  23
HETATM   23  N5  UNL     1      20.665  27.751  20.107  1.00  0.00    -0.212 N 
HETATM   24  C14 UNL     1      19.723  27.597  21.187  1.00  0.00     0.167 C 
HETATM   25  C15 UNL     1      19.802  26.175  21.685  1.00  0.00     0.188 C 
HETATM   26  O2  UNL     1      20.582  25.377  20.856  1.00  0.00    -0.388 OA
HETATM   27  C16 UNL     1      20.211  25.459  19.531  1.00  0.00     0.188 C 
HETATM   28  C17 UNL     1      20.598  26.840  18.991  1.00  0.00     0.167 C 
ENDBRANCH   7  23
TORSDOF 6
ENDMDL
MODEL 2
REMARK VINA RESULT: -7.312025107      2.911      5.975
REMARK  6 active torsions:
REMARK  status: ('A' for Active; 'I' for Inactive)
REMARK    1  A    between atoms: C2_2  and  N1_3 
REMARK    2  A    between atoms: C3_4  and  S1_5 
REMARK    3  A    between atoms: S1_5  and  C4_6 
REMARK    4  A    between atoms: C4_6  and  C5_7 
REMARK       I    between atoms: C5_7  and  N2_9 
REMARK    5  A    between atoms: N2_9  and  C6_11 
REMARK    6  A    between atoms: C13_22  and  N5_23 
ROOT
HETATM    1  N1  UNL     1      23.694  32.892  18.964  1.00  0.00    -0.160 N 
HETATM    2  C3  UNL     1      24.124  32.087  18.014  1.00  0.00     0.177 A 
HETATM    3  N3  UNL     1      25.159  31.380  18.580  1.00  0.00    -0.265 N 
ATOM      4  H3  UNL     1      25.717  30.666  18.112  1.00  0.00     0.189 HD
HETATM    5  N4  UNL     1      25.311  31.776  19.823  1.00  0.00    -0.130 N 
ATOM      6  H4  UNL     1      26.011  31.412  20.469  1.00  0.00     0.205 HD
HETATM    7  C13 UNL     1      24.415  32.729  20.121  1.00  0.00     0.699 A 
ENDROOT
BRANCH   2   8
HETATM    8  S1  UNL     1      23.664  31.805  16.357  1.00  0.00    -0.083 SA
BRANCH   8   9
HETATM    9  C4  UNL     1      23.715  30.155  15.745  1.00  0.00     0.185 C 
BRANCH   9  10
HETATM   10  C5  UNL     1      22.512  29.413  16.279  1.00  0.00     0.227 C 
HETATM   11  O1  UNL     1      21.572  29.037  15.537  1.00  0.00    -0.273 OA
HETATM   12  N2  UNL     1      22.428  29.125  17.666  1.00  0.00    -0.356 N 
ATOM     13  H2  UNL     1      23.187  29.424  18.279  1.00  0.00     0.162 HD
BRANCH  12  14
HETATM   14  C6  UNL     1      21.299  28.418  18.242  1.00  0.00     0.084 C 
HETATM   15  C7  UNL     1      20.368  29.426  18.884  1.00  0.00     0.025 C 
HETATM   16  C8  UNL     1      20.559  29.409  20.405  1.00  0.00     0.002 C 
HETATM   17  C9  UNL     1      20.019  28.080  20.880  1.00  0.00     0.004 C 
HETATM   18  C10 UNL     1      20.825  26.982  20.241  1.00  0.00    -0.017 C 
HETATM   19  C11 UNL     1      19.923  25.907  19.671  1.00  0.00     0.010 C 
HETATM   20  C12 UNL     1      21.850  27.452  19.271  1.00  0.00     0.029 C 
ENDBRANCH  12  14
ENDBRANCH   9  10
ENDBRANCH   8   9
ENDBRANCH   2   8
BRANCH   1  21
HETATM   21  C2  UNL     1      22.612  33.829  18.863  1.00  0.00     0.145 C 
HETATM   22  C1  UNL     1      21.274  33.157  19.195  1.00  0.00     0.027 C 
ENDBRANCH   1  21
BRANCH   7  23
HETATM   23  N5  UNL     1      24.216  33.437  21.328  1.00  0.00    -0.212 N 
HETATM   24  C14 UNL     1      24.887  34.697  21.531  1.00  0.00     0.167 C 
HETATM   25  C15 UNL     1      25.652  34.624  22.829  1.00  0.00     0.188 C 
HETATM   26  O2  UNL     1      25.340  33.479  23.551  1.00  0.00    -0.388 OA
HETATM   27  C16 UNL     1      23.983  33.305  23.720  1.00  0.00     0.188 C 
HETATM   28  C17 UNL     1      23.357  32.932  22.371  1.00  0.00     0.167 C 
ENDBRANCH   7  23
TORSDOF 6
ENDMDL
MODEL 3
REMARK VINA RESULT: -7.102012990      2.509      4.556
REMARK  6 active torsions:
REMARK  status: ('A' for Active; 'I' for Inactive)
REMARK    1  A    between atoms: C2_2  and  N1_3 
REMARK    2  A    between atoms: C3_4  and  S1_5 
REMARK    3  A    between atoms: S1_5  and  C4_6 
REMARK    4  A    between atoms: C4_6  and  C5_7 
REMARK       I    between atoms: C5_7  and  N2_9 
REMARK    5  A    between atoms: N2_9  and  C6_11 
REMARK    6  A    between atoms: C13_22  and  N5_23 
ROOT
HETATM    1  N1  UNL     1      22.189  30.273  18.570  1.00  0.00    -0.160 N 
HETATM    2  C3  UNL     1      23.290  30.949  18.833  1.00  0.00     0.177 A 
HETATM    3  N3  UNL     1      23.900  30.262  19.856  1.00  0.00    -0.265 N 
ATOM      4  H3  UNL     1      24.781  30.519  20.302  1.00  0.00     0.189 HD
HETATM    5  N4  UNL     1      23.162  29.220  20.164  1.00  0.00    -0.130 N 
ATOM      6  H4  UNL     1      23.386  28.542  20.892  1.00  0.00     0.205 HD
HETATM    7  C13 UNL     1      22.070  29.177  19.386  1.00  0.00     0.699 A 
ENDROOT
BRANCH   2   8
HETATM    8  S1  UNL     1      24.012  32.398  18.188  1.00  0.00    -0.083 SA
BRANCH   8   9
HETATM    9  C4  UNL     1      23.525  32.931  16.582  1.00  0.00     0.185 C 
BRANCH   9  10
HETATM   10  C5  UNL     1      22.458  33.989  16.736  1.00  0.00     0.227 C 
HETATM   11  O1  UNL     1      21.917  34.546  15.749  1.00  0.00    -0.273 OA
HETATM   12  N2  UNL     1      22.040  34.376  18.036  1.00  0.00    -0.356 N 
ATOM     13  H2  UNL     1      22.471  33.929  18.846  1.00  0.00     0.162 HD
BRANCH  12  14
HETATM   14  C6  UNL     1      21.021  35.386  18.252  1.00  0.00     0.084 C 
HETATM   15  C7  UNL     1      21.667  36.602  18.886  1.00  0.00     0.025 C 
HETATM   16  C8  UNL     1      21.353  36.629  20.386  1.00  0.00     0.002 C 
HETATM   17  C9  UNL     1      19.873  36.917  20.499  1.00  0.00     0.004 C 
HETATM   18  C10 UNL     1      19.118  35.803  19.829  1.00  0.00    -0.017 C 
HETATM   19  C11 UNL     1      18.043  36.349  18.913  1.00  0.00     0.010 C 
HETATM   20  C12 UNL     1      19.978  34.783  19.169  1.00  0.00     0.029 C 
ENDBRANCH  12  14
ENDBRANCH   9  10
ENDBRANCH   8   9
ENDBRANCH   2   8
BRANCH   1  21
HETATM   21  C2  UNL     1      21.215  30.590  17.566  1.00  0.00     0.145 C 
HETATM   22  C1  UNL     1      21.549  29.895  16.239  1.00  0.00     0.027 C 
ENDBRANCH   1  21
BRANCH   7  23
HETATM   23  N5  UNL     1      21.009  28.242  19.369  1.00  0.00    -0.212 N 
HETATM   24  C14 UNL     1      19.770  28.564  20.032  1.00  0.00     0.167 C 
HETATM   25  C15 UNL     1      19.448  27.453  21.000  1.00  0.00     0.188 C 
HETATM   26  O2  UNL     1      20.294  26.363  20.839  1.00  0.00    -0.388 OA
HETATM   27  C16 UNL     1      20.366  25.929  19.533  1.00  0.00     0.188 C 
HETATM   28  C17 UNL     1      21.131  26.967  18.705  1.00  0.00     0.167 C 
ENDBRANCH   7  23
TORSDOF 6
ENDMDL
MODEL 4
REMARK VINA RESULT: -7.095927421      2.271      4.273
REMARK  6 active torsions:
REMARK  status: ('A' for Active; 'I' for Inactive)
REMARK    1  A    between atoms: C2_2  and  N1_3 
REMARK    2  A    between atoms: C3_4  and  S1_5 
REMARK    3  A    between atoms: S1_5  and  C4_6 
REMARK    4  A    between atoms: C4_6  and  C5_7 
REMARK       I    between atoms: C5_7  and  N2_9 
REMARK    5  A    between atoms: N2_9  and  C6_11 
REMARK    6  A    between atoms: C13_22  and  N5_23 
ROOT
HETATM    1  N1  UNL     1      22.292  30.093  17.685  1.00  0.00    -0.160 N 
HETATM    2  C3  UNL     1      23.344  30.877  17.802  1.00  0.00     0.177 A 
HETATM    3  N3  UNL     1      23.841  30.632  19.060  1.00  0.00    -0.265 N 
ATOM      4  H3  UNL     1      24.660  31.079  19.473  1.00  0.00     0.189 HD
HETATM    5  N4  UNL     1      23.087  29.728  19.643  1.00  0.00    -0.130 N 
ATOM      6  H4  UNL     1      23.235  29.365  20.584  1.00  0.00     0.205 HD
HETATM    7  C13 UNL     1      22.095  29.351  18.823  1.00  0.00     0.699 A 
ENDROOT
BRANCH   2   8
HETATM    8  S1  UNL     1      24.116  32.042  16.759  1.00  0.00    -0.083 SA
BRANCH   8   9
HETATM    9  C4  UNL     1      24.821  33.480  17.491  1.00  0.00     0.185 C 
BRANCH   9  10
HETATM   10  C5  UNL     1      23.902  33.950  18.594  1.00  0.00     0.227 C 
HETATM   11  O1  UNL     1      24.334  34.378  19.692  1.00  0.00    -0.273 OA
HETATM   12  N2  UNL     1      22.496  33.914  18.395  1.00  0.00    -0.356 N 
ATOM     13  H2  UNL     1      22.133  33.570  17.506  1.00  0.00     0.162 HD
BRANCH  12  14
HETATM   14  C6  UNL     1      21.560  34.350  19.415  1.00  0.00     0.084 C 
HETATM   15  C7  UNL     1      21.128  33.146  20.227  1.00  0.00     0.025 C 
HETATM   16  C8  UNL     1      19.727  32.704  19.788  1.00  0.00     0.002 C 
HETATM   17  C9  UNL     1      18.783  33.793  20.243  1.00  0.00     0.004 C 
HETATM   18  C10 UNL     1      19.165  35.075  19.554  1.00  0.00    -0.017 C 
HETATM   19  C11 UNL     1      19.224  36.224  20.539  1.00  0.00     0.010 C 
HETATM   20  C12 UNL     1      20.381  34.979  18.702  1.00  0.00     0.029 C 
ENDBRANCH  12  14
ENDBRANCH   9  10
ENDBRANCH   8   9
ENDBRANCH   2   8
BRANCH   1  21
HETATM   21  C2  UNL     1      21.436  29.979  16.540  1.00  0.00     0.145 C 
HETATM   22  C1  UNL     1      22.048  29.042  15.490  1.00  0.00     0.027 C 
ENDBRANCH   1  21
BRANCH   7  23
HETATM   23  N5  UNL     1      21.056  28.415  19.033  1.00  0.00    -0.212 N 
HETATM   24  C14 UNL     1      19.845  28.834  19.693  1.00  0.00     0.167 C 
HETATM   25  C15 UNL     1      19.598  27.913  20.861  1.00  0.00     0.188 C 
HETATM   26  O2  UNL     1      20.461  26.823  20.854  1.00  0.00    -0.388 OA
HETATM   27  C16 UNL     1      20.476  26.160  19.645  1.00  0.00     0.188 C 
HETATM   28  C17 UNL     1      21.174  27.043  18.603  1.00  0.00     0.167 C 
ENDBRANCH   7  23
TORSDOF 6
ENDMDL
MODEL 5
REMARK VINA RESULT: -7.008077246      2.742      4.886
REMARK  6 active torsions:
REMARK  status: ('A' for Active; 'I' for Inactive)
REMARK    1  A    between atoms: C2_2  and  N1_3 
REMARK    2  A    between atoms: C3_4  and  S1_5 
REMARK    3  A    between atoms: S1_5  and  C4_6 
REMARK    4  A    between atoms: C4_6  and  C5_7 
REMARK       I    between atoms: C5_7  and  N2_9 
REMARK    5  A    between atoms: N2_9  and  C6_11 
REMARK    6  A    between atoms: C13_22  and  N5_23 
ROOT
HETATM    1  N1  UNL     1      23.147  31.099  18.373  1.00  0.00    -0.160 N 
HETATM    2  C3  UNL     1      24.299  31.673  18.091  1.00  0.00     0.177 A 
HETATM    3  N3  UNL     1      25.129  31.350  19.138  1.00  0.00    -0.265 N 
ATOM      4  H3  UNL     1      26.103  31.639  19.235  1.00  0.00     0.189 HD
HETATM    5  N4  UNL     1      24.463  30.609  19.993  1.00  0.00    -0.130 N 
ATOM      6  H4  UNL     1      24.845  30.233  20.860  1.00  0.00     0.205 HD
HETATM    7  C13 UNL     1      23.207  30.418  19.563  1.00  0.00     0.699 A 
ENDROOT
BRANCH   2   8
HETATM    8  S1  UNL     1      24.877  32.662  16.778  1.00  0.00    -0.083 SA
BRANCH   8   9
HETATM    9  C4  UNL     1      24.016  34.155  16.415  1.00  0.00     0.185 C 
BRANCH   9  10
HETATM   10  C5  UNL     1      23.422  34.684  17.699  1.00  0.00     0.227 C 
HETATM   11  O1  UNL     1      24.132  35.120  18.638  1.00  0.00    -0.273 OA
HETATM   12  N2  UNL     1      22.012  34.697  17.863  1.00  0.00    -0.356 N 
ATOM     13  H2  UNL     1      21.425  34.348  17.106  1.00  0.00     0.162 HD
BRANCH  12  14
HETATM   14  C6  UNL     1      21.379  35.191  19.072  1.00  0.00     0.084 C 
HETATM   15  C7  UNL     1      20.907  34.008  19.894  1.00  0.00     0.025 C 
HETATM   16  C8  UNL     1      19.393  33.836  19.727  1.00  0.00     0.002 C 
HETATM   17  C9  UNL     1      18.758  35.020  20.418  1.00  0.00     0.004 C 
HETATM   18  C10 UNL     1      19.218  36.277  19.731  1.00  0.00    -0.017 C 
HETATM   19  C11 UNL     1      19.664  37.316  20.739  1.00  0.00     0.010 C 
HETATM   20  C12 UNL     1      20.213  36.059  18.646  1.00  0.00     0.029 C 
ENDBRANCH  12  14
ENDBRANCH   9  10
ENDBRANCH   8   9
ENDBRANCH   2   8
BRANCH   1  21
HETATM   21  C2  UNL     1      21.957  31.138  17.572  1.00  0.00     0.145 C 
HETATM   22  C1  UNL     1      21.946  29.992  16.552  1.00  0.00     0.027 C 
ENDBRANCH   1  21
BRANCH   7  23
HETATM   23  N5  UNL     1      22.148  29.695  20.158  1.00  0.00    -0.212 N 
HETATM   24  C14 UNL     1      22.058  28.270  19.954  1.00  0.00     0.167 C 
HETATM   25  C15 UNL     1      20.684  27.954  19.418  1.00  0.00     0.188 C 
HETATM   26  O2  UNL     1      19.841  29.058  19.467  1.00  0.00    -0.388 OA
HETATM   27  C16 UNL     1      19.806  29.650  20.711  1.00  0.00     0.188 C 
HETATM   28  C17 UNL     1      21.148  30.345  20.970  1.00  0.00     0.167 C 
ENDBRANCH   7  23
TORSDOF 6
ENDMDL
