MODEL 1
REMARK VINA RESULT: -7.541477968      0.000      0.000
REMARK  10 active torsions:
REMARK  status: ('A' for Active; 'I' for Inactive)
REMARK    1  A    between atoms: C2_2  and  O1_3 
REMARK    2  A    between atoms: O1_3  and  C3_4 
REMARK    3  A    between atoms: C3_4  and  C4_6 
REMARK    4  A    between atoms: C4_6  and  C5_7 
REMARK    5  A    between atoms: C5_7  and  N1_8 
REMARK       I    between atoms: N1_8  and  C6_10 
REMARK    6  A    between atoms: C6_10  and  O4_12 
REMARK    7  A    between atoms: O4_12  and  C7_13 
REMARK    8  A    between atoms: C9_15  and  C10_16 
REMARK    9  A    between atoms: C10_16  and  O5_17 
REMARK   10  A    between atoms: C10_16  and  C11_19 
ROOT
HETATM    1  C7  UNL     1      20.637  32.257  19.621  1.00  0.00     0.074 C 
HETATM    2  C8  UNL     1      21.408  32.738  18.598  1.00  0.00    -0.001 C 
HETATM    3  C9  UNL     1      22.715  32.195  18.381  1.00  0.00     0.029 C 
HETATM    4  C15 UNL     1      23.073  31.981  17.068  1.00  0.00     0.093 C 
HETATM    5 CL1  UNL     1      24.612  31.303  16.661  1.00  0.00    -0.079 Cl
HETATM    6  C16 UNL     1      22.123  32.522  16.092  1.00  0.00     0.172 C 
HETATM    7  O6  UNL     1      21.887  31.867  15.078  1.00  0.00    -0.291 OA
HETATM    8  C17 UNL     1      21.511  33.863  16.430  1.00  0.00     0.102 C 
HETATM    9  C18 UNL     1      20.757  33.692  17.657  1.00  0.00     0.107 C 
HETATM   10  C19 UNL     1      20.220  34.813  18.420  1.00  0.00     0.204 C 
HETATM   11  O7  UNL     1      20.285  35.977  18.111  1.00  0.00    -0.288 OA
HETATM   12  C20 UNL     1      19.542  34.408  19.688  1.00  0.00     0.201 C 
HETATM   13  O8  UNL     1      19.199  35.211  20.562  1.00  0.00    -0.289 OA
HETATM   14  C21 UNL     1      19.328  32.908  19.769  1.00  0.00     0.152 C 
ENDROOT
BRANCH   1  15
HETATM   15  O4  UNL     1      21.187  31.257  20.357  1.00  0.00    -0.265 OA
BRANCH  15  16
HETATM   16  C6  UNL     1      20.489  30.091  20.628  1.00  0.00     0.365 C 
HETATM   17  N1  UNL     1      20.464  28.975  19.763  1.00  0.00    -0.336 N 
ATOM     18  H1  UNL     1      20.983  29.015  18.885  1.00  0.00     0.164 HD
HETATM   19  O3  UNL     1      19.857  30.072  21.714  1.00  0.00    -0.238 OA
BRANCH  17  20
HETATM   20  C5  UNL     1      19.721  27.778  20.088  1.00  0.00     0.134 C 
BRANCH  20  21
HETATM   21  C4  UNL     1      20.190  26.569  19.330  1.00  0.00     0.131 C 
BRANCH  21  22
HETATM   22  C3  UNL     1      21.434  26.861  18.547  1.00  0.00     0.260 C 
HETATM   23  O2  UNL     1      22.542  26.744  19.132  1.00  0.00    -0.265 OA
BRANCH  22  24
HETATM   24  O1  UNL     1      21.429  27.249  17.231  1.00  0.00    -0.322 OA
BRANCH  24  25
HETATM   25  C2  UNL     1      21.803  28.548  16.814  1.00  0.00     0.174 C 
HETATM   26  C1  UNL     1      22.180  28.475  15.359  1.00  0.00     0.034 C 
ENDBRANCH  24  25
ENDBRANCH  22  24
ENDBRANCH  21  22
ENDBRANCH  20  21
ENDBRANCH  17  20
ENDBRANCH  15  16
ENDBRANCH   1  15
BRANCH   3  27
HETATM   27  C10 UNL     1      23.723  32.110  19.387  1.00  0.00     0.063 C 
BRANCH  27  28
HETATM   28  O5  UNL     1      23.943  30.845  19.745  1.00  0.00    -0.363 OA
ATOM     29  H5  UNL     1      23.489  30.240  19.170  1.00  0.00     0.217 HD
ENDBRANCH  27  28
BRANCH  27  30
HETATM   30  C11 UNL     1      24.582  32.999  20.097  1.00  0.00    -0.002 C 
HETATM   31  C12 UNL     1      25.977  33.135  19.483  1.00  0.00     0.021 C 
HETATM   32  C13 UNL     1      24.012  34.489  19.721  1.00  0.00     0.021 C 
HETATM   33  C14 UNL     1      24.643  33.111  21.556  1.00  0.00     0.021 C 
ENDBRANCH  27  30
ENDBRANCH   3  27
TORSDOF 10
ENDMDL
MODEL 2
REMARK VINA RESULT: -7.312111586      2.356      5.137
REMARK  10 active torsions:
REMARK  status: ('A' for Active; 'I' for Inactive)
REMARK    1  A    between atoms: C2_2  and  O1_3 
REMARK    2  A    between atoms: O1_3  and  C3_4 
REMARK    3  A    between atoms: C3_4  and  C4_6 
REMARK    4  A    between atoms: C4_6  and  C5_7 
REMARK    5  A    between atoms: C5_7  and  N1_8 
REMARK       I    between atoms: N1_8  and  C6_10 
REMARK    6  A    between atoms: C6_10  and  O4_12 
REMARK    7  A    between atoms: O4_12  and  C7_13 
REMARK    8  A    between atoms: C9_15  and  C10_16 
REMARK    9  A    between atoms: C10_16  and  O5_17 
REMARK   10  A    between atoms: C10_16  and  C11_19 
ROOT
HETATM    1  C7  UNL     1      23.561  32.917  19.326  1.00  0.00     0.074 C 
HETATM    2  C8  UNL     1      22.536  32.591  20.171  1.00  0.00    -0.001 C 
HETATM    3  C9  UNL     1      21.183  32.674  19.708  1.00  0.00     0.029 C 
HETATM    4  C15 UNL     1      20.346  31.649  20.093  1.00  0.00     0.093 C 
HETATM    5 CL1  UNL     1      18.694  31.606  19.581  1.00  0.00    -0.079 Cl
HETATM    6  C16 UNL     1      20.933  30.732  21.074  1.00  0.00     0.172 C 
HETATM    7  O6  UNL     1      20.700  29.530  20.966  1.00  0.00    -0.291 OA
HETATM    8  C17 UNL     1      21.788  31.364  22.150  1.00  0.00     0.102 C 
HETATM    9  C18 UNL     1      22.910  31.999  21.486  1.00  0.00     0.107 C 
HETATM   10  C19 UNL     1      23.824  32.909  22.169  1.00  0.00     0.204 C 
HETATM   11  O7  UNL     1      23.794  33.196  23.340  1.00  0.00    -0.288 OA
HETATM   12  C20 UNL     1      24.862  33.502  21.274  1.00  0.00     0.201 C 
HETATM   13  O8  UNL     1      25.597  34.436  21.612  1.00  0.00    -0.289 OA
HETATM   14  C21 UNL     1      24.904  32.826  19.917  1.00  0.00     0.152 C 
ENDROOT
BRANCH   1  15
HETATM   15  O4  UNL     1      23.199  33.284  18.070  1.00  0.00    -0.265 OA
BRANCH  15  16
HETATM   16  C6  UNL     1      23.626  32.575  16.958  1.00  0.00     0.365 C 
HETATM   17  N1  UNL     1      23.553  31.169  16.850  1.00  0.00    -0.336 N 
ATOM     18  H1  UNL     1      23.167  30.631  17.627  1.00  0.00     0.164 HD
HETATM   19  O3  UNL     1      24.099  33.264  16.020  1.00  0.00    -0.238 OA
BRANCH  17  20
HETATM   20  C5  UNL     1      24.011  30.472  15.669  1.00  0.00     0.134 C 
BRANCH  20  21
HETATM   21  C4  UNL     1      22.889  29.902  14.850  1.00  0.00     0.131 C 
BRANCH  21  22
HETATM   22  C3  UNL     1      21.707  29.556  15.703  1.00  0.00     0.260 C 
HETATM   23  O2  UNL     1      20.739  30.359  15.727  1.00  0.00    -0.265 OA
BRANCH  22  24
HETATM   24  O1  UNL     1      21.624  28.413  16.458  1.00  0.00    -0.322 OA
BRANCH  24  25
HETATM   25  C2  UNL     1      21.656  28.427  17.872  1.00  0.00     0.174 C 
HETATM   26  C1  UNL     1      21.637  26.999  18.348  1.00  0.00     0.034 C 
ENDBRANCH  24  25
ENDBRANCH  22  24
ENDBRANCH  21  22
ENDBRANCH  20  21
ENDBRANCH  17  20
ENDBRANCH  15  16
ENDBRANCH   1  15
BRANCH   3  27
HETATM   27  C10 UNL     1      20.610  33.837  19.115  1.00  0.00     0.063 C 
BRANCH  27  28
HETATM   28  O5  UNL     1      20.530  33.715  17.791  1.00  0.00    -0.363 OA
ATOM     29  H5  UNL     1      19.698  34.039  17.464  1.00  0.00     0.217 HD
ENDBRANCH  27  28
BRANCH  27  30
HETATM   30  C11 UNL     1      20.073  35.085  19.547  1.00  0.00    -0.002 C 
HETATM   31  C12 UNL     1      21.126  36.066  20.067  1.00  0.00     0.021 C 
HETATM   32  C13 UNL     1      19.694  35.860  18.155  1.00  0.00     0.021 C 
HETATM   33  C14 UNL     1      18.812  35.243  20.276  1.00  0.00     0.021 C 
ENDBRANCH  27  30
ENDBRANCH   3  27
TORSDOF 10
ENDMDL
MODEL 3
REMARK VINA RESULT: -7.310605213      2.493      5.191
REMARK  10 active torsions:
REMARK  status: ('A' for Active; 'I' for Inactive)
REMARK    1  A    between atoms: C2_2  and  O1_3 
REMARK    2  A    between atoms: O1_3  and  C3_4 
REMARK    3  A    between atoms: C3_4  and  C4_6 
REMARK    4  A    between atoms: C4_6  and  C5_7 
REMARK    5  A    between atoms: C5_7  and  N1_8 
REMARK       I    between atoms: N1_8  and  C6_10 
REMARK    6  A    between atoms: C6_10  and  O4_12 
REMARK    7  A    between atoms: O4_12  and  C7_13 
REMARK    8  A    between atoms: C9_15  and  C10_16 
REMARK    9  A    between atoms: C10_16  and  O5_17 
REMARK   10  A    between atoms: C10_16  and  C11_19 
ROOT
HETATM    1  C7  UNL     1      23.988  32.520  16.620  1.00  0.00     0.074 C 
HETATM    2  C8  UNL     1      23.586  33.414  17.574  1.00  0.00    -0.001 C 
HETATM    3  C9  UNL     1      22.236  33.894  17.569  1.00  0.00     0.029 C 
HETATM    4  C15 UNL     1      21.628  34.003  18.801  1.00  0.00     0.093 C 
HETATM    5 CL1  UNL     1      19.990  34.542  18.942  1.00  0.00    -0.079 Cl
HETATM    6  C16 UNL     1      22.528  33.785  19.936  1.00  0.00     0.172 C 
HETATM    7  O6  UNL     1      22.106  33.162  20.909  1.00  0.00    -0.291 OA
HETATM    8  C17 UNL     1      23.921  34.360  19.803  1.00  0.00     0.102 C 
HETATM    9  C18 UNL     1      24.548  33.703  18.674  1.00  0.00     0.107 C 
HETATM   10  C19 UNL     1      25.806  34.157  18.090  1.00  0.00     0.204 C 
HETATM   11  O7  UNL     1      26.485  35.069  18.493  1.00  0.00    -0.288 OA
HETATM   12  C20 UNL     1      26.229  33.376  16.889  1.00  0.00     0.201 C 
HETATM   13  O8  UNL     1      27.151  33.724  16.143  1.00  0.00    -0.289 OA
HETATM   14  C21 UNL     1      25.400  32.120  16.701  1.00  0.00     0.152 C 
ENDROOT
BRANCH   1  15
HETATM   15  O4  UNL     1      23.036  32.134  15.731  1.00  0.00    -0.265 OA
BRANCH  15  16
HETATM   16  C6  UNL     1      22.327  30.955  15.898  1.00  0.00     0.365 C 
HETATM   17  N1  UNL     1      22.729  29.915  16.765  1.00  0.00    -0.336 N 
ATOM     18  H1  UNL     1      23.589  30.023  17.305  1.00  0.00     0.164 HD
HETATM   19  O3  UNL     1      21.275  30.850  15.219  1.00  0.00    -0.238 OA
BRANCH  17  20
HETATM   20  C5  UNL     1      21.956  28.702  16.907  1.00  0.00     0.134 C 
BRANCH  20  21
HETATM   21  C4  UNL     1      21.438  28.493  18.301  1.00  0.00     0.131 C 
BRANCH  21  22
HETATM   22  C3  UNL     1      21.706  27.100  18.783  1.00  0.00     0.260 C 
HETATM   23  O2  UNL     1      22.790  26.879  19.381  1.00  0.00    -0.265 OA
BRANCH  22  24
HETATM   24  O1  UNL     1      20.833  26.055  18.607  1.00  0.00    -0.322 OA
BRANCH  24  25
HETATM   25  C2  UNL     1      20.105  25.479  19.674  1.00  0.00     0.174 C 
HETATM   26  C1  UNL     1      18.854  26.292  19.871  1.00  0.00     0.034 C 
ENDBRANCH  24  25
ENDBRANCH  22  24
ENDBRANCH  21  22
ENDBRANCH  20  21
ENDBRANCH  17  20
ENDBRANCH  15  16
ENDBRANCH   1  15
BRANCH   3  27
HETATM   27  C10 UNL     1      21.602  34.488  16.439  1.00  0.00     0.063 C 
BRANCH  27  28
HETATM   28  O5  UNL     1      20.639  33.702  15.957  1.00  0.00    -0.363 OA
ATOM     29  H5  UNL     1      20.215  34.098  15.205  1.00  0.00     0.217 HD
ENDBRANCH  27  28
BRANCH  27  30
HETATM   30  C11 UNL     1      21.691  35.702  15.696  1.00  0.00    -0.002 C 
HETATM   31  C12 UNL     1      20.779  35.744  14.468  1.00  0.00     0.021 C 
HETATM   32  C13 UNL     1      20.895  36.795  16.620  1.00  0.00     0.021 C 
HETATM   33  C14 UNL     1      22.933  36.436  15.446  1.00  0.00     0.021 C 
ENDBRANCH  27  30
ENDBRANCH   3  27
TORSDOF 10
ENDMDL
MODEL 4
REMARK VINA RESULT: -7.229209306      2.101      4.330
REMARK  10 active torsions:
REMARK  status: ('A' for Active; 'I' for Inactive)
REMARK    1  A    between atoms: C2_2  and  O1_3 
REMARK    2  A    between atoms: O1_3  and  C3_4 
REMARK    3  A    between atoms: C3_4  and  C4_6 
REMARK    4  A    between atoms: C4_6  and  C5_7 
REMARK    5  A    between atoms: C5_7  and  N1_8 
REMARK       I    between atoms: N1_8  and  C6_10 
REMARK    6  A    between atoms: C6_10  and  O4_12 
REMARK    7  A    between atoms: O4_12  and  C7_13 
REMARK    8  A    between atoms: C9_15  and  C10_16 
REMARK    9  A    between atoms: C10_16  and  O5_17 
REMARK   10  A    between atoms: C10_16  and  C11_19 
ROOT
HETATM    1  C7  UNL     1      23.173  32.548  17.826  1.00  0.00     0.074 C 
HETATM    2  C8  UNL     1      22.670  33.188  18.926  1.00  0.00    -0.001 C 
HETATM    3  C9  UNL     1      22.582  32.489  20.172  1.00  0.00     0.029 C 
HETATM    4  C15 UNL     1      22.934  33.205  21.295  1.00  0.00     0.093 C 
HETATM    5 CL1  UNL     1      22.904  32.478  22.865  1.00  0.00    -0.079 Cl
HETATM    6  C16 UNL     1      23.165  34.631  21.049  1.00  0.00     0.172 C 
HETATM    7  O6  UNL     1      24.089  35.187  21.639  1.00  0.00    -0.291 OA
HETATM    8  C17 UNL     1      22.223  35.300  20.073  1.00  0.00     0.102 C 
HETATM    9  C18 UNL     1      22.402  34.647  18.790  1.00  0.00     0.107 C 
HETATM   10  C19 UNL     1      21.503  34.857  17.661  1.00  0.00     0.204 C 
HETATM   11  O7  UNL     1      20.564  35.614  17.635  1.00  0.00    -0.288 OA
HETATM   12  C20 UNL     1      21.835  34.027  16.465  1.00  0.00     0.201 C 
HETATM   13  O8  UNL     1      21.088  33.914  15.488  1.00  0.00    -0.289 OA
HETATM   14  C21 UNL     1      23.187  33.350  16.594  1.00  0.00     0.152 C 
ENDROOT
BRANCH   1  15
HETATM   15  O4  UNL     1      23.579  31.266  18.020  1.00  0.00    -0.265 OA
BRANCH  15  16
HETATM   16  C6  UNL     1      23.232  30.257  17.137  1.00  0.00     0.365 C 
HETATM   17  N1  UNL     1      22.136  29.389  17.331  1.00  0.00    -0.336 N 
ATOM     18  H1  UNL     1      21.556  29.499  18.164  1.00  0.00     0.164 HD
HETATM   19  O3  UNL     1      23.965  30.144  16.122  1.00  0.00    -0.238 OA
BRANCH  17  20
HETATM   20  C5  UNL     1      21.812  28.348  16.381  1.00  0.00     0.134 C 
BRANCH  20  21
HETATM   21  C4  UNL     1      22.045  26.966  16.919  1.00  0.00     0.131 C 
BRANCH  21  22
HETATM   22  C3  UNL     1      21.656  26.865  18.362  1.00  0.00     0.260 C 
HETATM   23  O2  UNL     1      22.530  27.119  19.230  1.00  0.00    -0.265 OA
BRANCH  22  24
HETATM   24  O1  UNL     1      20.399  26.513  18.786  1.00  0.00    -0.322 OA
BRANCH  24  25
HETATM   25  C2  UNL     1      20.176  25.587  19.832  1.00  0.00     0.174 C 
HETATM   26  C1  UNL     1      19.795  26.363  21.063  1.00  0.00     0.034 C 
ENDBRANCH  24  25
ENDBRANCH  22  24
ENDBRANCH  21  22
ENDBRANCH  20  21
ENDBRANCH  17  20
ENDBRANCH  15  16
ENDBRANCH   1  15
BRANCH   3  27
HETATM   27  C10 UNL     1      21.931  31.231  20.341  1.00  0.00     0.063 C 
BRANCH  27  28
HETATM   28  O5  UNL     1      22.813  30.234  20.399  1.00  0.00    -0.363 OA
ATOM     29  H5  UNL     1      22.450  29.478  20.845  1.00  0.00     0.217 HD
ENDBRANCH  27  28
BRANCH  27  30
HETATM   30  C11 UNL     1      20.599  30.746  20.492  1.00  0.00    -0.002 C 
HETATM   31  C12 UNL     1      20.216  30.430  21.940  1.00  0.00     0.021 C 
HETATM   32  C13 UNL     1      19.664  32.074  20.284  1.00  0.00     0.021 C 
HETATM   33  C14 UNL     1      19.938  29.822  19.567  1.00  0.00     0.021 C 
ENDBRANCH  27  30
ENDBRANCH   3  27
TORSDOF 10
ENDMDL
MODEL 5
REMARK VINA RESULT: -7.128858735      2.208      5.974
REMARK  10 active torsions:
REMARK  status: ('A' for Active; 'I' for Inactive)
REMARK    1  A    between atoms: C2_2  and  O1_3 
REMARK    2  A    between atoms: O1_3  and  C3_4 
REMARK    3  A    between atoms: C3_4  and  C4_6 
REMARK    4  A    between atoms: C4_6  and  C5_7 
REMARK    5  A    between atoms: C5_7  and  N1_8 
REMARK       I    between atoms: N1_8  and  C6_10 
REMARK    6  A    between atoms: C6_10  and  O4_12 
REMARK    7  A    between atoms: O4_12  and  C7_13 
REMARK    8  A    between atoms: C9_15  and  C10_16 
REMARK    9  A    between atoms: C10_16  and  O5_17 
REMARK   10  A    between atoms: C10_16  and  C11_19 
ROOT
HETATM    1  C7  UNL     1      22.081  31.573  17.166  1.00  0.00     0.074 C 
HETATM    2  C8  UNL     1      22.557  31.055  18.340  1.00  0.00    -0.001 C 
HETATM    3  C9  UNL     1      23.575  31.757  19.062  1.00  0.00     0.029 C 
HETATM    4  C15 UNL     1      23.430  31.797  20.431  1.00  0.00     0.093 C 
HETATM    5 CL1  UNL     1      24.569  32.636  21.426  1.00  0.00    -0.079 Cl
HETATM    6  C16 UNL     1      22.349  30.951  20.944  1.00  0.00     0.172 C 
HETATM    7  O6  UNL     1      21.661  31.376  21.871  1.00  0.00    -0.291 OA
HETATM    8  C17 UNL     1      22.178  29.606  20.273  1.00  0.00     0.102 C 
HETATM    9  C18 UNL     1      21.850  29.861  18.884  1.00  0.00     0.107 C 
HETATM   10  C19 UNL     1      21.843  28.815  17.866  1.00  0.00     0.204 C 
HETATM   11  O7  UNL     1      22.047  27.642  18.055  1.00  0.00    -0.288 OA
HETATM   12  C20 UNL     1      21.549  29.317  16.490  1.00  0.00     0.201 C 
HETATM   13  O8  UNL     1      21.690  28.630  15.473  1.00  0.00    -0.289 OA
HETATM   14  C21 UNL     1      21.062  30.753  16.496  1.00  0.00     0.152 C 
ENDROOT
BRANCH   1  15
HETATM   15  O4  UNL     1      22.618  32.760  16.782  1.00  0.00    -0.265 OA
BRANCH  15  16
HETATM   16  C6  UNL     1      21.825  33.791  16.305  1.00  0.00     0.365 C 
HETATM   17  N1  UNL     1      21.491  34.936  17.061  1.00  0.00    -0.336 N 
ATOM     18  H1  UNL     1      21.846  35.023  18.014  1.00  0.00     0.164 HD
HETATM   19  O3  UNL     1      21.401  33.655  15.130  1.00  0.00    -0.238 OA
BRANCH  17  20
HETATM   20  C5  UNL     1      20.660  35.988  16.520  1.00  0.00     0.134 C 
BRANCH  20  21
HETATM   21  C4  UNL     1      19.476  36.308  17.387  1.00  0.00     0.131 C 
BRANCH  21  22
HETATM   22  C3  UNL     1      19.560  35.608  18.710  1.00  0.00     0.260 C 
HETATM   23  O2  UNL     1      20.077  36.227  19.675  1.00  0.00    -0.265 OA
BRANCH  22  24
HETATM   24  O1  UNL     1      19.104  34.331  18.923  1.00  0.00    -0.322 OA
BRANCH  24  25
HETATM   25  C2  UNL     1      19.804  33.391  19.715  1.00  0.00     0.174 C 
HETATM   26  C1  UNL     1      18.985  32.130  19.766  1.00  0.00     0.034 C 
ENDBRANCH  24  25
ENDBRANCH  22  24
ENDBRANCH  21  22
ENDBRANCH  20  21
ENDBRANCH  17  20
ENDBRANCH  15  16
ENDBRANCH   1  15
BRANCH   3  27
HETATM   27  C10 UNL     1      24.815  32.175  18.495  1.00  0.00     0.063 C 
BRANCH  27  28
HETATM   28  O5  UNL     1      25.481  31.144  17.975  1.00  0.00    -0.363 OA
ATOM     29  H5  UNL     1      25.222  30.985  17.075  1.00  0.00     0.217 HD
ENDBRANCH  27  28
BRANCH  27  30
HETATM   30  C11 UNL     1      25.530  33.394  18.303  1.00  0.00    -0.002 C 
HETATM   31  C12 UNL     1      26.937  33.387  18.904  1.00  0.00     0.021 C 
HETATM   32  C13 UNL     1      25.948  33.366  16.719  1.00  0.00     0.021 C 
HETATM   33  C14 UNL     1      24.936  34.730  18.386  1.00  0.00     0.021 C 
ENDBRANCH  27  30
ENDBRANCH   3  27
TORSDOF 10
ENDMDL
