MODEL 1
REMARK VINA RESULT: -7.992442130      0.000      0.000
REMARK  7 active torsions:
REMARK  status: ('A' for Active; 'I' for Inactive)
REMARK    1  A    between atoms: C5_7  and  C6_8 
REMARK    2  A    between atoms: C6_8  and  N2_9 
REMARK    3  A    between atoms: C8_14  and  N4_15 
REMARK    4  A    between atoms: C14_22  and  N5_23 
REMARK    5  A    between atoms: N5_23  and  C15_24 
REMARK    6  A    between atoms: C15_24  and  C16_25 
REMARK    7  A    between atoms: C16_25  and  N6_26 
ROOT
HETATM    1  N2  UNL     1      21.451  32.986  18.256  1.00  0.00    -0.268 N 
HETATM    2  C7  UNL     1      21.675  34.198  17.757  1.00  0.00     0.330 A 
HETATM    3  O1  UNL     1      22.666  34.354  16.960  1.00  0.00    -0.246 OA
HETATM    4  N3  UNL     1      20.900  35.274  18.040  1.00  0.00    -0.293 N 
ATOM      5  H3  UNL     1      21.127  36.179  17.628  1.00  0.00     0.172 HD
HETATM    6  C8  UNL     1      19.830  35.167  18.861  1.00  0.00     0.134 A 
HETATM    7  C13 UNL     1      19.589  33.912  19.376  1.00  0.00     0.136 A 
HETATM    8 CL1  UNL     1      18.179  33.816  20.463  1.00  0.00    -0.075 Cl
HETATM    9  C14 UNL     1      20.364  32.789  19.104  1.00  0.00     0.210 A 
ENDROOT
BRANCH   1  10
HETATM   10  C6  UNL     1      22.370  31.898  18.263  1.00  0.00     0.184 C 
BRANCH  10  11
HETATM   11  C5  UNL     1      22.531  31.010  17.109  1.00  0.00     0.025 A 
HETATM   12  C3  UNL     1      23.666  30.847  16.299  1.00  0.00     0.020 A 
HETATM   13  N1  UNL     1      23.571  30.059  15.299  1.00  0.00    -0.357 N 
HETATM   14  C4  UNL     1      24.990  31.510  16.658  1.00  0.00     0.069 C 
HETATM   15  C2  UNL     1      22.447  29.420  15.035  1.00  0.00     0.047 A 
ATOM     16  H1  UNL     1      24.380  29.920  14.693  1.00  0.00     0.166 HD
HETATM   17  C1  UNL     1      22.176  28.458  13.904  1.00  0.00     0.076 C 
HETATM   18  S1  UNL     1      21.438  29.989  16.316  1.00  0.00    -0.078 SA
ENDBRANCH  10  11
ENDBRANCH   1  10
BRANCH   9  19
HETATM   19  N5  UNL     1      20.011  31.726  19.603  1.00  0.00    -0.400 NA
BRANCH  19  20
HETATM   20  C15 UNL     1      19.579  30.608  20.122  1.00  0.00     0.187 C 
BRANCH  20  21
HETATM   21  C16 UNL     1      20.570  29.613  20.746  1.00  0.00     0.331 C 
BRANCH  21  22
HETATM   22  N6  UNL     1      20.722  28.439  19.997  1.00  0.00     0.098 N 
HETATM   23  C17 UNL     1      22.026  28.024  19.586  1.00  0.00     0.299 C 
HETATM   24  C18 UNL     1      21.749  26.809  18.656  1.00  0.00     0.198 C 
HETATM   25  O2  UNL     1      21.172  25.771  19.304  1.00  0.00    -0.388 OA
HETATM   26  C19 UNL     1      19.931  26.141  19.804  1.00  0.00     0.198 C 
HETATM   27  C20 UNL     1      20.159  27.317  20.741  1.00  0.00     0.299 C 
ENDBRANCH  21  22
ENDBRANCH  20  21
ENDBRANCH  19  20
ENDBRANCH   9  19
BRANCH   6  28
HETATM   28  N4  UNL     1      19.046  36.307  19.133  1.00  0.00    -0.366 N 
HETATM   29  C9  UNL     1      17.862  36.663  18.335  1.00  0.00     0.124 C 
HETATM   30  C10 UNL     1      17.685  38.137  18.478  1.00  0.00     0.021 C 
HETATM   31  C11 UNL     1      18.706  38.605  19.491  1.00  0.00     0.021 C 
HETATM   32  C12 UNL     1      19.249  37.335  20.122  1.00  0.00     0.124 C 
ENDBRANCH   6  28
TORSDOF 7
ENDMDL
MODEL 2
REMARK VINA RESULT: -7.342965474      2.590      6.687
REMARK  7 active torsions:
REMARK  status: ('A' for Active; 'I' for Inactive)
REMARK    1  A    between atoms: C5_7  and  C6_8 
REMARK    2  A    between atoms: C6_8  and  N2_9 
REMARK    3  A    between atoms: C8_14  and  N4_15 
REMARK    4  A    between atoms: C14_22  and  N5_23 
REMARK    5  A    between atoms: N5_23  and  C15_24 
REMARK    6  A    between atoms: C15_24  and  C16_25 
REMARK    7  A    between atoms: C16_25  and  N6_26 
ROOT
HETATM    1  N2  UNL     1      20.694  32.135  19.142  1.00  0.00    -0.268 N 
HETATM    2  C7  UNL     1      19.602  31.857  19.848  1.00  0.00     0.330 A 
HETATM    3  O1  UNL     1      18.837  32.825  20.190  1.00  0.00    -0.246 OA
HETATM    4  N3  UNL     1      19.253  30.599  20.212  1.00  0.00    -0.293 N 
ATOM      5  H3  UNL     1      18.403  30.451  20.757  1.00  0.00     0.172 HD
HETATM    6  C8  UNL     1      20.012  29.535  19.864  1.00  0.00     0.134 A 
HETATM    7  C13 UNL     1      21.142  29.816  19.128  1.00  0.00     0.136 A 
HETATM    8 CL1  UNL     1      22.123  28.389  18.702  1.00  0.00    -0.075 Cl
HETATM    9  C14 UNL     1      21.528  31.095  18.737  1.00  0.00     0.210 A 
ENDROOT
BRANCH   1  10
HETATM   10  C6  UNL     1      21.290  33.420  18.988  1.00  0.00     0.184 C 
BRANCH  10  11
HETATM   11  C5  UNL     1      20.955  34.301  17.866  1.00  0.00     0.025 A 
HETATM   12  C3  UNL     1      20.120  35.430  17.876  1.00  0.00     0.020 A 
HETATM   13  N1  UNL     1      19.915  36.024  16.765  1.00  0.00    -0.357 N 
HETATM   14  C4  UNL     1      19.562  35.983  19.182  1.00  0.00     0.069 C 
HETATM   15  C2  UNL     1      20.466  35.593  15.646  1.00  0.00     0.047 A 
ATOM     16  H1  UNL     1      19.313  36.847  16.742  1.00  0.00     0.166 HD
HETATM   17  C1  UNL     1      20.327  36.181  14.263  1.00  0.00     0.076 C 
HETATM   18  S1  UNL     1      21.351  34.226  16.222  1.00  0.00    -0.078 SA
ENDBRANCH  10  11
ENDBRANCH   1  10
BRANCH   9  19
HETATM   19  N5  UNL     1      22.539  31.194  18.052  1.00  0.00    -0.400 NA
BRANCH  19  20
HETATM   20  C15 UNL     1      23.648  31.283  17.369  1.00  0.00     0.187 C 
BRANCH  20  21
HETATM   21  C16 UNL     1      23.603  31.489  15.846  1.00  0.00     0.331 C 
BRANCH  21  22
HETATM   22  N6  UNL     1      22.737  30.602  15.193  1.00  0.00     0.098 N 
HETATM   23  C17 UNL     1      22.364  30.847  13.835  1.00  0.00     0.299 C 
HETATM   24  C18 UNL     1      21.289  29.761  13.548  1.00  0.00     0.198 C 
HETATM   25  O2  UNL     1      21.779  28.502  13.620  1.00  0.00    -0.388 OA
HETATM   26  C19 UNL     1      22.240  28.233  14.901  1.00  0.00     0.198 C 
HETATM   27  C20 UNL     1      23.314  29.262  15.215  1.00  0.00     0.299 C 
ENDBRANCH  21  22
ENDBRANCH  20  21
ENDBRANCH  19  20
ENDBRANCH   9  19
BRANCH   6  28
HETATM   28  N4  UNL     1      19.617  28.240  20.260  1.00  0.00    -0.366 N 
HETATM   29  C9  UNL     1      19.880  27.708  21.605  1.00  0.00     0.124 C 
HETATM   30  C10 UNL     1      19.912  26.223  21.474  1.00  0.00     0.021 C 
HETATM   31  C11 UNL     1      19.520  25.901  20.048  1.00  0.00     0.021 C 
HETATM   32  C12 UNL     1      18.987  27.205  19.480  1.00  0.00     0.124 C 
ENDBRANCH   6  28
TORSDOF 7
ENDMDL
MODEL 3
REMARK VINA RESULT: -7.180721523      1.946      2.986
REMARK  7 active torsions:
REMARK  status: ('A' for Active; 'I' for Inactive)
REMARK    1  A    between atoms: C5_7  and  C6_8 
REMARK    2  A    between atoms: C6_8  and  N2_9 
REMARK    3  A    between atoms: C8_14  and  N4_15 
REMARK    4  A    between atoms: C14_22  and  N5_23 
REMARK    5  A    between atoms: N5_23  and  C15_24 
REMARK    6  A    between atoms: C15_24  and  C16_25 
REMARK    7  A    between atoms: C16_25  and  N6_26 
ROOT
HETATM    1  N2  UNL     1      22.030  32.810  17.727  1.00  0.00    -0.268 N 
HETATM    2  C7  UNL     1      22.104  33.861  16.917  1.00  0.00     0.330 A 
HETATM    3  O1  UNL     1      22.975  33.845  15.978  1.00  0.00    -0.246 OA
HETATM    4  N3  UNL     1      21.295  34.944  17.028  1.00  0.00    -0.293 N 
ATOM      5  H3  UNL     1      21.405  35.721  16.376  1.00  0.00     0.172 HD
HETATM    6  C8  UNL     1      20.345  35.010  17.988  1.00  0.00     0.134 A 
HETATM    7  C13 UNL     1      20.260  33.921  18.827  1.00  0.00     0.136 A 
HETATM    8 CL1  UNL     1      19.005  34.053  20.088  1.00  0.00    -0.075 Cl
HETATM    9  C14 UNL     1      21.073  32.795  18.739  1.00  0.00     0.210 A 
ENDROOT
BRANCH   1  10
HETATM   10  C6  UNL     1      23.018  31.795  17.878  1.00  0.00     0.184 C 
BRANCH  10  11
HETATM   11  C5  UNL     1      24.426  32.115  18.129  1.00  0.00     0.025 A 
HETATM   12  C3  UNL     1      25.021  32.495  19.343  1.00  0.00     0.020 A 
HETATM   13  N1  UNL     1      26.263  32.790  19.326  1.00  0.00    -0.357 N 
HETATM   14  C4  UNL     1      24.235  32.460  20.648  1.00  0.00     0.069 C 
HETATM   15  C2  UNL     1      26.964  32.740  18.210  1.00  0.00     0.047 A 
ATOM     16  H1  UNL     1      26.722  33.069  20.193  1.00  0.00     0.166 HD
HETATM   17  C1  UNL     1      28.430  33.050  18.025  1.00  0.00     0.076 C 
HETATM   18  S1  UNL     1      25.755  32.232  17.086  1.00  0.00    -0.078 SA
ENDBRANCH  10  11
ENDBRANCH   1  10
BRANCH   9  19
HETATM   19  N5  UNL     1      20.861  31.883  19.530  1.00  0.00    -0.400 NA
BRANCH  19  20
HETATM   20  C15 UNL     1      20.580  30.909  20.353  1.00  0.00     0.187 C 
BRANCH  20  21
HETATM   21  C16 UNL     1      21.625  29.821  20.648  1.00  0.00     0.331 C 
BRANCH  21  22
HETATM   22  N6  UNL     1      21.232  28.545  20.221  1.00  0.00     0.098 N 
HETATM   23  C17 UNL     1      19.856  28.166  20.296  1.00  0.00     0.299 C 
HETATM   24  C18 UNL     1      19.868  26.662  19.903  1.00  0.00     0.198 C 
HETATM   25  O2  UNL     1      20.285  26.452  18.633  1.00  0.00    -0.388 OA
HETATM   26  C19 UNL     1      21.595  26.883  18.475  1.00  0.00     0.198 C 
HETATM   27  C20 UNL     1      21.625  28.362  18.828  1.00  0.00     0.299 C 
ENDBRANCH  21  22
ENDBRANCH  20  21
ENDBRANCH  19  20
ENDBRANCH   9  19
BRANCH   6  28
HETATM   28  N4  UNL     1      19.521  36.152  18.073  1.00  0.00    -0.366 N 
HETATM   29  C9  UNL     1      19.834  37.291  18.949  1.00  0.00     0.124 C 
HETATM   30  C10 UNL     1      18.536  37.959  19.252  1.00  0.00     0.021 C 
HETATM   31  C11 UNL     1      17.481  37.267  18.417  1.00  0.00     0.021 C 
HETATM   32  C12 UNL     1      18.256  36.408  17.433  1.00  0.00     0.124 C 
ENDBRANCH   6  28
TORSDOF 7
ENDMDL
MODEL 4
REMARK VINA RESULT: -7.173311595      1.679      2.501
REMARK  7 active torsions:
REMARK  status: ('A' for Active; 'I' for Inactive)
REMARK    1  A    between atoms: C5_7  and  C6_8 
REMARK    2  A    between atoms: C6_8  and  N2_9 
REMARK    3  A    between atoms: C8_14  and  N4_15 
REMARK    4  A    between atoms: C14_22  and  N5_23 
REMARK    5  A    between atoms: N5_23  and  C15_24 
REMARK    6  A    between atoms: C15_24  and  C16_25 
REMARK    7  A    between atoms: C16_25  and  N6_26 
ROOT
HETATM    1  N2  UNL     1      21.339  32.912  17.392  1.00  0.00    -0.268 N 
HETATM    2  C7  UNL     1      21.197  33.804  16.417  1.00  0.00     0.330 A 
HETATM    3  O1  UNL     1      21.695  33.533  15.268  1.00  0.00    -0.246 OA
HETATM    4  N3  UNL     1      20.541  34.980  16.575  1.00  0.00    -0.293 N 
ATOM      5  H3  UNL     1      20.470  35.625  15.788  1.00  0.00     0.172 HD
HETATM    6  C8  UNL     1      19.980  35.313  17.760  1.00  0.00     0.134 A 
HETATM    7  C13 UNL     1      20.119  34.390  18.773  1.00  0.00     0.136 A 
HETATM    8 CL1  UNL     1      19.378  34.872  20.321  1.00  0.00    -0.075 Cl
HETATM    9  C14 UNL     1      20.785  33.175  18.643  1.00  0.00     0.210 A 
ENDROOT
BRANCH   1  10
HETATM   10  C6  UNL     1      22.257  31.822  17.407  1.00  0.00     0.184 C 
BRANCH  10  11
HETATM   11  C5  UNL     1      23.708  32.030  17.388  1.00  0.00     0.025 A 
HETATM   12  C3  UNL     1      24.667  31.338  16.632  1.00  0.00     0.020 A 
HETATM   13  N1  UNL     1      25.894  31.640  16.814  1.00  0.00    -0.357 N 
HETATM   14  C4  UNL     1      24.252  30.335  15.562  1.00  0.00     0.069 C 
HETATM   15  C2  UNL     1      26.250  32.569  17.682  1.00  0.00     0.047 A 
ATOM     16  H1  UNL     1      26.614  31.155  16.278  1.00  0.00     0.166 HD
HETATM   17  C1  UNL     1      27.645  33.042  18.008  1.00  0.00     0.076 C 
HETATM   18  S1  UNL     1      24.708  33.053  18.292  1.00  0.00    -0.078 SA
ENDBRANCH  10  11
ENDBRANCH   1  10
BRANCH   9  19
HETATM   19  N5  UNL     1      20.799  32.433  19.618  1.00  0.00    -0.400 NA
BRANCH  19  20
HETATM   20  C15 UNL     1      20.771  31.612  20.633  1.00  0.00     0.187 C 
BRANCH  20  21
HETATM   21  C16 UNL     1      19.772  30.444  20.653  1.00  0.00     0.331 C 
BRANCH  21  22
HETATM   22  N6  UNL     1      20.322  29.237  20.201  1.00  0.00     0.098 N 
HETATM   23  C17 UNL     1      21.723  28.997  20.350  1.00  0.00     0.299 C 
HETATM   24  C18 UNL     1      21.950  27.662  19.586  1.00  0.00     0.198 C 
HETATM   25  O2  UNL     1      21.292  26.618  20.143  1.00  0.00    -0.388 OA
HETATM   26  C19 UNL     1      19.921  26.834  20.106  1.00  0.00     0.198 C 
HETATM   27  C20 UNL     1      19.651  28.124  20.864  1.00  0.00     0.299 C 
ENDBRANCH  21  22
ENDBRANCH  20  21
ENDBRANCH  19  20
ENDBRANCH   9  19
BRANCH   6  28
HETATM   28  N4  UNL     1      19.305  36.544  17.887  1.00  0.00    -0.366 N 
HETATM   29  C9  UNL     1      19.992  37.790  18.259  1.00  0.00     0.124 C 
HETATM   30  C10 UNL     1      18.963  38.670  18.884  1.00  0.00     0.021 C 
HETATM   31  C11 UNL     1      17.633  37.963  18.737  1.00  0.00     0.021 C 
HETATM   32  C12 UNL     1      17.896  36.825  17.766  1.00  0.00     0.124 C 
ENDBRANCH   6  28
TORSDOF 7
ENDMDL
MODEL 5
REMARK VINA RESULT: -7.100014517      1.867      2.887
REMARK  7 active torsions:
REMARK  status: ('A' for Active; 'I' for Inactive)
REMARK    1  A    between atoms: C5_7  and  C6_8 
REMARK    2  A    between atoms: C6_8  and  N2_9 
REMARK    3  A    between atoms: C8_14  and  N4_15 
REMARK    4  A    between atoms: C14_22  and  N5_23 
REMARK    5  A    between atoms: N5_23  and  C15_24 
REMARK    6  A    between atoms: C15_24  and  C16_25 
REMARK    7  A    between atoms: C16_25  and  N6_26 
ROOT
HETATM    1  N2  UNL     1      21.775  32.931  17.832  1.00  0.00    -0.268 N 
HETATM    2  C7  UNL     1      21.838  33.945  16.975  1.00  0.00     0.330 A 
HETATM    3  O1  UNL     1      22.704  33.891  16.032  1.00  0.00    -0.246 OA
HETATM    4  N3  UNL     1      21.024  35.027  17.042  1.00  0.00    -0.293 N 
ATOM      5  H3  UNL     1      21.125  35.774  16.356  1.00  0.00     0.172 HD
HETATM    6  C8  UNL     1      20.079  35.131  18.004  1.00  0.00     0.134 A 
HETATM    7  C13 UNL     1      20.005  34.080  18.892  1.00  0.00     0.136 A 
HETATM    8 CL1  UNL     1      18.758  34.262  20.153  1.00  0.00    -0.075 Cl
HETATM    9  C14 UNL     1      20.825  32.956  18.850  1.00  0.00     0.210 A 
ENDROOT
BRANCH   1  10
HETATM   10  C6  UNL     1      22.771  31.929  18.022  1.00  0.00     0.184 C 
BRANCH  10  11
HETATM   11  C5  UNL     1      24.185  32.267  18.205  1.00  0.00     0.025 A 
HETATM   12  C3  UNL     1      25.284  31.803  17.464  1.00  0.00     0.020 A 
HETATM   13  N1  UNL     1      26.447  32.179  17.833  1.00  0.00    -0.357 N 
HETATM   14  C4  UNL     1      25.087  30.964  16.208  1.00  0.00     0.069 C 
HETATM   15  C2  UNL     1      26.612  32.974  18.873  1.00  0.00     0.047 A 
ATOM     16  H1  UNL     1      27.264  31.858  17.313  1.00  0.00     0.166 HD
HETATM   17  C1  UNL     1      27.909  33.508  19.430  1.00  0.00     0.076 C 
HETATM   18  S1  UNL     1      24.975  33.206  19.371  1.00  0.00    -0.078 SA
ENDBRANCH  10  11
ENDBRANCH   1  10
BRANCH   9  19
HETATM   19  N5  UNL     1      20.624  32.079  19.682  1.00  0.00    -0.400 NA
BRANCH  19  20
HETATM   20  C15 UNL     1      20.394  31.109  20.525  1.00  0.00     0.187 C 
BRANCH  20  21
HETATM   21  C16 UNL     1      21.474  30.049  20.796  1.00  0.00     0.331 C 
BRANCH  21  22
HETATM   22  N6  UNL     1      21.114  28.768  20.357  1.00  0.00     0.098 N 
HETATM   23  C17 UNL     1      19.734  28.404  20.288  1.00  0.00     0.299 C 
HETATM   24  C18 UNL     1      19.771  26.890  19.933  1.00  0.00     0.198 C 
HETATM   25  O2  UNL     1      20.323  26.646  18.722  1.00  0.00    -0.388 OA
HETATM   26  C19 UNL     1      21.647  27.061  18.700  1.00  0.00     0.198 C 
HETATM   27  C20 UNL     1      21.656  28.547  19.020  1.00  0.00     0.299 C 
ENDBRANCH  21  22
ENDBRANCH  20  21
ENDBRANCH  19  20
ENDBRANCH   9  19
BRANCH   6  28
HETATM   28  N4  UNL     1      19.249  36.270  18.043  1.00  0.00    -0.366 N 
HETATM   29  C9  UNL     1      19.561  37.450  18.863  1.00  0.00     0.124 C 
HETATM   30  C10 UNL     1      18.261  38.124  19.145  1.00  0.00     0.021 C 
HETATM   31  C11 UNL     1      17.204  37.389  18.351  1.00  0.00     0.021 C 
HETATM   32  C12 UNL     1      17.978  36.490  17.401  1.00  0.00     0.124 C 
ENDBRANCH   6  28
TORSDOF 7
ENDMDL
