MODEL 1
REMARK VINA RESULT: -8.411570381      0.000      0.000
REMARK  10 active torsions:
REMARK  status: ('A' for Active; 'I' for Inactive)
REMARK    1  A    between atoms: C2_2  and  O1_3 
REMARK    2  A    between atoms: O1_3  and  C3_4 
REMARK    3  A    between atoms: C3_4  and  C4_6 
REMARK    4  A    between atoms: C5_7  and  C6_8 
REMARK    5  A    between atoms: C6_8  and  O3_9 
REMARK    6  A    between atoms: O3_9  and  C7_10 
REMARK    7  A    between atoms: C7_10  and  O4_12 
REMARK    8  A    between atoms: O4_12  and  C8_13 
REMARK    9  A    between atoms: C8_13  and  C9_14 
REMARK   10  A    between atoms: C18_25  and  O6_26 
ROOT
HETATM    1  C4  UNL     1      21.701  28.614  17.863  1.00  0.00     0.147 C 
HETATM    2  C5  UNL     1      21.546  29.748  18.520  1.00  0.00     0.106 C 
HETATM    3  O5  UNL     1      21.598  30.768  17.558  1.00  0.00    -0.322 OA
HETATM    4  C17 UNL     1      21.301  30.212  16.288  1.00  0.00     0.275 C 
HETATM    5  C18 UNL     1      22.378  30.353  15.238  1.00  0.00     0.260 C 
HETATM    6  C19 UNL     1      22.133  28.866  15.102  1.00  0.00     0.260 C 
HETATM    7  O7  UNL     1      22.153  27.992  14.203  1.00  0.00    -0.270 OA
HETATM    8  N1  UNL     1      21.858  28.873  16.477  1.00  0.00    -0.277 N 
ENDROOT
BRANCH   2   9
HETATM    9  C6  UNL     1      21.350  30.060  19.947  1.00  0.00     0.246 C 
BRANCH   9  10
HETATM   10  O3  UNL     1      22.561  30.436  20.584  1.00  0.00    -0.315 OA
BRANCH  10  11
HETATM   11  C7  UNL     1      23.193  31.638  20.406  1.00  0.00     0.254 C 
HETATM   12  S1  UNL     1      24.711  31.671  19.849  1.00  0.00    -0.025 SA
BRANCH  11  13
HETATM   13  O4  UNL     1      22.551  32.813  20.693  1.00  0.00    -0.321 OA
BRANCH  13  14
HETATM   14  C8  UNL     1      22.263  33.820  19.748  1.00  0.00     0.183 C 
BRANCH  14  15
HETATM   15  C9  UNL     1      21.205  34.776  20.214  1.00  0.00     0.012 C 
HETATM   16  C10 UNL     1      21.867  36.160  20.271  1.00  0.00     0.027 C 
HETATM   17  C11 UNL     1      20.865  37.226  20.597  1.00  0.00     0.083 C 
HETATM   18 CL1  UNL     1      20.893  38.563  19.406  1.00  0.00    -0.125 Cl
HETATM   19  C12 UNL     1      19.482  36.720  20.837  1.00  0.00     0.029 C 
HETATM   20  C13 UNL     1      18.974  35.741  19.833  1.00  0.00    -0.046 C 
HETATM   21  C14 UNL     1      17.977  34.760  20.446  1.00  0.00     0.015 C 
HETATM   22  C15 UNL     1      18.214  36.440  18.707  1.00  0.00     0.015 C 
HETATM   23  C16 UNL     1      20.070  34.914  19.221  1.00  0.00     0.015 C 
ENDBRANCH  14  15
ENDBRANCH  13  14
ENDBRANCH  11  13
ENDBRANCH  10  11
ENDBRANCH   9  10
ENDBRANCH   2   9
BRANCH   1  24
HETATM   24  C3  UNL     1      21.716  27.279  18.447  1.00  0.00     0.312 C 
HETATM   25  O2  UNL     1      22.667  26.747  19.043  1.00  0.00    -0.258 OA
BRANCH  24  26
HETATM   26  O1  UNL     1      20.567  26.467  18.359  1.00  0.00    -0.317 OA
BRANCH  26  27
HETATM   27  C2  UNL     1      20.100  25.761  19.491  1.00  0.00     0.175 C 
HETATM   28  C1  UNL     1      18.774  26.416  19.891  1.00  0.00     0.034 C 
ENDBRANCH  26  27
ENDBRANCH  24  26
ENDBRANCH   1  24
BRANCH   5  29
HETATM   29  O6  UNL     1      22.007  31.071  14.112  1.00  0.00    -0.382 OA
ATOM     30  H6  UNL     1      21.534  31.875  14.288  1.00  0.00     0.210 HD
ENDBRANCH   5  29
TORSDOF 10
ENDMDL
MODEL 2
REMARK VINA RESULT: -8.326948532      1.669      2.374
REMARK  10 active torsions:
REMARK  status: ('A' for Active; 'I' for Inactive)
REMARK    1  A    between atoms: C2_2  and  O1_3 
REMARK    2  A    between atoms: O1_3  and  C3_4 
REMARK    3  A    between atoms: C3_4  and  C4_6 
REMARK    4  A    between atoms: C5_7  and  C6_8 
REMARK    5  A    between atoms: C6_8  and  O3_9 
REMARK    6  A    between atoms: O3_9  and  C7_10 
REMARK    7  A    between atoms: C7_10  and  O4_12 
REMARK    8  A    between atoms: O4_12  and  C8_13 
REMARK    9  A    between atoms: C8_13  and  C9_14 
REMARK   10  A    between atoms: C18_25  and  O6_26 
ROOT
HETATM    1  C4  UNL     1      21.998  28.752  18.134  1.00  0.00     0.147 C 
HETATM    2  C5  UNL     1      22.271  29.828  18.849  1.00  0.00     0.106 C 
HETATM    3  O5  UNL     1      22.348  30.893  17.938  1.00  0.00    -0.322 OA
HETATM    4  C17 UNL     1      21.650  30.535  16.757  1.00  0.00     0.275 C 
HETATM    5  C18 UNL     1      22.466  30.523  15.486  1.00  0.00     0.260 C 
HETATM    6  C19 UNL     1      21.847  29.149  15.362  1.00  0.00     0.260 C 
HETATM    7  O7  UNL     1      21.454  28.377  14.454  1.00  0.00    -0.270 OA
HETATM    8  N1  UNL     1      21.897  29.093  16.761  1.00  0.00    -0.277 N 
ENDROOT
BRANCH   2   9
HETATM    9  C6  UNL     1      22.481  30.046  20.291  1.00  0.00     0.246 C 
BRANCH   9  10
HETATM   10  O3  UNL     1      21.424  30.786  20.881  1.00  0.00    -0.315 OA
BRANCH  10  11
HETATM   11  C7  UNL     1      20.092  30.523  20.697  1.00  0.00     0.254 C 
HETATM   12  S1  UNL     1      19.418  29.245  21.422  1.00  0.00    -0.025 SA
BRANCH  11  13
HETATM   13  O4  UNL     1      19.324  31.335  19.904  1.00  0.00    -0.321 OA
BRANCH  13  14
HETATM   14  C8  UNL     1      18.685  32.512  20.346  1.00  0.00     0.183 C 
BRANCH  14  15
HETATM   15  C9  UNL     1      19.173  33.744  19.640  1.00  0.00     0.012 C 
HETATM   16  C10 UNL     1      18.486  34.934  20.324  1.00  0.00     0.027 C 
HETATM   17  C11 UNL     1      19.002  36.237  19.789  1.00  0.00     0.083 C 
HETATM   18 CL1  UNL     1      19.565  37.325  21.094  1.00  0.00    -0.125 Cl
HETATM   19  C12 UNL     1      20.013  36.099  18.701  1.00  0.00     0.029 C 
HETATM   20  C13 UNL     1      21.100  35.111  18.957  1.00  0.00    -0.046 C 
HETATM   21  C14 UNL     1      21.624  34.490  17.664  1.00  0.00     0.015 C 
HETATM   22  C15 UNL     1      22.314  35.773  19.608  1.00  0.00     0.015 C 
HETATM   23  C16 UNL     1      20.657  33.972  19.833  1.00  0.00     0.015 C 
ENDBRANCH  14  15
ENDBRANCH  13  14
ENDBRANCH  11  13
ENDBRANCH  10  11
ENDBRANCH   9  10
ENDBRANCH   2   9
BRANCH   1  24
HETATM   24  C3  UNL     1      21.823  27.401  18.651  1.00  0.00     0.312 C 
HETATM   25  O2  UNL     1      22.694  26.701  19.193  1.00  0.00    -0.258 OA
BRANCH  24  26
HETATM   26  O1  UNL     1      20.563  26.776  18.555  1.00  0.00    -0.317 OA
BRANCH  26  27
HETATM   27  C2  UNL     1      20.158  25.828  19.522  1.00  0.00     0.175 C 
HETATM   28  C1  UNL     1      18.680  26.110  19.811  1.00  0.00     0.034 C 
ENDBRANCH  26  27
ENDBRANCH  24  26
ENDBRANCH   1  24
BRANCH   5  29
HETATM   29  O6  UNL     1      22.034  31.405  14.507  1.00  0.00    -0.382 OA
ATOM     30  H6  UNL     1      21.099  31.392  14.341  1.00  0.00     0.210 HD
ENDBRANCH   5  29
TORSDOF 10
ENDMDL
MODEL 3
REMARK VINA RESULT: -8.293409929      1.740      2.193
REMARK  10 active torsions:
REMARK  status: ('A' for Active; 'I' for Inactive)
REMARK    1  A    between atoms: C2_2  and  O1_3 
REMARK    2  A    between atoms: O1_3  and  C3_4 
REMARK    3  A    between atoms: C3_4  and  C4_6 
REMARK    4  A    between atoms: C5_7  and  C6_8 
REMARK    5  A    between atoms: C6_8  and  O3_9 
REMARK    6  A    between atoms: O3_9  and  C7_10 
REMARK    7  A    between atoms: C7_10  and  O4_12 
REMARK    8  A    between atoms: O4_12  and  C8_13 
REMARK    9  A    between atoms: C8_13  and  C9_14 
REMARK   10  A    between atoms: C18_25  and  O6_26 
ROOT
HETATM    1  C4  UNL     1      22.000  28.757  18.083  1.00  0.00     0.147 C 
HETATM    2  C5  UNL     1      22.275  29.847  18.776  1.00  0.00     0.106 C 
HETATM    3  O5  UNL     1      22.353  30.893  17.842  1.00  0.00    -0.322 OA
HETATM    4  C17 UNL     1      21.654  30.511  16.669  1.00  0.00     0.275 C 
HETATM    5  C18 UNL     1      22.469  30.471  15.399  1.00  0.00     0.260 C 
HETATM    6  C19 UNL     1      21.848  29.096  15.303  1.00  0.00     0.260 C 
HETATM    7  O7  UNL     1      21.454  28.306  14.412  1.00  0.00    -0.270 OA
HETATM    8  N1  UNL     1      21.899  29.069  16.704  1.00  0.00    -0.277 N 
ENDROOT
BRANCH   2   9
HETATM    9  C6  UNL     1      22.486  30.095  20.212  1.00  0.00     0.246 C 
BRANCH   9  10
HETATM   10  O3  UNL     1      21.504  30.962  20.757  1.00  0.00    -0.315 OA
BRANCH  10  11
HETATM   11  C7  UNL     1      20.152  30.762  20.665  1.00  0.00     0.254 C 
HETATM   12  S1  UNL     1      19.452  29.595  21.538  1.00  0.00    -0.025 SA
BRANCH  11  13
HETATM   13  O4  UNL     1      19.386  31.545  19.841  1.00  0.00    -0.321 OA
BRANCH  13  14
HETATM   14  C8  UNL     1      18.732  32.728  20.243  1.00  0.00     0.183 C 
BRANCH  14  15
HETATM   15  C9  UNL     1      19.531  33.965  19.955  1.00  0.00     0.012 C 
HETATM   16  C10 UNL     1      20.281  33.700  18.643  1.00  0.00     0.027 C 
HETATM   17  C11 UNL     1      21.013  34.925  18.181  1.00  0.00     0.083 C 
HETATM   18 CL1  UNL     1      20.608  35.353  16.490  1.00  0.00    -0.125 Cl
HETATM   19  C12 UNL     1      20.896  36.096  19.098  1.00  0.00     0.029 C 
HETATM   20  C13 UNL     1      19.517  36.397  19.580  1.00  0.00    -0.046 C 
HETATM   21  C14 UNL     1      19.525  37.040  20.965  1.00  0.00     0.015 C 
HETATM   22  C15 UNL     1      18.815  37.403  18.670  1.00  0.00     0.015 C 
HETATM   23  C16 UNL     1      18.655  35.170  19.680  1.00  0.00     0.015 C 
ENDBRANCH  14  15
ENDBRANCH  13  14
ENDBRANCH  11  13
ENDBRANCH  10  11
ENDBRANCH   9  10
ENDBRANCH   2   9
BRANCH   1  24
HETATM   24  C3  UNL     1      21.823  27.417  18.629  1.00  0.00     0.312 C 
HETATM   25  O2  UNL     1      22.680  26.746  19.226  1.00  0.00    -0.258 OA
BRANCH  24  26
HETATM   26  O1  UNL     1      20.578  26.770  18.495  1.00  0.00    -0.317 OA
BRANCH  26  27
HETATM   27  C2  UNL     1      20.147  25.838  19.468  1.00  0.00     0.175 C 
HETATM   28  C1  UNL     1      18.731  26.260  19.872  1.00  0.00     0.034 C 
ENDBRANCH  26  27
ENDBRANCH  24  26
ENDBRANCH   1  24
BRANCH   5  29
HETATM   29  O6  UNL     1      22.039  31.333  14.402  1.00  0.00    -0.382 OA
ATOM     30  H6  UNL     1      21.127  31.235  14.153  1.00  0.00     0.210 HD
ENDBRANCH   5  29
TORSDOF 10
ENDMDL
MODEL 4
REMARK VINA RESULT: -8.239442643      1.135      1.434
REMARK  10 active torsions:
REMARK  status: ('A' for Active; 'I' for Inactive)
REMARK    1  A    between atoms: C2_2  and  O1_3 
REMARK    2  A    between atoms: O1_3  and  C3_4 
REMARK    3  A    between atoms: C3_4  and  C4_6 
REMARK    4  A    between atoms: C5_7  and  C6_8 
REMARK    5  A    between atoms: C6_8  and  O3_9 
REMARK    6  A    between atoms: O3_9  and  C7_10 
REMARK    7  A    between atoms: C7_10  and  O4_12 
REMARK    8  A    between atoms: O4_12  and  C8_13 
REMARK    9  A    between atoms: C8_13  and  C9_14 
REMARK   10  A    between atoms: C18_25  and  O6_26 
ROOT
HETATM    1  C4  UNL     1      21.592  28.508  17.963  1.00  0.00     0.147 C 
HETATM    2  C5  UNL     1      21.216  29.576  18.643  1.00  0.00     0.106 C 
HETATM    3  O5  UNL     1      21.238  30.645  17.733  1.00  0.00    -0.322 OA
HETATM    4  C17 UNL     1      21.159  30.125  16.416  1.00  0.00     0.275 C 
HETATM    5  C18 UNL     1      22.316  30.457  15.505  1.00  0.00     0.260 C 
HETATM    6  C19 UNL     1      22.286  28.962  15.284  1.00  0.00     0.260 C 
HETATM    7  O7  UNL     1      22.520  28.146  14.359  1.00  0.00    -0.270 OA
HETATM    8  N1  UNL     1      21.864  28.859  16.617  1.00  0.00    -0.277 N 
ENDROOT
BRANCH   2   9
HETATM    9  C6  UNL     1      20.826  29.783  20.048  1.00  0.00     0.246 C 
BRANCH   9  10
HETATM   10  O3  UNL     1      21.899  30.273  20.836  1.00  0.00    -0.315 OA
BRANCH  10  11
HETATM   11  C7  UNL     1      22.544  31.462  20.620  1.00  0.00     0.254 C 
HETATM   12  S1  UNL     1      24.086  31.462  20.134  1.00  0.00    -0.025 SA
BRANCH  11  13
HETATM   13  O4  UNL     1      21.893  32.653  20.809  1.00  0.00    -0.321 OA
BRANCH  13  14
HETATM   14  C8  UNL     1      20.702  33.026  20.154  1.00  0.00     0.183 C 
BRANCH  14  15
HETATM   15  C9  UNL     1      20.689  34.469  19.739  1.00  0.00     0.012 C 
HETATM   16  C10 UNL     1      21.072  34.495  18.253  1.00  0.00     0.027 C 
HETATM   17  C11 UNL     1      20.961  35.880  17.690  1.00  0.00     0.083 C 
HETATM   18 CL1  UNL     1      19.944  35.928  16.217  1.00  0.00    -0.125 Cl
HETATM   19  C12 UNL     1      20.557  36.918  18.682  1.00  0.00     0.029 C 
HETATM   20  C13 UNL     1      19.402  36.558  19.554  1.00  0.00    -0.046 C 
HETATM   21  C14 UNL     1      19.487  37.231  20.922  1.00  0.00     0.015 C 
HETATM   22  C15 UNL     1      18.079  37.029  18.952  1.00  0.00     0.015 C 
HETATM   23  C16 UNL     1      19.305  35.079  19.808  1.00  0.00     0.015 C 
ENDBRANCH  14  15
ENDBRANCH  13  14
ENDBRANCH  11  13
ENDBRANCH  10  11
ENDBRANCH   9  10
ENDBRANCH   2   9
BRANCH   1  24
HETATM   24  C3  UNL     1      21.719  27.157  18.493  1.00  0.00     0.312 C 
HETATM   25  O2  UNL     1      22.714  26.680  19.064  1.00  0.00    -0.258 OA
BRANCH  24  26
HETATM   26  O1  UNL     1      20.640  26.258  18.375  1.00  0.00    -0.317 OA
BRANCH  26  27
HETATM   27  C2  UNL     1      20.083  25.652  19.525  1.00  0.00     0.175 C 
HETATM   28  C1  UNL     1      18.807  26.437  19.851  1.00  0.00     0.034 C 
ENDBRANCH  26  27
ENDBRANCH  24  26
ENDBRANCH   1  24
BRANCH   5  29
HETATM   29  O6  UNL     1      21.979  31.182  14.373  1.00  0.00    -0.382 OA
ATOM     30  H6  UNL     1      21.853  30.662  13.587  1.00  0.00     0.210 HD
ENDBRANCH   5  29
TORSDOF 10
ENDMDL
MODEL 5
REMARK VINA RESULT: -8.227356445      1.507      2.271
REMARK  10 active torsions:
REMARK  status: ('A' for Active; 'I' for Inactive)
REMARK    1  A    between atoms: C2_2  and  O1_3 
REMARK    2  A    between atoms: O1_3  and  C3_4 
REMARK    3  A    between atoms: C3_4  and  C4_6 
REMARK    4  A    between atoms: C5_7  and  C6_8 
REMARK    5  A    between atoms: C6_8  and  O3_9 
REMARK    6  A    between atoms: O3_9  and  C7_10 
REMARK    7  A    between atoms: C7_10  and  O4_12 
REMARK    8  A    between atoms: O4_12  and  C8_13 
REMARK    9  A    between atoms: C8_13  and  C9_14 
REMARK   10  A    between atoms: C18_25  and  O6_26 
ROOT
HETATM    1  C4  UNL     1      21.677  28.586  17.775  1.00  0.00     0.147 C 
HETATM    2  C5  UNL     1      21.474  29.742  18.379  1.00  0.00     0.106 C 
HETATM    3  O5  UNL     1      21.540  30.724  17.377  1.00  0.00    -0.322 OA
HETATM    4  C17 UNL     1      21.302  30.110  16.121  1.00  0.00     0.275 C 
HETATM    5  C18 UNL     1      22.414  30.232  15.107  1.00  0.00     0.260 C 
HETATM    6  C19 UNL     1      22.205  28.736  15.024  1.00  0.00     0.260 C 
HETATM    7  O7  UNL     1      22.277  27.827  14.163  1.00  0.00    -0.270 OA
HETATM    8  N1  UNL     1      21.880  28.792  16.386  1.00  0.00    -0.277 N 
ENDROOT
BRANCH   2   9
HETATM    9  C6  UNL     1      21.220  30.107  19.783  1.00  0.00     0.246 C 
BRANCH   9  10
HETATM   10  O3  UNL     1      20.163  31.045  19.911  1.00  0.00    -0.315 OA
BRANCH  10  11
HETATM   11  C7  UNL     1      20.319  32.405  19.863  1.00  0.00     0.254 C 
HETATM   12  S1  UNL     1      21.687  33.075  20.403  1.00  0.00    -0.025 SA
BRANCH  11  13
HETATM   13  O4  UNL     1      19.326  33.203  19.358  1.00  0.00    -0.321 OA
BRANCH  13  14
HETATM   14  C8  UNL     1      18.674  34.222  20.083  1.00  0.00     0.183 C 
BRANCH  14  15
HETATM   15  C9  UNL     1      19.201  35.592  19.771  1.00  0.00     0.012 C 
HETATM   16  C10 UNL     1      18.221  36.215  18.767  1.00  0.00     0.027 C 
HETATM   17  C11 UNL     1      18.574  37.644  18.482  1.00  0.00     0.083 C 
HETATM   18 CL1  UNL     1      17.181  38.743  18.729  1.00  0.00    -0.125 Cl
HETATM   19  C12 UNL     1      19.799  38.129  19.182  1.00  0.00     0.029 C 
HETATM   20  C13 UNL     1      19.883  37.794  20.633  1.00  0.00    -0.046 C 
HETATM   21  C14 UNL     1      21.329  37.637  21.100  1.00  0.00     0.015 C 
HETATM   22  C15 UNL     1      19.296  38.907  21.498  1.00  0.00     0.015 C 
HETATM   23  C16 UNL     1      19.179  36.510  20.975  1.00  0.00     0.015 C 
ENDBRANCH  14  15
ENDBRANCH  13  14
ENDBRANCH  11  13
ENDBRANCH  10  11
ENDBRANCH   9  10
ENDBRANCH   2   9
BRANCH   1  24
HETATM   24  C3  UNL     1      21.699  27.277  18.414  1.00  0.00     0.312 C 
HETATM   25  O2  UNL     1      22.651  26.776  19.034  1.00  0.00    -0.258 OA
BRANCH  24  26
HETATM   26  O1  UNL     1      20.556  26.455  18.356  1.00  0.00    -0.317 OA
BRANCH  26  27
HETATM   27  C2  UNL     1      20.070  25.819  19.522  1.00  0.00     0.175 C 
HETATM   28  C1  UNL     1      18.794  26.568  19.921  1.00  0.00     0.034 C 
ENDBRANCH  26  27
ENDBRANCH  24  26
ENDBRANCH   1  24
BRANCH   5  29
HETATM   29  O6  UNL     1      22.069  30.895  13.940  1.00  0.00    -0.382 OA
ATOM     30  H6  UNL     1      22.783  31.360  13.518  1.00  0.00     0.210 HD
ENDBRANCH   5  29
TORSDOF 10
ENDMDL
