MODEL 1
REMARK VINA RESULT: -7.842830958      0.000      0.000
REMARK  6 active torsions:
REMARK  status: ('A' for Active; 'I' for Inactive)
REMARK    1  A    between atoms: C2_2  and  O1_3 
REMARK    2  A    between atoms: O1_3  and  C3_4 
REMARK       I    between atoms: C3_4  and  N1_6 
REMARK    3  A    between atoms: N2_10  and  C7_11 
REMARK    4  A    between atoms: C8_14  and  C9_15 
REMARK    5  A    between atoms: C15_23  and  S1_24 
REMARK    6  A    between atoms: S1_24  and  N4_27 
REMARK       I    between atoms: N4_27  and  C17_29 
ROOT
HETATM    1  C3  UNL     1      19.260  34.522  19.450  1.00  0.00     0.364 C 
HETATM    2  O2  UNL     1      18.453  34.362  20.400  1.00  0.00    -0.238 OA
HETATM    3  N1  UNL     1      20.323  33.586  19.318  1.00  0.00    -0.300 N 
HETATM    4  C4  UNL     1      21.373  33.577  18.288  1.00  0.00     0.110 C 
HETATM    5  C5  UNL     1      21.250  32.399  17.385  1.00  0.00     0.047 C 
HETATM    6  C6  UNL     1      20.381  31.300  17.934  1.00  0.00     0.131 C 
HETATM    7  N2  UNL     1      20.321  31.263  19.352  1.00  0.00    -0.325 N 
HETATM    8  C13 UNL     1      20.655  32.432  20.130  1.00  0.00     0.196 C 
HETATM    9  C14 UNL     1      22.163  32.479  20.191  1.00  0.00     0.068 C 
HETATM   10  C15 UNL     1      22.614  33.519  19.190  1.00  0.00     0.113 C 
ENDROOT
BRANCH   7  11
HETATM   11  C7  UNL     1      19.936  30.082  20.023  1.00  0.00     0.229 A 
HETATM   12  N3  UNL     1      19.861  28.823  19.528  1.00  0.00    -0.322 N 
HETATM   13  C8  UNL     1      19.453  27.972  20.483  1.00  0.00     0.062 A 
ATOM     14  H3  UNL     1      20.084  28.560  18.568  1.00  0.00     0.169 HD
HETATM   15  C12 UNL     1      19.271  28.744  21.603  1.00  0.00     0.171 A 
HETATM   16 CL1  UNL     1      18.743  28.248  23.203  1.00  0.00    -0.054 Cl
HETATM   17  O3  UNL     1      19.563  29.960  21.291  1.00  0.00    -0.265 OA
BRANCH  13  18
HETATM   18  C9  UNL     1      19.220  26.508  20.440  1.00  0.00     0.039 A 
HETATM   19  C10 UNL     1      20.125  25.681  19.635  1.00  0.00     0.011 A 
HETATM   20  C11 UNL     1      20.147  25.606  21.171  1.00  0.00     0.011 A 
ENDBRANCH  13  18
ENDBRANCH   7  11
BRANCH   1  21
HETATM   21  O1  UNL     1      19.083  35.576  18.593  1.00  0.00    -0.304 OA
BRANCH  21  22
HETATM   22  C2  UNL     1      18.471  36.794  18.962  1.00  0.00     0.176 C 
HETATM   23  C1  UNL     1      17.213  37.081  18.178  1.00  0.00     0.034 C 
ENDBRANCH  21  22
ENDBRANCH   1  21
BRANCH  10  24
HETATM   24  S1  UNL     1      24.286  33.405  18.374  1.00  0.00     0.029 S 
HETATM   25  C16 UNL     1      25.140  32.752  19.920  1.00  0.00     0.137 C 
HETATM   26  O4  UNL     1      25.475  34.582  18.124  1.00  0.00    -0.249 OA
BRANCH  24  27
HETATM   27  N4  UNL     1      24.637  31.553  17.573  1.00  0.00    -0.287 N 
HETATM   28  C17 UNL     1      24.349  31.389  16.230  1.00  0.00     0.224 C 
HETATM   29  C18 UNL     1      24.552  30.099  15.508  1.00  0.00     0.118 C 
HETATM   30  O5  UNL     1      23.896  32.362  15.579  1.00  0.00    -0.273 OA
ATOM     31  H4  UNL     1      25.007  30.788  18.138  1.00  0.00     0.178 HD
ENDBRANCH  24  27
ENDBRANCH  10  24
TORSDOF 6
ENDMDL
MODEL 2
REMARK VINA RESULT: -7.836834741      3.424      6.404
REMARK  6 active torsions:
REMARK  status: ('A' for Active; 'I' for Inactive)
REMARK    1  A    between atoms: C2_2  and  O1_3 
REMARK    2  A    between atoms: O1_3  and  C3_4 
REMARK       I    between atoms: C3_4  and  N1_6 
REMARK    3  A    between atoms: N2_10  and  C7_11 
REMARK    4  A    between atoms: C8_14  and  C9_15 
REMARK    5  A    between atoms: C15_23  and  S1_24 
REMARK    6  A    between atoms: S1_24  and  N4_27 
REMARK       I    between atoms: N4_27  and  C17_29 
ROOT
HETATM    1  C3  UNL     1      20.207  30.124  20.749  1.00  0.00     0.364 C 
HETATM    2  O2  UNL     1      19.829  30.405  21.913  1.00  0.00    -0.238 OA
HETATM    3  N1  UNL     1      20.995  31.086  20.057  1.00  0.00    -0.300 N 
HETATM    4  C4  UNL     1      21.546  30.968  18.699  1.00  0.00     0.110 C 
HETATM    5  C5  UNL     1      23.034  30.894  18.712  1.00  0.00     0.047 C 
HETATM    6  C6  UNL     1      23.654  31.348  20.005  1.00  0.00     0.131 C 
HETATM    7  N2  UNL     1      22.869  32.284  20.727  1.00  0.00    -0.325 N 
HETATM    8  C13 UNL     1      21.451  32.395  20.481  1.00  0.00     0.196 C 
HETATM    9  C14 UNL     1      21.304  33.229  19.231  1.00  0.00     0.068 C 
HETATM   10  C15 UNL     1      21.013  32.276  18.094  1.00  0.00     0.113 C 
ENDROOT
BRANCH   7  11
HETATM   11  C7  UNL     1      23.463  33.125  21.695  1.00  0.00     0.229 A 
HETATM   12  N3  UNL     1      23.426  34.477  21.766  1.00  0.00    -0.322 N 
HETATM   13  C8  UNL     1      24.115  34.905  22.837  1.00  0.00     0.062 A 
ATOM     14  H3  UNL     1      22.943  35.083  21.102  1.00  0.00     0.169 HD
HETATM   15  C12 UNL     1      24.590  33.767  23.439  1.00  0.00     0.171 A 
HETATM   16 CL1  UNL     1      25.570  33.622  24.890  1.00  0.00    -0.054 Cl
HETATM   17  O3  UNL     1      24.188  32.758  22.744  1.00  0.00    -0.265 OA
BRANCH  13  18
HETATM   18  C9  UNL     1      24.366  36.275  23.342  1.00  0.00     0.039 A 
HETATM   19  C10 UNL     1      23.312  37.283  23.178  1.00  0.00     0.011 A 
HETATM   20  C11 UNL     1      23.666  36.733  24.570  1.00  0.00     0.011 A 
ENDBRANCH  13  18
ENDBRANCH   7  11
BRANCH   1  21
HETATM   21  O1  UNL     1      19.851  28.919  20.202  1.00  0.00    -0.304 OA
BRANCH  21  22
HETATM   22  C2  UNL     1      19.472  27.793  20.964  1.00  0.00     0.176 C 
HETATM   23  C1  UNL     1      19.064  26.616  20.110  1.00  0.00     0.034 C 
ENDBRANCH  21  22
ENDBRANCH   1  21
BRANCH  10  24
HETATM   24  S1  UNL     1      21.497  32.693  16.343  1.00  0.00     0.029 S 
HETATM   25  C16 UNL     1      23.112  33.519  16.849  1.00  0.00     0.137 C 
HETATM   26  O4  UNL     1      21.054  33.993  15.356  1.00  0.00    -0.249 OA
BRANCH  24  27
HETATM   27  N4  UNL     1      22.671  31.246  15.494  1.00  0.00    -0.287 N 
HETATM   28  C17 UNL     1      22.031  30.098  15.060  1.00  0.00     0.224 C 
HETATM   29  C18 UNL     1      22.753  28.958  14.423  1.00  0.00     0.118 C 
HETATM   30  O5  UNL     1      20.788  30.001  15.205  1.00  0.00    -0.273 OA
ATOM     31  H4  UNL     1      23.679  31.366  15.395  1.00  0.00     0.178 HD
ENDBRANCH  24  27
ENDBRANCH  10  24
TORSDOF 6
ENDMDL
MODEL 3
REMARK VINA RESULT: -7.662826791      2.447      3.387
REMARK  6 active torsions:
REMARK  status: ('A' for Active; 'I' for Inactive)
REMARK    1  A    between atoms: C2_2  and  O1_3 
REMARK    2  A    between atoms: O1_3  and  C3_4 
REMARK       I    between atoms: C3_4  and  N1_6 
REMARK    3  A    between atoms: N2_10  and  C7_11 
REMARK    4  A    between atoms: C8_14  and  C9_15 
REMARK    5  A    between atoms: C15_23  and  S1_24 
REMARK    6  A    between atoms: S1_24  and  N4_27 
REMARK       I    between atoms: N4_27  and  C17_29 
ROOT
HETATM    1  C3  UNL     1      23.623  33.588  22.089  1.00  0.00     0.364 C 
HETATM    2  O2  UNL     1      23.706  32.914  23.146  1.00  0.00    -0.238 OA
HETATM    3  N1  UNL     1      23.240  32.909  20.899  1.00  0.00    -0.300 N 
HETATM    4  C4  UNL     1      23.077  33.495  19.559  1.00  0.00     0.110 C 
HETATM    5  C5  UNL     1      21.655  33.468  19.115  1.00  0.00     0.047 C 
HETATM    6  C6  UNL     1      20.789  32.524  19.905  1.00  0.00     0.131 C 
HETATM    7  N2  UNL     1      21.494  31.435  20.481  1.00  0.00    -0.325 N 
HETATM    8  C13 UNL     1      22.920  31.512  20.684  1.00  0.00     0.196 C 
HETATM    9  C14 UNL     1      23.554  31.218  19.345  1.00  0.00     0.068 C 
HETATM   10  C15 UNL     1      23.978  32.545  18.756  1.00  0.00     0.113 C 
ENDROOT
BRANCH   7  11
HETATM   11  C7  UNL     1      20.811  30.259  20.860  1.00  0.00     0.229 A 
HETATM   12  N3  UNL     1      20.916  29.019  20.325  1.00  0.00    -0.322 N 
HETATM   13  C8  UNL     1      20.100  28.166  20.964  1.00  0.00     0.062 A 
ATOM     14  H3  UNL     1      21.527  28.769  19.547  1.00  0.00     0.169 HD
HETATM   15  C12 UNL     1      19.473  28.917  21.927  1.00  0.00     0.171 A 
HETATM   16 CL1  UNL     1      18.279  28.409  23.111  1.00  0.00    -0.054 Cl
HETATM   17  O3  UNL     1      19.916  30.124  21.831  1.00  0.00    -0.265 OA
BRANCH  13  18
HETATM   18  C9  UNL     1      19.855  26.719  20.755  1.00  0.00     0.039 A 
HETATM   19  C10 UNL     1      18.809  26.318  19.808  1.00  0.00     0.011 A 
HETATM   20  C11 UNL     1      20.295  26.087  19.484  1.00  0.00     0.011 A 
ENDBRANCH  13  18
ENDBRANCH   7  11
BRANCH   1  21
HETATM   21  O1  UNL     1      23.900  34.929  22.127  1.00  0.00    -0.304 OA
BRANCH  21  22
HETATM   22  C2  UNL     1      24.735  35.531  23.094  1.00  0.00     0.176 C 
HETATM   23  C1  UNL     1      23.960  36.225  24.189  1.00  0.00     0.034 C 
ENDBRANCH  21  22
ENDBRANCH   1  21
BRANCH  10  24
HETATM   24  S1  UNL     1      24.081  32.787  16.911  1.00  0.00     0.029 S 
HETATM   25  C16 UNL     1      25.893  32.281  16.815  1.00  0.00     0.137 C 
HETATM   26  O4  UNL     1      24.347  34.184  15.995  1.00  0.00    -0.249 OA
BRANCH  24  27
HETATM   27  N4  UNL     1      23.694  31.063  15.875  1.00  0.00    -0.287 N 
HETATM   28  C17 UNL     1      22.564  31.055  15.078  1.00  0.00     0.224 C 
HETATM   29  C18 UNL     1      22.152  29.872  14.267  1.00  0.00     0.118 C 
HETATM   30  O5  UNL     1      21.844  32.082  15.028  1.00  0.00    -0.273 OA
ATOM     31  H4  UNL     1      24.306  30.250  15.944  1.00  0.00     0.178 HD
ENDBRANCH  24  27
ENDBRANCH  10  24
TORSDOF 6
ENDMDL
MODEL 4
REMARK VINA RESULT: -7.637463078      2.808      3.682
REMARK  6 active torsions:
REMARK  status: ('A' for Active; 'I' for Inactive)
REMARK    1  A    between atoms: C2_2  and  O1_3 
REMARK    2  A    between atoms: O1_3  and  C3_4 
REMARK       I    between atoms: C3_4  and  N1_6 
REMARK    3  A    between atoms: N2_10  and  C7_11 
REMARK    4  A    between atoms: C8_14  and  C9_15 
REMARK    5  A    between atoms: C15_23  and  S1_24 
REMARK    6  A    between atoms: S1_24  and  N4_27 
REMARK       I    between atoms: N4_27  and  C17_29 
ROOT
HETATM    1  C3  UNL     1      21.520  34.309  16.374  1.00  0.00     0.364 C 
HETATM    2  O2  UNL     1      20.435  34.406  16.999  1.00  0.00    -0.238 OA
HETATM    3  N1  UNL     1      22.565  33.552  16.972  1.00  0.00    -0.300 N 
HETATM    4  C4  UNL     1      23.907  33.304  16.422  1.00  0.00     0.110 C 
HETATM    5  C5  UNL     1      24.106  31.868  16.081  1.00  0.00     0.047 C 
HETATM    6  C6  UNL     1      23.103  30.946  16.719  1.00  0.00     0.131 C 
HETATM    7  N2  UNL     1      22.556  31.437  17.933  1.00  0.00    -0.325 N 
HETATM    8  C13 UNL     1      22.598  32.847  18.238  1.00  0.00     0.196 C 
HETATM    9  C14 UNL     1      23.991  33.126  18.749  1.00  0.00     0.068 C 
HETATM   10  C15 UNL     1      24.759  33.765  17.614  1.00  0.00     0.113 C 
ENDROOT
BRANCH   7  11
HETATM   11  C7  UNL     1      21.964  30.553  18.862  1.00  0.00     0.229 A 
HETATM   12  N3  UNL     1      22.023  29.200  18.887  1.00  0.00    -0.322 N 
HETATM   13  C8  UNL     1      21.329  28.723  19.932  1.00  0.00     0.062 A 
ATOM     14  H3  UNL     1      22.523  28.626  18.208  1.00  0.00     0.169 HD
HETATM   15  C12 UNL     1      20.827  29.831  20.569  1.00  0.00     0.171 A 
HETATM   16 CL1  UNL     1      19.828  29.908  22.012  1.00  0.00    -0.054 Cl
HETATM   17  O3  UNL     1      21.221  30.870  19.915  1.00  0.00    -0.265 OA
BRANCH  13  18
HETATM   18  C9  UNL     1      21.095  27.331  20.386  1.00  0.00     0.039 A 
HETATM   19  C10 UNL     1      19.715  26.831  20.416  1.00  0.00     0.011 A 
HETATM   20  C11 UNL     1      20.724  26.297  19.385  1.00  0.00     0.011 A 
ENDBRANCH  13  18
ENDBRANCH   7  11
BRANCH   1  21
HETATM   21  O1  UNL     1      21.649  34.928  15.158  1.00  0.00    -0.304 OA
BRANCH  21  22
HETATM   22  C2  UNL     1      20.621  35.679  14.547  1.00  0.00     0.176 C 
HETATM   23  C1  UNL     1      20.930  37.157  14.487  1.00  0.00     0.034 C 
ENDBRANCH  21  22
ENDBRANCH   1  21
BRANCH  10  24
HETATM   24  S1  UNL     1      26.610  33.588  17.487  1.00  0.00     0.029 S 
HETATM   25  C16 UNL     1      26.907  35.441  17.336  1.00  0.00     0.137 C 
HETATM   26  O4  UNL     1      27.597  33.247  16.156  1.00  0.00    -0.249 OA
BRANCH  24  27
HETATM   27  N4  UNL     1      27.534  33.734  19.309  1.00  0.00    -0.287 N 
HETATM   28  C17 UNL     1      28.825  33.245  19.395  1.00  0.00     0.224 C 
HETATM   29  C18 UNL     1      29.624  33.280  20.655  1.00  0.00     0.118 C 
HETATM   30  O5  UNL     1      29.357  32.744  18.374  1.00  0.00    -0.273 OA
ATOM     31  H4  UNL     1      27.064  34.149  20.114  1.00  0.00     0.178 HD
ENDBRANCH  24  27
ENDBRANCH  10  24
TORSDOF 6
ENDMDL
MODEL 5
REMARK VINA RESULT: -7.633455326      2.055      5.270
REMARK  6 active torsions:
REMARK  status: ('A' for Active; 'I' for Inactive)
REMARK    1  A    between atoms: C2_2  and  O1_3 
REMARK    2  A    between atoms: O1_3  and  C3_4 
REMARK       I    between atoms: C3_4  and  N1_6 
REMARK    3  A    between atoms: N2_10  and  C7_11 
REMARK    4  A    between atoms: C8_14  and  C9_15 
REMARK    5  A    between atoms: C15_23  and  S1_24 
REMARK    6  A    between atoms: S1_24  and  N4_27 
REMARK       I    between atoms: N4_27  and  C17_29 
ROOT
HETATM    1  C3  UNL     1      25.037  31.706  16.767  1.00  0.00     0.364 C 
HETATM    2  O2  UNL     1      25.057  30.512  16.379  1.00  0.00    -0.238 OA
HETATM    3  N1  UNL     1      23.826  32.204  17.324  1.00  0.00    -0.300 N 
HETATM    4  C4  UNL     1      23.580  33.558  17.841  1.00  0.00     0.110 C 
HETATM    5  C5  UNL     1      23.354  33.553  19.314  1.00  0.00     0.047 C 
HETATM    6  C6  UNL     1      23.028  32.195  19.874  1.00  0.00     0.131 C 
HETATM    7  N2  UNL     1      22.418  31.315  18.943  1.00  0.00    -0.325 N 
HETATM    8  C13 UNL     1      22.552  31.542  17.524  1.00  0.00     0.196 C 
HETATM    9  C14 UNL     1      21.551  32.616  17.172  1.00  0.00     0.068 C 
HETATM   10  C15 UNL     1      22.319  33.911  17.039  1.00  0.00     0.113 C 
ENDROOT
BRANCH   7  11
HETATM   11  C7  UNL     1      21.667  30.206  19.390  1.00  0.00     0.229 A 
HETATM   12  N3  UNL     1      21.611  28.961  18.858  1.00  0.00    -0.322 N 
HETATM   13  C8  UNL     1      20.780  28.187  19.573  1.00  0.00     0.062 A 
ATOM     14  H3  UNL     1      22.128  28.657  18.032  1.00  0.00     0.169 HD
HETATM   15  C12 UNL     1      20.310  28.992  20.580  1.00  0.00     0.171 A 
HETATM   16 CL1  UNL     1      19.183  28.595  21.867  1.00  0.00    -0.054 Cl
HETATM   17  O3  UNL     1      20.851  30.154  20.436  1.00  0.00    -0.265 OA
BRANCH  13  18
HETATM   18  C9  UNL     1      20.388  26.767  19.398  1.00  0.00     0.039 A 
HETATM   19  C10 UNL     1      20.220  25.938  20.597  1.00  0.00     0.011 A 
HETATM   20  C11 UNL     1      19.006  26.350  19.748  1.00  0.00     0.011 A 
ENDBRANCH  13  18
ENDBRANCH   7  11
BRANCH   1  21
HETATM   21  O1  UNL     1      26.168  32.469  16.639  1.00  0.00    -0.304 OA
BRANCH  21  22
HETATM   22  C2  UNL     1      27.050  32.750  17.706  1.00  0.00     0.176 C 
HETATM   23  C1  UNL     1      28.277  33.515  17.269  1.00  0.00     0.034 C 
ENDBRANCH  21  22
ENDBRANCH   1  21
BRANCH  10  24
HETATM   24  S1  UNL     1      21.500  35.552  17.371  1.00  0.00     0.029 S 
HETATM   25  C16 UNL     1      20.587  35.576  15.724  1.00  0.00     0.137 C 
HETATM   26  O4  UNL     1      22.069  37.131  17.163  1.00  0.00    -0.249 OA
BRANCH  24  27
HETATM   27  N4  UNL     1      19.652  35.342  18.229  1.00  0.00    -0.287 N 
HETATM   28  C17 UNL     1      19.616  35.196  19.604  1.00  0.00     0.224 C 
HETATM   29  C18 UNL     1      18.345  35.032  20.369  1.00  0.00     0.118 C 
HETATM   30  O5  UNL     1      20.694  35.200  20.247  1.00  0.00    -0.273 OA
ATOM     31  H4  UNL     1      18.800  35.344  17.668  1.00  0.00     0.178 HD
ENDBRANCH  24  27
ENDBRANCH  10  24
TORSDOF 6
ENDMDL
