MODEL 1
REMARK VINA RESULT: -7.753343818      0.000      0.000
REMARK  8 active torsions:
REMARK  status: ('A' for Active; 'I' for Inactive)
REMARK    1  A    between atoms: C8_9  and  C9_11 
REMARK    2  A    between atoms: C9_11  and  C11_14 
REMARK       I    between atoms: C11_14  and  N2_16 
REMARK    3  A    between atoms: C13_18  and  C14_19 
REMARK    4  A    between atoms: C14_19  and  N3_20 
REMARK    5  A    between atoms: N4_23  and  C17_24 
REMARK    6  A    between atoms: C17_24  and  C18_25 
REMARK    7  A    between atoms: C18_25  and  C19_26 
REMARK    8  A    between atoms: C19_26  and  O3_27 
ROOT
HETATM    1  C9  UNL     1      29.227  34.534  18.247  1.00  0.00     0.229 C 
HETATM    2  C10 UNL     1      29.332  35.817  17.489  1.00  0.00     0.077 C 
HETATM    3  N1  UNL     1      29.424  36.806  16.901  1.00  0.00    -0.196 NA
ENDROOT
BRANCH   1   4
HETATM    4  C8  UNL     1      30.571  33.962  18.303  1.00  0.00     0.158 C 
HETATM    5  C5  UNL     1      30.876  32.756  19.132  1.00  0.00     0.035 C 
HETATM    6  C4  UNL     1      30.323  32.754  20.513  1.00  0.00     0.045 C 
HETATM    7  C6  UNL     1      32.292  33.356  19.177  1.00  0.00     0.043 C 
HETATM    8  C2  UNL     1      30.764  33.955  21.318  1.00  0.00     0.055 C 
HETATM    9  C1  UNL     1      31.868  33.647  22.301  1.00  0.00     0.045 C 
HETATM   10  C3  UNL     1      29.580  34.381  22.201  1.00  0.00     0.045 C 
HETATM   11  O1  UNL     1      31.034  34.996  20.461  1.00  0.00    -0.372 OA
HETATM   12  C7  UNL     1      31.559  34.670  19.258  1.00  0.00     0.165 C 
HETATM   13  F1  UNL     1      31.258  33.873  17.083  1.00  0.00    -0.238 F 
ENDBRANCH   1   4
BRANCH   1  14
HETATM   14  C11 UNL     1      28.199  33.741  17.574  1.00  0.00     0.264 C 
HETATM   15  O2  UNL     1      28.337  33.546  16.312  1.00  0.00    -0.270 OA
HETATM   16  N2  UNL     1      27.069  33.168  18.179  1.00  0.00    -0.218 N 
HETATM   17  C12 UNL     1      26.129  32.444  17.556  1.00  0.00     0.149 A 
HETATM   18  N6  UNL     1      26.699  33.208  19.435  1.00  0.00    -0.234 N 
HETATM   19  C13 UNL     1      25.176  32.041  18.468  1.00  0.00     0.073 A 
HETATM   20  N5  UNL     1      25.574  32.546  19.646  1.00  0.00    -0.287 N 
ATOM     21  H5  UNL     1      25.095  32.439  20.541  1.00  0.00     0.188 HD
ATOM     22  H6  UNL     1      27.220  33.694  20.167  1.00  0.00     0.209 HD
BRANCH  19  23
HETATM   23  C14 UNL     1      23.968  31.224  18.231  1.00  0.00     0.332 C 
BRANCH  23  24
HETATM   24  N3  UNL     1      22.832  31.662  18.969  1.00  0.00     0.100 N 
HETATM   25  C15 UNL     1      21.621  31.464  18.216  1.00  0.00     0.317 C 
HETATM   26  C16 UNL     1      21.345  29.980  18.085  1.00  0.00     0.093 C 
HETATM   27  N4  UNL     1      21.291  29.295  19.313  1.00  0.00    -0.370 N 
HETATM   28  C22 UNL     1      22.227  29.672  20.305  1.00  0.00     0.157 C 
HETATM   29  C23 UNL     1      22.664  31.092  20.269  1.00  0.00     0.293 C 
BRANCH  27  30
HETATM   30  C17 UNL     1      20.084  28.704  19.727  1.00  0.00     0.075 C 
BRANCH  30  31
HETATM   31  C18 UNL     1      20.107  27.216  19.943  1.00  0.00     0.013 A 
HETATM   32  C20 UNL     1      18.792  26.503  20.134  1.00  0.00     0.018 A 
HETATM   33  C21 UNL     1      19.883  26.525  21.200  1.00  0.00     0.018 A 
BRANCH  31  34
HETATM   34  C19 UNL     1      21.023  26.497  18.932  1.00  0.00     0.178 C 
BRANCH  34  35
HETATM   35  O3  UNL     1      20.487  25.268  18.603  1.00  0.00    -0.400 OA
ATOM     36  H3  UNL     1      20.996  24.574  19.006  1.00  0.00     0.209 HD
ENDBRANCH  34  35
ENDBRANCH  31  34
ENDBRANCH  30  31
ENDBRANCH  27  30
ENDBRANCH  23  24
ENDBRANCH  19  23
ENDBRANCH   1  14
TORSDOF 8
ENDMDL
MODEL 2
REMARK VINA RESULT: -7.533180519      2.947      9.998
REMARK  8 active torsions:
REMARK  status: ('A' for Active; 'I' for Inactive)
REMARK    1  A    between atoms: C8_9  and  C9_11 
REMARK    2  A    between atoms: C9_11  and  C11_14 
REMARK       I    between atoms: C11_14  and  N2_16 
REMARK    3  A    between atoms: C13_18  and  C14_19 
REMARK    4  A    between atoms: C14_19  and  N3_20 
REMARK    5  A    between atoms: N4_23  and  C17_24 
REMARK    6  A    between atoms: C17_24  and  C18_25 
REMARK    7  A    between atoms: C18_25  and  C19_26 
REMARK    8  A    between atoms: C19_26  and  O3_27 
ROOT
HETATM    1  C9  UNL     1      21.710  31.567  18.094  1.00  0.00     0.229 C 
HETATM    2  C10 UNL     1      21.080  31.154  16.805  1.00  0.00     0.077 C 
HETATM    3  N1  UNL     1      20.582  30.839  15.812  1.00  0.00    -0.196 NA
ENDROOT
BRANCH   1   4
HETATM    4  C8  UNL     1      20.632  32.026  18.967  1.00  0.00     0.158 C 
HETATM    5  C5  UNL     1      20.738  31.942  20.456  1.00  0.00     0.035 C 
HETATM    6  C4  UNL     1      21.252  30.658  21.004  1.00  0.00     0.045 C 
HETATM    7  C6  UNL     1      19.203  31.862  20.391  1.00  0.00     0.043 C 
HETATM    8  C2  UNL     1      20.433  29.467  20.562  1.00  0.00     0.055 C 
HETATM    9  C1  UNL     1      19.489  28.960  21.625  1.00  0.00     0.045 C 
HETATM   10  C3  UNL     1      21.405  28.298  20.331  1.00  0.00     0.045 C 
HETATM   11  O1  UNL     1      19.839  29.754  19.356  1.00  0.00    -0.372 OA
HETATM   12  C7  UNL     1      19.459  31.036  19.157  1.00  0.00     0.165 C 
HETATM   13  F1  UNL     1      20.019  33.237  18.613  1.00  0.00    -0.238 F 
ENDBRANCH   1   4
BRANCH   1  14
HETATM   14  C11 UNL     1      22.744  32.543  17.753  1.00  0.00     0.264 C 
HETATM   15  O2  UNL     1      22.361  33.740  17.490  1.00  0.00    -0.270 OA
HETATM   16  N2  UNL     1      24.124  32.296  17.686  1.00  0.00    -0.218 N 
HETATM   17  C12 UNL     1      25.068  33.194  17.371  1.00  0.00     0.149 A 
HETATM   18  N6  UNL     1      24.772  31.180  17.913  1.00  0.00    -0.234 N 
HETATM   19  C13 UNL     1      26.309  32.596  17.413  1.00  0.00     0.073 A 
HETATM   20  N5  UNL     1      26.078  31.320  17.759  1.00  0.00    -0.287 N 
ATOM     21  H5  UNL     1      26.782  30.591  17.882  1.00  0.00     0.188 HD
ATOM     22  H6  UNL     1      24.321  30.303  18.177  1.00  0.00     0.209 HD
BRANCH  19  23
HETATM   23  C14 UNL     1      27.629  33.204  17.145  1.00  0.00     0.332 C 
BRANCH  23  24
HETATM   24  N3  UNL     1      28.017  34.170  18.117  1.00  0.00     0.100 N 
HETATM   25  C15 UNL     1      28.292  33.542  19.384  1.00  0.00     0.317 C 
HETATM   26  C16 UNL     1      29.548  32.704  19.270  1.00  0.00     0.093 C 
HETATM   27  N4  UNL     1      30.672  33.412  18.805  1.00  0.00    -0.370 N 
HETATM   28  C22 UNL     1      30.457  34.362  17.778  1.00  0.00     0.157 C 
HETATM   29  C23 UNL     1      29.119  35.009  17.770  1.00  0.00     0.293 C 
BRANCH  27  30
HETATM   30  C17 UNL     1      31.783  33.585  19.650  1.00  0.00     0.075 C 
BRANCH  30  31
HETATM   31  C18 UNL     1      31.516  34.225  20.983  1.00  0.00     0.013 A 
HETATM   32  C20 UNL     1      32.473  33.943  22.115  1.00  0.00     0.018 A 
HETATM   33  C21 UNL     1      30.995  33.566  22.167  1.00  0.00     0.018 A 
BRANCH  31  34
HETATM   34  C19 UNL     1      31.192  35.727  20.851  1.00  0.00     0.178 C 
BRANCH  34  35
HETATM   35  O3  UNL     1      29.892  35.966  21.253  1.00  0.00    -0.400 OA
ATOM     36  H3  UNL     1      29.366  36.229  20.507  1.00  0.00     0.209 HD
ENDBRANCH  34  35
ENDBRANCH  31  34
ENDBRANCH  30  31
ENDBRANCH  27  30
ENDBRANCH  23  24
ENDBRANCH  19  23
ENDBRANCH   1  14
TORSDOF 8
ENDMDL
MODEL 3
REMARK VINA RESULT: -7.390826990      1.924      2.410
REMARK  8 active torsions:
REMARK  status: ('A' for Active; 'I' for Inactive)
REMARK    1  A    between atoms: C8_9  and  C9_11 
REMARK    2  A    between atoms: C9_11  and  C11_14 
REMARK       I    between atoms: C11_14  and  N2_16 
REMARK    3  A    between atoms: C13_18  and  C14_19 
REMARK    4  A    between atoms: C14_19  and  N3_20 
REMARK    5  A    between atoms: N4_23  and  C17_24 
REMARK    6  A    between atoms: C17_24  and  C18_25 
REMARK    7  A    between atoms: C18_25  and  C19_26 
REMARK    8  A    between atoms: C19_26  and  O3_27 
ROOT
HETATM    1  C9  UNL     1      27.011  34.434  16.941  1.00  0.00     0.229 C 
HETATM    2  C10 UNL     1      27.073  34.985  15.554  1.00  0.00     0.077 C 
HETATM    3  N1  UNL     1      27.132  35.409  14.481  1.00  0.00    -0.196 NA
ENDROOT
BRANCH   1   4
HETATM    4  C8  UNL     1      28.350  33.947  17.266  1.00  0.00     0.158 C 
HETATM    5  C5  UNL     1      28.610  33.118  18.482  1.00  0.00     0.035 C 
HETATM    6  C4  UNL     1      27.979  33.589  19.743  1.00  0.00     0.045 C 
HETATM    7  C6  UNL     1      30.020  33.726  18.387  1.00  0.00     0.043 C 
HETATM    8  C2  UNL     1      28.371  35.006  20.096  1.00  0.00     0.055 C 
HETATM    9  C1  UNL     1      29.416  35.087  21.182  1.00  0.00     0.045 C 
HETATM   10  C3  UNL     1      27.137  35.688  20.708  1.00  0.00     0.045 C 
HETATM   11  O1  UNL     1      28.687  35.685  18.943  1.00  0.00    -0.372 OA
HETATM   12  C7  UNL     1      29.280  34.968  17.961  1.00  0.00     0.165 C 
HETATM   13  F1  UNL     1      29.107  33.451  16.194  1.00  0.00    -0.238 F 
ENDBRANCH   1   4
BRANCH   1  14
HETATM   14  C11 UNL     1      25.931  33.447  16.944  1.00  0.00     0.264 C 
HETATM   15  O2  UNL     1      26.154  32.328  16.355  1.00  0.00    -0.270 OA
HETATM   16  N2  UNL     1      24.667  33.607  17.533  1.00  0.00    -0.218 N 
HETATM   17  C12 UNL     1      23.681  32.699  17.531  1.00  0.00     0.149 A 
HETATM   18  N6  UNL     1      24.191  34.633  18.193  1.00  0.00    -0.234 N 
HETATM   19  C13 UNL     1      22.590  33.200  18.210  1.00  0.00     0.073 A 
HETATM   20  N5  UNL     1      22.954  34.427  18.613  1.00  0.00    -0.287 N 
ATOM     21  H5  UNL     1      22.380  35.082  19.145  1.00  0.00     0.188 HD
ATOM     22  H6  UNL     1      24.714  35.493  18.364  1.00  0.00     0.209 HD
BRANCH  19  23
HETATM   23  C14 UNL     1      21.288  32.547  18.461  1.00  0.00     0.332 C 
BRANCH  23  24
HETATM   24  N3  UNL     1      21.028  32.314  19.841  1.00  0.00     0.100 N 
HETATM   25  C15 UNL     1      19.751  31.671  20.022  1.00  0.00     0.317 C 
HETATM   26  C16 UNL     1      19.817  30.258  19.480  1.00  0.00     0.093 C 
HETATM   27  N4  UNL     1      20.854  29.480  20.028  1.00  0.00    -0.370 N 
HETATM   28  C22 UNL     1      22.094  30.122  20.252  1.00  0.00     0.157 C 
HETATM   29  C23 UNL     1      22.020  31.575  20.556  1.00  0.00     0.293 C 
BRANCH  27  30
HETATM   30  C17 UNL     1      20.539  28.350  20.805  1.00  0.00     0.075 C 
BRANCH  30  31
HETATM   31  C18 UNL     1      20.416  27.045  20.068  1.00  0.00     0.013 A 
HETATM   32  C20 UNL     1      19.034  26.500  19.809  1.00  0.00     0.018 A 
HETATM   33  C21 UNL     1      20.071  25.758  20.645  1.00  0.00     0.018 A 
BRANCH  31  34
HETATM   34  C19 UNL     1      21.308  27.002  18.811  1.00  0.00     0.178 C 
BRANCH  34  35
HETATM   35  O3  UNL     1      22.587  26.608  19.154  1.00  0.00    -0.400 OA
ATOM     36  H3  UNL     1      23.113  26.495  18.371  1.00  0.00     0.209 HD
ENDBRANCH  34  35
ENDBRANCH  31  34
ENDBRANCH  30  31
ENDBRANCH  27  30
ENDBRANCH  23  24
ENDBRANCH  19  23
ENDBRANCH   1  14
TORSDOF 8
ENDMDL
MODEL 4
REMARK VINA RESULT: -7.218575276      2.110      2.921
REMARK  8 active torsions:
REMARK  status: ('A' for Active; 'I' for Inactive)
REMARK    1  A    between atoms: C8_9  and  C9_11 
REMARK    2  A    between atoms: C9_11  and  C11_14 
REMARK       I    between atoms: C11_14  and  N2_16 
REMARK    3  A    between atoms: C13_18  and  C14_19 
REMARK    4  A    between atoms: C14_19  and  N3_20 
REMARK    5  A    between atoms: N4_23  and  C17_24 
REMARK    6  A    between atoms: C17_24  and  C18_25 
REMARK    7  A    between atoms: C18_25  and  C19_26 
REMARK    8  A    between atoms: C19_26  and  O3_27 
ROOT
HETATM    1  C9  UNL     1      27.863  34.709  21.176  1.00  0.00     0.229 C 
HETATM    2  C10 UNL     1      27.961  35.038  22.629  1.00  0.00     0.077 C 
HETATM    3  N1  UNL     1      28.043  35.302  23.750  1.00  0.00    -0.196 NA
ENDROOT
BRANCH   1   4
HETATM    4  C8  UNL     1      28.673  35.693  20.461  1.00  0.00     0.158 C 
HETATM    5  C5  UNL     1      29.020  35.524  19.017  1.00  0.00     0.035 C 
HETATM    6  C4  UNL     1      29.484  34.171  18.609  1.00  0.00     0.045 C 
HETATM    7  C6  UNL     1      30.252  36.368  19.389  1.00  0.00     0.043 C 
HETATM    8  C2  UNL     1      30.686  33.706  19.399  1.00  0.00     0.055 C 
HETATM    9  C1  UNL     1      31.986  33.827  18.642  1.00  0.00     0.045 C 
HETATM   10  C3  UNL     1      30.527  32.195  19.636  1.00  0.00     0.045 C 
HETATM   11  O1  UNL     1      30.679  34.319  20.630  1.00  0.00    -0.372 OA
HETATM   12  C7  UNL     1      30.200  35.582  20.675  1.00  0.00     0.165 C 
HETATM   13  F1  UNL     1      28.377  37.041  20.713  1.00  0.00    -0.238 F 
ENDBRANCH   1   4
BRANCH   1  14
HETATM   14  C11 UNL     1      26.436  34.671  20.857  1.00  0.00     0.264 C 
HETATM   15  O2  UNL     1      25.705  35.621  21.316  1.00  0.00    -0.270 OA
HETATM   16  N2  UNL     1      25.786  33.690  20.091  1.00  0.00    -0.218 N 
HETATM   17  C12 UNL     1      24.477  33.660  19.804  1.00  0.00     0.149 A 
HETATM   18  N6  UNL     1      26.293  32.633  19.507  1.00  0.00    -0.234 N 
HETATM   19  C13 UNL     1      24.200  32.555  19.026  1.00  0.00     0.073 A 
HETATM   20  N5  UNL     1      25.376  31.931  18.862  1.00  0.00    -0.287 N 
ATOM     21  H5  UNL     1      25.534  31.072  18.335  1.00  0.00     0.188 HD
ATOM     22  H6  UNL     1      27.281  32.380  19.545  1.00  0.00     0.209 HD
BRANCH  19  23
HETATM   23  C14 UNL     1      22.898  32.128  18.474  1.00  0.00     0.332 C 
BRANCH  23  24
HETATM   24  N3  UNL     1      21.835  32.183  19.419  1.00  0.00     0.100 N 
HETATM   25  C15 UNL     1      20.581  31.827  18.805  1.00  0.00     0.317 C 
HETATM   26  C16 UNL     1      20.595  30.355  18.448  1.00  0.00     0.093 C 
HETATM   27  N4  UNL     1      20.885  29.504  19.530  1.00  0.00    -0.370 N 
HETATM   28  C22 UNL     1      21.874  29.935  20.444  1.00  0.00     0.157 C 
HETATM   29  C23 UNL     1      22.003  31.407  20.606  1.00  0.00     0.293 C 
BRANCH  27  30
HETATM   30  C17 UNL     1      19.907  28.599  19.984  1.00  0.00     0.075 C 
BRANCH  30  31
HETATM   31  C18 UNL     1      20.238  27.138  19.858  1.00  0.00     0.013 A 
HETATM   32  C20 UNL     1      19.104  26.145  19.897  1.00  0.00     0.018 A 
HETATM   33  C21 UNL     1      20.228  26.157  20.927  1.00  0.00     0.018 A 
BRANCH  31  34
HETATM   34  C19 UNL     1      21.219  26.864  18.700  1.00  0.00     0.178 C 
BRANCH  34  35
HETATM   35  O3  UNL     1      22.476  26.589  19.203  1.00  0.00    -0.400 OA
ATOM     36  H3  UNL     1      22.770  27.308  19.751  1.00  0.00     0.209 HD
ENDBRANCH  34  35
ENDBRANCH  31  34
ENDBRANCH  30  31
ENDBRANCH  27  30
ENDBRANCH  23  24
ENDBRANCH  19  23
ENDBRANCH   1  14
TORSDOF 8
ENDMDL
MODEL 5
REMARK VINA RESULT: -7.201763557      3.602     10.092
REMARK  8 active torsions:
REMARK  status: ('A' for Active; 'I' for Inactive)
REMARK    1  A    between atoms: C8_9  and  C9_11 
REMARK    2  A    between atoms: C9_11  and  C11_14 
REMARK       I    between atoms: C11_14  and  N2_16 
REMARK    3  A    between atoms: C13_18  and  C14_19 
REMARK    4  A    between atoms: C14_19  and  N3_20 
REMARK    5  A    between atoms: N4_23  and  C17_24 
REMARK    6  A    between atoms: C17_24  and  C18_25 
REMARK    7  A    between atoms: C18_25  and  C19_26 
REMARK    8  A    between atoms: C19_26  and  O3_27 
ROOT
HETATM    1  C9  UNL     1      22.303  31.002  17.270  1.00  0.00     0.229 C 
HETATM    2  C10 UNL     1      21.521  30.403  16.148  1.00  0.00     0.077 C 
HETATM    3  N1  UNL     1      20.907  29.946  15.283  1.00  0.00    -0.196 NA
ENDROOT
BRANCH   1   4
HETATM    4  C8  UNL     1      21.390  31.873  18.008  1.00  0.00     0.158 C 
HETATM    5  C5  UNL     1      21.584  32.160  19.462  1.00  0.00     0.035 C 
HETATM    6  C4  UNL     1      21.894  30.989  20.325  1.00  0.00     0.045 C 
HETATM    7  C6  UNL     1      20.059  32.365  19.450  1.00  0.00     0.043 C 
HETATM    8  C2  UNL     1      20.843  29.906  20.236  1.00  0.00     0.055 C 
HETATM    9  C1  UNL     1      19.899  29.886  21.414  1.00  0.00     0.045 C 
HETATM   10  C3  UNL     1      21.567  28.553  20.309  1.00  0.00     0.045 C 
HETATM   11  O1  UNL     1      20.227  29.978  19.008  1.00  0.00    -0.372 OA
HETATM   12  C7  UNL     1      20.074  31.213  18.479  1.00  0.00     0.165 C 
HETATM   13  F1  UNL     1      20.985  33.044  17.352  1.00  0.00    -0.238 F 
ENDBRANCH   1   4
BRANCH   1  14
HETATM   14  C11 UNL     1      23.474  31.636  16.664  1.00  0.00     0.264 C 
HETATM   15  O2  UNL     1      23.405  31.931  15.416  1.00  0.00    -0.270 OA
HETATM   16  N2  UNL     1      24.673  31.955  17.321  1.00  0.00    -0.218 N 
HETATM   17  C12 UNL     1      25.744  32.534  16.759  1.00  0.00     0.149 A 
HETATM   18  N6  UNL     1      24.998  31.771  18.576  1.00  0.00    -0.234 N 
HETATM   19  C13 UNL     1      26.731  32.700  17.708  1.00  0.00     0.073 A 
HETATM   20  N5  UNL     1      26.219  32.203  18.845  1.00  0.00    -0.287 N 
ATOM     21  H5  UNL     1      26.686  32.166  19.751  1.00  0.00     0.188 HD
ATOM     22  H6  UNL     1      24.381  31.344  19.268  1.00  0.00     0.209 HD
BRANCH  19  23
HETATM   23  C14 UNL     1      28.072  33.297  17.541  1.00  0.00     0.332 C 
BRANCH  23  24
HETATM   24  N3  UNL     1      28.106  34.697  17.801  1.00  0.00     0.100 N 
HETATM   25  C15 UNL     1      29.423  35.232  17.570  1.00  0.00     0.317 C 
HETATM   26  C16 UNL     1      29.731  35.190  16.087  1.00  0.00     0.093 C 
HETATM   27  N4  UNL     1      28.776  35.839  15.283  1.00  0.00    -0.370 N 
HETATM   28  C22 UNL     1      27.416  35.688  15.644  1.00  0.00     0.157 C 
HETATM   29  C23 UNL     1      27.154  35.495  17.095  1.00  0.00     0.293 C 
BRANCH  27  30
HETATM   30  C17 UNL     1      29.146  36.980  14.548  1.00  0.00     0.075 C 
BRANCH  30  31
HETATM   31  C18 UNL     1      28.774  36.987  13.092  1.00  0.00     0.013 A 
HETATM   32  C20 UNL     1      29.035  38.241  12.295  1.00  0.00     0.018 A 
HETATM   33  C21 UNL     1      27.637  37.665  12.496  1.00  0.00     0.018 A 
BRANCH  31  34
HETATM   34  C19 UNL     1      29.260  35.718  12.363  1.00  0.00     0.178 C 
BRANCH  34  35
HETATM   35  O3  UNL     1      28.176  34.976  11.936  1.00  0.00    -0.400 OA
ATOM     36  H3  UNL     1      27.930  35.238  11.057  1.00  0.00     0.209 HD
ENDBRANCH  34  35
ENDBRANCH  31  34
ENDBRANCH  30  31
ENDBRANCH  27  30
ENDBRANCH  23  24
ENDBRANCH  19  23
ENDBRANCH   1  14
TORSDOF 8
ENDMDL
