MODEL 1
REMARK VINA RESULT: -6.776305765      0.000      0.000
REMARK  8 active torsions:
REMARK  status: ('A' for Active; 'I' for Inactive)
REMARK    1  A    between atoms: C2_2  and  C3_3 
REMARK    2  A    between atoms: C3_3  and  C4_4 
REMARK    3  A    between atoms: C4_4  and  N1_5 
REMARK    4  A    between atoms: C5_6  and  N2_7 
REMARK    5  A    between atoms: N2_7  and  C6_8 
REMARK    6  A    between atoms: C11_17  and  N4_18 
REMARK    7  A    between atoms: N7_28  and  C18_29 
REMARK    8  A    between atoms: C18_29  and  C19_30 
ROOT
HETATM    1  N1  UNL     1      21.716  31.885  17.377  1.00  0.00    -0.272 N 
HETATM    2  C5  UNL     1      20.960  32.152  18.526  1.00  0.00     0.212 A 
HETATM    3  C9  UNL     1      20.492  33.472  18.654  1.00  0.00     0.139 A 
HETATM    4  N3  UNL     1      19.744  33.832  19.712  1.00  0.00    -0.313 N 
ATOM      5  H3  UNL     1      19.523  33.141  20.430  1.00  0.00     0.169 HD
HETATM    6  C10 UNL     1      19.277  35.107  19.838  1.00  0.00     0.290 A 
HETATM    7  O1  UNL     1      18.591  35.337  20.860  1.00  0.00    -0.264 OA
HETATM    8  C11 UNL     1      19.537  36.076  18.907  1.00  0.00     0.174 A 
HETATM    9  N6  UNL     1      20.282  35.697  17.862  1.00  0.00    -0.322 N 
ATOM     10  H6  UNL     1      20.501  36.386  17.142  1.00  0.00     0.169 HD
HETATM   11  C17 UNL     1      20.760  34.424  17.719  1.00  0.00     0.145 A 
HETATM   12  N7  UNL     1      21.489  34.111  16.644  1.00  0.00    -0.283 N 
HETATM   13  C21 UNL     1      21.943  32.839  16.517  1.00  0.00     0.332 A 
HETATM   14  O2  UNL     1      22.643  32.598  15.466  1.00  0.00    -0.246 OA
ENDROOT
BRANCH   8  15
HETATM   15  N4  UNL     1      19.040  37.397  19.058  1.00  0.00    -0.359 N 
HETATM   16  C12 UNL     1      19.893  38.417  19.634  1.00  0.00     0.154 C 
HETATM   17  C13 UNL     1      19.147  39.069  20.780  1.00  0.00     0.291 C 
HETATM   18  N5  UNL     1      17.899  39.608  20.333  1.00  0.00     0.087 N 
HETATM   19  C14 UNL     1      17.922  41.071  20.458  1.00  0.00     0.310 C 
HETATM   20  C15 UNL     1      17.648  39.317  18.957  1.00  0.00     0.291 C 
HETATM   21  C16 UNL     1      17.713  37.813  18.671  1.00  0.00     0.154 C 
ENDBRANCH   8  15
BRANCH  12  22
HETATM   22  C18 UNL     1      21.814  35.083  15.641  1.00  0.00     0.135 C 
BRANCH  22  23
HETATM   23  C19 UNL     1      20.727  35.400  14.687  1.00  0.00     0.016 C 
HETATM   24  C20 UNL     1      20.653  36.793  14.180  1.00  0.00     0.006 C 
ENDBRANCH  22  23
ENDBRANCH  12  22
BRANCH   2  25
HETATM   25  N2  UNL     1      20.750  31.313  19.360  1.00  0.00    -0.401 NA
BRANCH  25  26
HETATM   26  C6  UNL     1      20.703  30.272  20.183  1.00  0.00     0.163 C 
HETATM   27  C7  UNL     1      20.214  30.570  21.655  1.00  0.00     0.072 C 
HETATM   28  C8  UNL     1      19.734  29.126  19.814  1.00  0.00     0.072 C 
HETATM   29 CL1  UNL     1      22.284  29.434  20.539  1.00  0.00    -0.081 Cl
ENDBRANCH  25  26
ENDBRANCH   2  25
BRANCH   1  30
HETATM   30  C4  UNL     1      22.199  30.522  17.261  1.00  0.00     0.136 C 
BRANCH  30  31
HETATM   31  C3  UNL     1      21.422  29.633  16.360  1.00  0.00     0.020 C 
BRANCH  31  32
HETATM   32  C2  UNL     1      22.068  29.000  15.194  1.00  0.00    -0.003 C 
HETATM   33  C1  UNL     1      21.675  29.586  13.862  1.00  0.00     0.005 C 
ENDBRANCH  31  32
ENDBRANCH  30  31
ENDBRANCH   1  30
TORSDOF 8
ENDMDL
MODEL 2
REMARK VINA RESULT: -6.722448802      4.585      6.169
REMARK  8 active torsions:
REMARK  status: ('A' for Active; 'I' for Inactive)
REMARK    1  A    between atoms: C2_2  and  C3_3 
REMARK    2  A    between atoms: C3_3  and  C4_4 
REMARK    3  A    between atoms: C4_4  and  N1_5 
REMARK    4  A    between atoms: C5_6  and  N2_7 
REMARK    5  A    between atoms: N2_7  and  C6_8 
REMARK    6  A    between atoms: C11_17  and  N4_18 
REMARK    7  A    between atoms: N7_28  and  C18_29 
REMARK    8  A    between atoms: C18_29  and  C19_30 
ROOT
HETATM    1  N1  UNL     1      21.483  29.072  18.000  1.00  0.00    -0.272 N 
HETATM    2  C5  UNL     1      21.797  30.208  18.756  1.00  0.00     0.212 A 
HETATM    3  C9  UNL     1      22.705  31.104  18.162  1.00  0.00     0.139 A 
HETATM    4  N3  UNL     1      23.063  32.235  18.797  1.00  0.00    -0.313 N 
ATOM      5  H3  UNL     1      22.677  32.437  19.720  1.00  0.00     0.169 HD
HETATM    6  C10 UNL     1      23.933  33.113  18.224  1.00  0.00     0.290 A 
HETATM    7  O1  UNL     1      24.201  34.134  18.898  1.00  0.00    -0.264 OA
HETATM    8  C11 UNL     1      24.482  32.898  16.988  1.00  0.00     0.174 A 
HETATM    9  N6  UNL     1      24.111  31.769  16.373  1.00  0.00    -0.322 N 
ATOM     10  H6  UNL     1      24.493  31.566  15.450  1.00  0.00     0.169 HD
HETATM   11  C17 UNL     1      23.240  30.875  16.933  1.00  0.00     0.145 A 
HETATM   12  N7  UNL     1      22.905  29.772  16.259  1.00  0.00    -0.283 N 
HETATM   13  C21 UNL     1      22.031  28.905  16.828  1.00  0.00     0.332 A 
HETATM   14  O2  UNL     1      21.750  27.858  16.136  1.00  0.00    -0.246 OA
ENDROOT
BRANCH   8  15
HETATM   15  N4  UNL     1      25.385  33.827  16.409  1.00  0.00    -0.359 N 
HETATM   16  C12 UNL     1      26.812  33.613  16.547  1.00  0.00     0.154 C 
HETATM   17  C13 UNL     1      27.430  34.874  17.111  1.00  0.00     0.291 C 
HETATM   18  N5  UNL     1      27.139  36.000  16.278  1.00  0.00     0.087 N 
HETATM   19  C14 UNL     1      28.383  36.510  15.687  1.00  0.00     0.310 C 
HETATM   20  C15 UNL     1      26.278  35.657  15.190  1.00  0.00     0.291 C 
HETATM   21  C16 UNL     1      24.981  35.002  15.674  1.00  0.00     0.154 C 
ENDBRANCH   8  15
BRANCH  12  22
HETATM   22  C18 UNL     1      23.456  29.477  14.969  1.00  0.00     0.135 C 
BRANCH  22  23
HETATM   23  C19 UNL     1      22.476  29.389  13.862  1.00  0.00     0.016 C 
HETATM   24  C20 UNL     1      21.895  30.662  13.367  1.00  0.00     0.006 C 
ENDBRANCH  22  23
ENDBRANCH  12  22
BRANCH   2  25
HETATM   25  N2  UNL     1      21.341  30.391  19.853  1.00  0.00    -0.401 NA
BRANCH  25  26
HETATM   26  C6  UNL     1      20.704  30.760  20.958  1.00  0.00     0.163 C 
HETATM   27  C7  UNL     1      19.622  31.898  20.790  1.00  0.00     0.072 C 
HETATM   28  C8  UNL     1      19.847  29.690  21.670  1.00  0.00     0.072 C 
HETATM   29 CL1  UNL     1      21.721  31.486  22.288  1.00  0.00    -0.081 Cl
ENDBRANCH  25  26
ENDBRANCH   2  25
BRANCH   1  30
HETATM   30  C4  UNL     1      20.552  28.153  18.627  1.00  0.00     0.136 C 
BRANCH  30  31
HETATM   31  C3  UNL     1      21.158  26.971  19.292  1.00  0.00     0.020 C 
BRANCH  31  32
HETATM   32  C2  UNL     1      20.301  25.932  19.895  1.00  0.00    -0.003 C 
HETATM   33  C1  UNL     1      18.825  26.236  19.861  1.00  0.00     0.005 C 
ENDBRANCH  31  32
ENDBRANCH  30  31
ENDBRANCH   1  30
TORSDOF 8
ENDMDL
MODEL 3
REMARK VINA RESULT: -6.646258642      3.455      8.357
REMARK  8 active torsions:
REMARK  status: ('A' for Active; 'I' for Inactive)
REMARK    1  A    between atoms: C2_2  and  C3_3 
REMARK    2  A    between atoms: C3_3  and  C4_4 
REMARK    3  A    between atoms: C4_4  and  N1_5 
REMARK    4  A    between atoms: C5_6  and  N2_7 
REMARK    5  A    between atoms: N2_7  and  C6_8 
REMARK    6  A    between atoms: C11_17  and  N4_18 
REMARK    7  A    between atoms: N7_28  and  C18_29 
REMARK    8  A    between atoms: C18_29  and  C19_30 
ROOT
HETATM    1  N1  UNL     1      22.554  35.704  20.596  1.00  0.00    -0.272 N 
HETATM    2  C5  UNL     1      21.464  35.154  19.909  1.00  0.00     0.212 A 
HETATM    3  C9  UNL     1      21.307  33.761  20.031  1.00  0.00     0.139 A 
HETATM    4  N3  UNL     1      20.284  33.133  19.424  1.00  0.00    -0.313 N 
ATOM      5  H3  UNL     1      19.623  33.673  18.865  1.00  0.00     0.169 HD
HETATM    6  C10 UNL     1      20.118  31.785  19.547  1.00  0.00     0.290 A 
HETATM    7  O1  UNL     1      19.135  31.300  18.942  1.00  0.00    -0.264 OA
HETATM    8  C11 UNL     1      20.970  31.008  20.285  1.00  0.00     0.174 A 
HETATM    9  N6  UNL     1      21.980  31.653  20.881  1.00  0.00    -0.322 N 
ATOM     10  H6  UNL     1      22.640  31.115  21.443  1.00  0.00     0.169 HD
HETATM   11  C17 UNL     1      22.162  33.003  20.769  1.00  0.00     0.145 A 
HETATM   12  N7  UNL     1      23.187  33.584  21.400  1.00  0.00    -0.283 N 
HETATM   13  C21 UNL     1      23.342  34.926  21.285  1.00  0.00     0.332 A 
HETATM   14  O2  UNL     1      24.348  35.429  21.909  1.00  0.00    -0.246 OA
ENDROOT
BRANCH   8  15
HETATM   15  N4  UNL     1      20.779  29.607  20.399  1.00  0.00    -0.359 N 
HETATM   16  C12 UNL     1      21.735  28.705  19.789  1.00  0.00     0.154 C 
HETATM   17  C13 UNL     1      20.978  27.735  18.907  1.00  0.00     0.291 C 
HETATM   18  N5  UNL     1      19.987  27.029  19.661  1.00  0.00     0.087 N 
HETATM   19  C14 UNL     1      20.330  25.602  19.711  1.00  0.00     0.310 C 
HETATM   20  C15 UNL     1      19.915  27.483  21.013  1.00  0.00     0.291 C 
HETATM   21  C16 UNL     1      19.673  28.994  21.097  1.00  0.00     0.154 C 
ENDBRANCH   8  15
BRANCH  12  22
HETATM   22  C18 UNL     1      24.126  32.826  22.175  1.00  0.00     0.135 C 
BRANCH  22  23
HETATM   23  C19 UNL     1      23.865  32.788  23.632  1.00  0.00     0.016 C 
HETATM   24  C20 UNL     1      24.965  33.222  24.530  1.00  0.00     0.006 C 
ENDBRANCH  22  23
ENDBRANCH  12  22
BRANCH   2  25
HETATM   25  N2  UNL     1      20.728  35.826  19.238  1.00  0.00    -0.401 NA
BRANCH  25  26
HETATM   26  C6  UNL     1      19.927  36.387  18.340  1.00  0.00     0.163 C 
HETATM   27  C7  UNL     1      19.973  35.774  16.886  1.00  0.00     0.072 C 
HETATM   28  C8  UNL     1      18.407  36.311  18.607  1.00  0.00     0.072 C 
HETATM   29 CL1  UNL     1      20.232  38.144  17.951  1.00  0.00    -0.081 Cl
ENDBRANCH  25  26
ENDBRANCH   2  25
BRANCH   1  30
HETATM   30  C4  UNL     1      22.708  37.140  20.455  1.00  0.00     0.136 C 
BRANCH  30  31
HETATM   31  C3  UNL     1      22.180  37.961  21.575  1.00  0.00     0.020 C 
BRANCH  31  32
HETATM   32  C2  UNL     1      21.055  38.889  21.355  1.00  0.00    -0.003 C 
HETATM   33  C1  UNL     1      19.693  38.303  21.632  1.00  0.00     0.005 C 
ENDBRANCH  31  32
ENDBRANCH  30  31
ENDBRANCH   1  30
TORSDOF 8
ENDMDL
MODEL 4
REMARK VINA RESULT: -6.587048002      5.168      7.627
REMARK  8 active torsions:
REMARK  status: ('A' for Active; 'I' for Inactive)
REMARK    1  A    between atoms: C2_2  and  C3_3 
REMARK    2  A    between atoms: C3_3  and  C4_4 
REMARK    3  A    between atoms: C4_4  and  N1_5 
REMARK    4  A    between atoms: C5_6  and  N2_7 
REMARK    5  A    between atoms: N2_7  and  C6_8 
REMARK    6  A    between atoms: C11_17  and  N4_18 
REMARK    7  A    between atoms: N7_28  and  C18_29 
REMARK    8  A    between atoms: C18_29  and  C19_30 
ROOT
HETATM    1  N1  UNL     1      22.010  30.848  19.907  1.00  0.00    -0.272 N 
HETATM    2  C5  UNL     1      22.868  30.900  18.801  1.00  0.00     0.212 A 
HETATM    3  C9  UNL     1      23.984  31.745  18.935  1.00  0.00     0.139 A 
HETATM    4  N3  UNL     1      24.880  31.857  17.939  1.00  0.00    -0.313 N 
ATOM      5  H3  UNL     1      24.742  31.329  17.077  1.00  0.00     0.169 HD
HETATM    6  C10 UNL     1      25.970  32.666  18.065  1.00  0.00     0.290 A 
HETATM    7  O1  UNL     1      26.742  32.699  17.079  1.00  0.00    -0.264 OA
HETATM    8  C11 UNL     1      26.211  33.397  19.197  1.00  0.00     0.174 A 
HETATM    9  N6  UNL     1      25.308  33.270  20.177  1.00  0.00    -0.322 N 
ATOM     10  H6  UNL     1      25.446  33.796  21.040  1.00  0.00     0.169 HD
HETATM   11  C17 UNL     1      24.209  32.465  20.068  1.00  0.00     0.145 A 
HETATM   12  N7  UNL     1      23.353  32.377  21.090  1.00  0.00    -0.283 N 
HETATM   13  C21 UNL     1      22.275  31.564  20.964  1.00  0.00     0.332 A 
HETATM   14  O2  UNL     1      21.483  31.524  21.977  1.00  0.00    -0.246 OA
ENDROOT
BRANCH   8  15
HETATM   15  N4  UNL     1      27.353  34.232  19.308  1.00  0.00    -0.359 N 
HETATM   16  C12 UNL     1      27.261  35.622  18.905  1.00  0.00     0.154 C 
HETATM   17  C13 UNL     1      28.376  35.907  17.922  1.00  0.00     0.291 C 
HETATM   18  N5  UNL     1      29.651  35.603  18.497  1.00  0.00     0.087 N 
HETATM   19  C14 UNL     1      30.432  36.838  18.644  1.00  0.00     0.310 C 
HETATM   20  C15 UNL     1      29.531  35.034  19.802  1.00  0.00     0.291 C 
HETATM   21  C16 UNL     1      28.635  33.792  19.804  1.00  0.00     0.154 C 
ENDBRANCH   8  15
BRANCH  12  22
HETATM   22  C18 UNL     1      23.536  33.130  22.297  1.00  0.00     0.135 C 
BRANCH  22  23
HETATM   23  C19 UNL     1      24.468  32.536  23.282  1.00  0.00     0.016 C 
HETATM   24  C20 UNL     1      24.857  33.377  24.442  1.00  0.00     0.006 C 
ENDBRANCH  22  23
ENDBRANCH  12  22
BRANCH   2  25
HETATM   25  N2  UNL     1      22.649  30.281  17.794  1.00  0.00    -0.401 NA
BRANCH  25  26
HETATM   26  C6  UNL     1      22.398  29.813  16.578  1.00  0.00     0.163 C 
HETATM   27  C7  UNL     1      22.015  28.283  16.486  1.00  0.00     0.072 C 
HETATM   28  C8  UNL     1      21.199  30.426  15.820  1.00  0.00     0.072 C 
HETATM   29 CL1  UNL     1      23.770  29.867  15.377  1.00  0.00    -0.081 Cl
ENDBRANCH  25  26
ENDBRANCH   2  25
BRANCH   1  30
HETATM   30  C4  UNL     1      20.859  29.978  19.752  1.00  0.00     0.136 C 
BRANCH  30  31
HETATM   31  C3  UNL     1      20.982  28.627  20.357  1.00  0.00     0.020 C 
BRANCH  31  32
HETATM   32  C2  UNL     1      19.822  27.991  21.010  1.00  0.00    -0.003 C 
HETATM   33  C1  UNL     1      19.945  26.500  21.199  1.00  0.00     0.005 C 
ENDBRANCH  31  32
ENDBRANCH  30  31
ENDBRANCH   1  30
TORSDOF 8
ENDMDL
MODEL 5
REMARK VINA RESULT: -6.544881536      5.154      7.537
REMARK  8 active torsions:
REMARK  status: ('A' for Active; 'I' for Inactive)
REMARK    1  A    between atoms: C2_2  and  C3_3 
REMARK    2  A    between atoms: C3_3  and  C4_4 
REMARK    3  A    between atoms: C4_4  and  N1_5 
REMARK    4  A    between atoms: C5_6  and  N2_7 
REMARK    5  A    between atoms: N2_7  and  C6_8 
REMARK    6  A    between atoms: C11_17  and  N4_18 
REMARK    7  A    between atoms: N7_28  and  C18_29 
REMARK    8  A    between atoms: C18_29  and  C19_30 
ROOT
HETATM    1  N1  UNL     1      21.977  30.816  19.840  1.00  0.00    -0.272 N 
HETATM    2  C5  UNL     1      22.828  30.874  18.729  1.00  0.00     0.212 A 
HETATM    3  C9  UNL     1      23.937  31.730  18.855  1.00  0.00     0.139 A 
HETATM    4  N3  UNL     1      24.825  31.849  17.853  1.00  0.00    -0.313 N 
ATOM      5  H3  UNL     1      24.687  31.319  16.992  1.00  0.00     0.169 HD
HETATM    6  C10 UNL     1      25.909  32.669  17.971  1.00  0.00     0.290 A 
HETATM    7  O1  UNL     1      26.674  32.708  16.980  1.00  0.00    -0.264 OA
HETATM    8  C11 UNL     1      26.149  33.404  19.101  1.00  0.00     0.174 A 
HETATM    9  N6  UNL     1      25.254  33.269  20.087  1.00  0.00    -0.322 N 
ATOM     10  H6  UNL     1      25.393  33.797  20.949  1.00  0.00     0.169 HD
HETATM   11  C17 UNL     1      24.162  32.453  19.985  1.00  0.00     0.145 A 
HETATM   12  N7  UNL     1      23.313  32.358  21.013  1.00  0.00    -0.283 N 
HETATM   13  C21 UNL     1      22.242  31.535  20.895  1.00  0.00     0.332 A 
HETATM   14  O2  UNL     1      21.457  31.488  21.913  1.00  0.00    -0.246 OA
ENDROOT
BRANCH   8  15
HETATM   15  N4  UNL     1      27.284  34.249  19.204  1.00  0.00    -0.359 N 
HETATM   16  C12 UNL     1      28.525  33.717  19.730  1.00  0.00     0.154 C 
HETATM   17  C13 UNL     1      28.989  34.616  20.856  1.00  0.00     0.291 C 
HETATM   18  N5  UNL     1      29.140  35.964  20.400  1.00  0.00     0.087 N 
HETATM   19  C14 UNL     1      30.555  36.351  20.466  1.00  0.00     0.310 C 
HETATM   20  C15 UNL     1      28.734  36.122  19.040  1.00  0.00     0.291 C 
HETATM   21  C16 UNL     1      27.298  35.639  18.813  1.00  0.00     0.154 C 
ENDBRANCH   8  15
BRANCH  12  22
HETATM   22  C18 UNL     1      23.496  33.114  22.218  1.00  0.00     0.135 C 
BRANCH  22  23
HETATM   23  C19 UNL     1      24.416  32.513  23.211  1.00  0.00     0.016 C 
HETATM   24  C20 UNL     1      24.784  33.344  24.385  1.00  0.00     0.006 C 
ENDBRANCH  22  23
ENDBRANCH  12  22
BRANCH   2  25
HETATM   25  N2  UNL     1      22.608  30.253  17.724  1.00  0.00    -0.401 NA
BRANCH  25  26
HETATM   26  C6  UNL     1      22.381  29.779  16.504  1.00  0.00     0.163 C 
HETATM   27  C7  UNL     1      21.994  28.250  16.414  1.00  0.00     0.072 C 
HETATM   28  C8  UNL     1      21.202  30.393  15.717  1.00  0.00     0.072 C 
HETATM   29 CL1  UNL     1      23.780  29.820  15.334  1.00  0.00    -0.081 Cl
ENDBRANCH  25  26
ENDBRANCH   2  25
BRANCH   1  30
HETATM   30  C4  UNL     1      20.833  29.935  19.693  1.00  0.00     0.136 C 
BRANCH  30  31
HETATM   31  C3  UNL     1      20.964  28.594  20.319  1.00  0.00     0.020 C 
BRANCH  31  32
HETATM   32  C2  UNL     1      19.814  27.973  21.003  1.00  0.00    -0.003 C 
HETATM   33  C1  UNL     1      19.944  26.487  21.229  1.00  0.00     0.005 C 
ENDBRANCH  31  32
ENDBRANCH  30  31
ENDBRANCH   1  30
TORSDOF 8
ENDMDL
