MODEL 1
REMARK VINA RESULT: -8.405232944      0.000      0.000
REMARK  17 active torsions:
REMARK  status: ('A' for Active; 'I' for Inactive)
REMARK    1  A    between atoms: O1_2  and  C2_3 
REMARK    2  A    between atoms: C2_3  and  C3_5 
REMARK    3  A    between atoms: C4_6  and  C5_7 
REMARK    4  A    between atoms: C5_7  and  S1_8 
REMARK    5  A    between atoms: S1_8  and  C6_9 
REMARK    6  A    between atoms: N4_16  and  C7_17 
REMARK    7  A    between atoms: C7_17  and  C8_18 
REMARK    8  A    between atoms: C8_18  and  C9_19 
REMARK    9  A    between atoms: C9_19  and  N5_20 
REMARK   10  A    between atoms: C16_28  and  O3_29 
REMARK   11  A    between atoms: C17_31  and  N6_32 
REMARK   12  A    between atoms: C20_35  and  C21_36 
REMARK   13  A    between atoms: C22_42  and  N9_43 
REMARK   14  A    between atoms: C23_46  and  O4_47 
REMARK   15  A    between atoms: C24_49  and  C25_50 
REMARK       I    between atoms: C25_50  and  N10_52 
REMARK   16  A    between atoms: N10_52  and  N11_54 
REMARK   17  A    between atoms: N11_54  and  N12_55 
ROOT
HETATM    1  C3  UNL     1       7.705  28.231  23.115  1.00  0.00     0.043 C 
HETATM    2  C4  UNL     1       8.231  29.339  23.497  1.00  0.00    -0.047 C 
HETATM    3  C14 UNL     1       7.666  30.742  23.250  1.00  0.00     0.110 C 
HETATM    4  S2  UNL     1       6.301  30.759  22.153  1.00  0.00    -0.155 SA
HETATM    5  C15 UNL     1       5.656  29.142  21.880  1.00  0.00     0.103 C 
HETATM    6  C16 UNL     1       4.266  28.993  22.591  1.00  0.00     0.159 C 
HETATM    7  C17 UNL     1       4.169  27.527  22.476  1.00  0.00     0.152 C 
HETATM    8  C23 UNL     1       5.498  27.052  22.978  1.00  0.00     0.168 C 
HETATM    9  C24 UNL     1       6.455  28.012  22.317  1.00  0.00     0.118 C 
ENDROOT
BRANCH   2  10
HETATM   10  C5  UNL     1       9.498  29.517  24.267  1.00  0.00     0.118 C 
BRANCH  10  11
HETATM   11  S1  UNL     1      10.855  29.978  23.119  1.00  0.00    -0.087 SA
BRANCH  11  12
HETATM   12  C6  UNL     1      11.058  28.596  21.994  1.00  0.00     0.178 A 
HETATM   13  N1  UNL     1      10.496  28.424  20.764  1.00  0.00    -0.263 N 
HETATM   14  N2  UNL     1      10.886  27.294  20.230  1.00  0.00    -0.226 N 
ATOM     15  H1  UNL     1       9.859  29.086  20.320  1.00  0.00     0.190 HD
HETATM   16  N3  UNL     1      11.693  26.729  21.097  1.00  0.00    -0.224 N 
ATOM     17  H2  UNL     1      10.615  26.924  19.318  1.00  0.00     0.210 HD
HETATM   18  N4  UNL     1      11.815  27.491  22.168  1.00  0.00    -0.254 N 
ATOM     19  H3  UNL     1      12.159  25.831  20.963  1.00  0.00     0.210 HD
BRANCH  18  20
HETATM   20  C7  UNL     1      12.631  27.187  23.324  1.00  0.00     0.154 C 
BRANCH  20  21
HETATM   21  C8  UNL     1      14.107  27.077  22.985  1.00  0.00     0.052 C 
BRANCH  21  22
HETATM   22  C9  UNL     1      14.829  26.319  24.074  1.00  0.00     0.274 C 
BRANCH  22  23
HETATM   23  N5  UNL     1      16.254  26.637  24.026  1.00  0.00     0.088 N 
HETATM   24  C10 UNL     1      16.665  27.200  25.296  1.00  0.00     0.272 C 
HETATM   25  C11 UNL     1      16.832  28.680  25.077  1.00  0.00     0.032 C 
HETATM   26  C12 UNL     1      17.366  28.716  23.651  1.00  0.00     0.032 C 
HETATM   27  C13 UNL     1      16.577  27.594  23.011  1.00  0.00     0.272 C 
ENDBRANCH  22  23
ENDBRANCH  21  22
ENDBRANCH  20  21
ENDBRANCH  18  20
ENDBRANCH  11  12
ENDBRANCH  10  11
ENDBRANCH   2  10
BRANCH   1  28
HETATM   28  C2  UNL     1       8.338  26.948  23.416  1.00  0.00     0.290 C 
HETATM   29  O2  UNL     1       8.908  26.220  22.540  1.00  0.00    -0.260 OA
BRANCH  28  30
HETATM   30  O1  UNL     1       8.365  26.419  24.689  1.00  0.00    -0.323 OA
HETATM   31  C1  UNL     1       9.449  25.602  25.128  1.00  0.00     0.213 C 
ENDBRANCH  28  30
ENDBRANCH   1  28
BRANCH   9  32
HETATM   32  C25 UNL     1       6.981  27.346  21.049  1.00  0.00     0.252 C 
HETATM   33  O5  UNL     1       7.650  27.989  20.228  1.00  0.00    -0.271 OA
HETATM   34  N10 UNL     1       6.702  25.981  20.807  1.00  0.00    -0.253 N 
ATOM     35  H10 UNL     1       6.148  25.473  21.496  1.00  0.00     0.187 HD
BRANCH  34  36
HETATM   36  N11 UNL     1       7.137  25.300  19.694  1.00  0.00    -0.027 NA
BRANCH  36  37
HETATM   37  N12 UNL     1       8.470  24.892  19.854  1.00  0.00    -0.329 N 
ATOM     38 2H12 UNL     1       9.048  25.141  20.657  1.00  0.00     0.174 HD
ATOM     39 1H12 UNL     1       8.768  24.323  19.062  1.00  0.00     0.174 HD
ENDBRANCH  36  37
ENDBRANCH  34  36
ENDBRANCH   9  32
BRANCH   8  40
HETATM   40  O4  UNL     1       5.669  27.198  24.346  1.00  0.00    -0.392 OA
ATOM     41  H4  UNL     1       5.820  28.094  24.622  1.00  0.00     0.210 HD
ENDBRANCH   8  40
BRANCH   6  42
HETATM   42  O3  UNL     1       3.310  29.721  21.892  1.00  0.00    -0.392 OA
ATOM     43  H3  UNL     1       2.528  29.193  21.786  1.00  0.00     0.210 HD
ENDBRANCH   6  42
BRANCH   7  44
HETATM   44  N6  UNL     1       2.997  26.884  23.042  1.00  0.00    -0.321 N 
HETATM   45  C18 UNL     1       2.498  25.764  22.534  1.00  0.00     0.031 A 
HETATM   46  C19 UNL     1       3.084  24.991  21.356  1.00  0.00     0.070 C 
HETATM   47  C20 UNL     1       1.376  25.237  23.112  1.00  0.00     0.071 A 
HETATM   48  S3  UNL     1       1.064  26.373  24.379  1.00  0.00    -0.049 SA
HETATM   49  C22 UNL     1       2.366  27.418  24.083  1.00  0.00     0.146 A 
BRANCH  47  50
HETATM   50  C21 UNL     1       0.577  24.055  22.801  1.00  0.00     0.129 C 
HETATM   51  N7  UNL     1      -0.442  24.186  22.037  1.00  0.00    -0.387 N 
ATOM     52  H72 UNL     1      -0.691  25.101  21.660  1.00  0.00     0.157 HD
ATOM     53  H71 UNL     1      -1.000  23.360  21.820  1.00  0.00     0.157 HD
HETATM   54  N8  UNL     1       0.918  22.803  23.317  1.00  0.00    -0.082 NA
ENDBRANCH  47  50
BRANCH  49  55
HETATM   55  N9  UNL     1       2.605  28.474  24.784  1.00  0.00    -0.379 N 
ATOM     56  H92 UNL     1       2.300  28.590  25.750  1.00  0.00     0.158 HD
ATOM     57  H91 UNL     1       3.100  29.338  24.563  1.00  0.00     0.158 HD
ENDBRANCH  49  55
ENDBRANCH   7  44
TORSDOF 17
ENDMDL
MODEL 2
REMARK VINA RESULT: -8.133162233      1.512      1.854
REMARK  17 active torsions:
REMARK  status: ('A' for Active; 'I' for Inactive)
REMARK    1  A    between atoms: O1_2  and  C2_3 
REMARK    2  A    between atoms: C2_3  and  C3_5 
REMARK    3  A    between atoms: C4_6  and  C5_7 
REMARK    4  A    between atoms: C5_7  and  S1_8 
REMARK    5  A    between atoms: S1_8  and  C6_9 
REMARK    6  A    between atoms: N4_16  and  C7_17 
REMARK    7  A    between atoms: C7_17  and  C8_18 
REMARK    8  A    between atoms: C8_18  and  C9_19 
REMARK    9  A    between atoms: C9_19  and  N5_20 
REMARK   10  A    between atoms: C16_28  and  O3_29 
REMARK   11  A    between atoms: C17_31  and  N6_32 
REMARK   12  A    between atoms: C20_35  and  C21_36 
REMARK   13  A    between atoms: C22_42  and  N9_43 
REMARK   14  A    between atoms: C23_46  and  O4_47 
REMARK   15  A    between atoms: C24_49  and  C25_50 
REMARK       I    between atoms: C25_50  and  N10_52 
REMARK   16  A    between atoms: N10_52  and  N11_54 
REMARK   17  A    between atoms: N11_54  and  N12_55 
ROOT
HETATM    1  C3  UNL     1       8.684  28.384  23.111  1.00  0.00     0.043 C 
HETATM    2  C4  UNL     1       9.358  29.469  23.242  1.00  0.00    -0.047 C 
HETATM    3  C14 UNL     1       9.199  30.743  22.404  1.00  0.00     0.110 C 
HETATM    4  S2  UNL     1       8.139  30.538  21.024  1.00  0.00    -0.155 SA
HETATM    5  C15 UNL     1       7.211  29.043  21.123  1.00  0.00     0.103 C 
HETATM    6  C16 UNL     1       5.706  29.366  21.423  1.00  0.00     0.159 C 
HETATM    7  C17 UNL     1       5.299  27.993  21.770  1.00  0.00     0.152 C 
HETATM    8  C23 UNL     1       6.346  27.560  22.751  1.00  0.00     0.168 C 
HETATM    9  C24 UNL     1       7.617  28.059  22.110  1.00  0.00     0.118 C 
ENDROOT
BRANCH   2  10
HETATM   10  C5  UNL     1      10.440  29.745  24.235  1.00  0.00     0.118 C 
BRANCH  10  11
HETATM   11  S1  UNL     1      12.069  29.731  23.389  1.00  0.00    -0.087 SA
BRANCH  11  12
HETATM   12  C6  UNL     1      12.302  28.066  22.764  1.00  0.00     0.178 A 
HETATM   13  N1  UNL     1      11.816  27.524  21.612  1.00  0.00    -0.263 N 
HETATM   14  N2  UNL     1      12.204  26.281  21.484  1.00  0.00    -0.226 N 
ATOM     15  H1  UNL     1      11.229  28.021  20.940  1.00  0.00     0.190 HD
HETATM   16  N3  UNL     1      12.936  26.006  22.538  1.00  0.00    -0.224 N 
ATOM     17  H2  UNL     1      11.982  25.648  20.714  1.00  0.00     0.210 HD
HETATM   18  N4  UNL     1      13.012  27.063  23.326  1.00  0.00    -0.254 N 
ATOM     19  H3  UNL     1      13.382  25.107  22.722  1.00  0.00     0.210 HD
BRANCH  18  20
HETATM   20  C7  UNL     1      13.741  27.126  24.575  1.00  0.00     0.154 C 
BRANCH  20  21
HETATM   21  C8  UNL     1      15.107  27.773  24.422  1.00  0.00     0.052 C 
BRANCH  21  22
HETATM   22  C9  UNL     1      15.216  28.966  25.342  1.00  0.00     0.274 C 
BRANCH  22  23
HETATM   23  N5  UNL     1      16.598  29.436  25.366  1.00  0.00     0.088 N 
HETATM   24  C10 UNL     1      16.615  30.883  25.284  1.00  0.00     0.272 C 
HETATM   25  C11 UNL     1      17.043  31.230  23.883  1.00  0.00     0.032 C 
HETATM   26  C12 UNL     1      18.036  30.114  23.585  1.00  0.00     0.032 C 
HETATM   27  C13 UNL     1      17.376  28.938  24.273  1.00  0.00     0.272 C 
ENDBRANCH  22  23
ENDBRANCH  21  22
ENDBRANCH  20  21
ENDBRANCH  18  20
ENDBRANCH  11  12
ENDBRANCH  10  11
ENDBRANCH   2  10
BRANCH   1  28
HETATM   28  C2  UNL     1       8.925  27.232  23.978  1.00  0.00     0.290 C 
HETATM   29  O2  UNL     1       8.417  27.105  25.139  1.00  0.00    -0.260 OA
BRANCH  28  30
HETATM   30  O1  UNL     1       9.733  26.181  23.600  1.00  0.00    -0.323 OA
HETATM   31  C1  UNL     1       9.992  25.091  24.483  1.00  0.00     0.213 C 
ENDBRANCH  28  30
ENDBRANCH   1  28
BRANCH   9  32
HETATM   32  C25 UNL     1       8.231  26.900  21.330  1.00  0.00     0.252 C 
HETATM   33  O5  UNL     1       9.234  27.075  20.624  1.00  0.00    -0.271 OA
HETATM   34  N10 UNL     1       7.650  25.614  21.414  1.00  0.00    -0.253 N 
ATOM     35  H10 UNL     1       6.824  25.495  21.999  1.00  0.00     0.187 HD
BRANCH  34  36
HETATM   36  N11 UNL     1       8.138  24.513  20.748  1.00  0.00    -0.027 NA
BRANCH  36  37
HETATM   37  N12 UNL     1       8.246  24.775  19.374  1.00  0.00    -0.329 N 
ATOM     38 2H12 UNL     1       7.585  24.433  18.676  1.00  0.00     0.174 HD
ATOM     39 1H12 UNL     1       9.069  25.346  19.182  1.00  0.00     0.174 HD
ENDBRANCH  36  37
ENDBRANCH  34  36
ENDBRANCH   9  32
BRANCH   8  40
HETATM   40  O4  UNL     1       6.251  28.182  23.986  1.00  0.00    -0.392 OA
ATOM     41  H4  UNL     1       6.658  29.039  24.019  1.00  0.00     0.210 HD
ENDBRANCH   8  40
BRANCH   6  42
HETATM   42  O3  UNL     1       5.115  29.905  20.287  1.00  0.00    -0.392 OA
ATOM     43  H3  UNL     1       5.763  30.402  19.800  1.00  0.00     0.210 HD
ENDBRANCH   6  42
BRANCH   7  44
HETATM   44  N6  UNL     1       3.919  27.778  22.161  1.00  0.00    -0.321 N 
HETATM   45  C18 UNL     1       3.260  26.673  21.833  1.00  0.00     0.031 A 
HETATM   46  C19 UNL     1       3.846  25.491  21.065  1.00  0.00     0.070 C 
HETATM   47  C20 UNL     1       1.953  26.562  22.219  1.00  0.00     0.071 A 
HETATM   48  S3  UNL     1       1.701  28.059  23.050  1.00  0.00    -0.049 SA
HETATM   49  C22 UNL     1       3.256  28.704  22.847  1.00  0.00     0.146 A 
BRANCH  47  50
HETATM   50  C21 UNL     1       0.957  25.514  22.015  1.00  0.00     0.129 C 
HETATM   51  N7  UNL     1       0.196  25.581  20.987  1.00  0.00    -0.387 N 
ATOM     52  H72 UNL     1       0.284  26.356  20.330  1.00  0.00     0.157 HD
ATOM     53  H71 UNL     1      -0.499  24.849  20.845  1.00  0.00     0.157 HD
HETATM   54  N8  UNL     1       0.838  24.453  22.915  1.00  0.00    -0.082 NA
ENDBRANCH  47  50
BRANCH  49  55
HETATM   55  N9  UNL     1       3.614  29.855  23.305  1.00  0.00    -0.379 N 
ATOM     56  H92 UNL     1       3.557  30.719  22.765  1.00  0.00     0.158 HD
ATOM     57  H91 UNL     1       3.990  30.139  24.210  1.00  0.00     0.158 HD
ENDBRANCH  49  55
ENDBRANCH   7  44
TORSDOF 17
ENDMDL
MODEL 3
REMARK VINA RESULT: -8.104595628      6.684     10.597
REMARK  17 active torsions:
REMARK  status: ('A' for Active; 'I' for Inactive)
REMARK    1  A    between atoms: O1_2  and  C2_3 
REMARK    2  A    between atoms: C2_3  and  C3_5 
REMARK    3  A    between atoms: C4_6  and  C5_7 
REMARK    4  A    between atoms: C5_7  and  S1_8 
REMARK    5  A    between atoms: S1_8  and  C6_9 
REMARK    6  A    between atoms: N4_16  and  C7_17 
REMARK    7  A    between atoms: C7_17  and  C8_18 
REMARK    8  A    between atoms: C8_18  and  C9_19 
REMARK    9  A    between atoms: C9_19  and  N5_20 
REMARK   10  A    between atoms: C16_28  and  O3_29 
REMARK   11  A    between atoms: C17_31  and  N6_32 
REMARK   12  A    between atoms: C20_35  and  C21_36 
REMARK   13  A    between atoms: C22_42  and  N9_43 
REMARK   14  A    between atoms: C23_46  and  O4_47 
REMARK   15  A    between atoms: C24_49  and  C25_50 
REMARK       I    between atoms: C25_50  and  N10_52 
REMARK   16  A    between atoms: N10_52  and  N11_54 
REMARK   17  A    between atoms: N11_54  and  N12_55 
ROOT
HETATM    1  C3  UNL     1      12.780  31.705  24.621  1.00  0.00     0.043 C 
HETATM    2  C4  UNL     1      11.855  30.928  24.184  1.00  0.00    -0.047 C 
HETATM    3  C14 UNL     1      11.610  29.478  24.616  1.00  0.00     0.110 C 
HETATM    4  S2  UNL     1      12.882  28.831  25.631  1.00  0.00    -0.155 SA
HETATM    5  C15 UNL     1      13.954  30.096  26.229  1.00  0.00     0.103 C 
HETATM    6  C16 UNL     1      13.718  30.318  27.763  1.00  0.00     0.159 C 
HETATM    7  C17 UNL     1      14.460  31.586  27.872  1.00  0.00     0.152 C 
HETATM    8  C23 UNL     1      13.911  32.405  26.744  1.00  0.00     0.168 C 
HETATM    9  C24 UNL     1      13.862  31.407  25.614  1.00  0.00     0.118 C 
ENDROOT
BRANCH   2  10
HETATM   10  C5  UNL     1      10.809  31.254  23.167  1.00  0.00     0.118 C 
BRANCH  10  11
HETATM   11  S1  UNL     1      10.245  29.709  22.351  1.00  0.00    -0.087 SA
BRANCH  11  12
HETATM   12  C6  UNL     1      11.275  29.497  20.898  1.00  0.00     0.178 A 
HETATM   13  N1  UNL     1      11.504  30.388  19.892  1.00  0.00    -0.263 N 
HETATM   14  N2  UNL     1      12.324  29.884  19.004  1.00  0.00    -0.226 N 
ATOM     15  H1  UNL     1      11.093  31.320  19.839  1.00  0.00     0.190 HD
HETATM   16  N3  UNL     1      12.630  28.677  19.420  1.00  0.00    -0.224 N 
ATOM     17  H2  UNL     1      12.659  30.340  18.156  1.00  0.00     0.210 HD
HETATM   18  N4  UNL     1      12.012  28.418  20.558  1.00  0.00    -0.254 N 
ATOM     19  H3  UNL     1      13.254  28.033  18.934  1.00  0.00     0.210 HD
BRANCH  18  20
HETATM   20  C7  UNL     1      12.122  27.184  21.307  1.00  0.00     0.154 C 
BRANCH  20  21
HETATM   21  C8  UNL     1      13.305  27.182  22.259  1.00  0.00     0.052 C 
BRANCH  21  22
HETATM   22  C9  UNL     1      13.790  25.767  22.472  1.00  0.00     0.274 C 
BRANCH  22  23
HETATM   23  N5  UNL     1      15.241  25.770  22.637  1.00  0.00     0.088 N 
HETATM   24  C10 UNL     1      15.570  25.433  24.007  1.00  0.00     0.272 C 
HETATM   25  C11 UNL     1      15.988  26.715  24.677  1.00  0.00     0.032 C 
HETATM   26  C12 UNL     1      16.695  27.435  23.537  1.00  0.00     0.032 C 
HETATM   27  C13 UNL     1      15.831  27.043  22.357  1.00  0.00     0.272 C 
ENDBRANCH  22  23
ENDBRANCH  21  22
ENDBRANCH  20  21
ENDBRANCH  18  20
ENDBRANCH  11  12
ENDBRANCH  10  11
ENDBRANCH   2  10
BRANCH   1  28
HETATM   28  C2  UNL     1      12.911  33.077  24.134  1.00  0.00     0.290 C 
HETATM   29  O2  UNL     1      13.742  33.431  23.236  1.00  0.00    -0.260 OA
BRANCH  28  30
HETATM   30  O1  UNL     1      12.134  34.108  24.617  1.00  0.00    -0.323 OA
HETATM   31  C1  UNL     1      11.228  34.814  23.769  1.00  0.00     0.213 C 
ENDBRANCH  28  30
ENDBRANCH   1  28
BRANCH   9  32
HETATM   32  C25 UNL     1      15.132  31.580  24.785  1.00  0.00     0.252 C 
HETATM   33  O5  UNL     1      15.441  30.747  23.921  1.00  0.00    -0.271 OA
HETATM   34  N10 UNL     1      15.966  32.700  25.005  1.00  0.00    -0.253 N 
ATOM     35  H10 UNL     1      15.692  33.371  25.724  1.00  0.00     0.187 HD
BRANCH  34  36
HETATM   36  N11 UNL     1      17.126  32.937  24.305  1.00  0.00    -0.027 NA
BRANCH  36  37
HETATM   37  N12 UNL     1      16.847  33.158  22.948  1.00  0.00    -0.329 N 
ATOM     38 2H12 UNL     1      15.973  33.557  22.605  1.00  0.00     0.174 HD
ATOM     39 1H12 UNL     1      17.633  32.866  22.368  1.00  0.00     0.174 HD
ENDBRANCH  36  37
ENDBRANCH  34  36
ENDBRANCH   9  32
BRANCH   8  40
HETATM   40  O4  UNL     1      12.611  32.843  26.946  1.00  0.00    -0.392 OA
ATOM     41  H4  UNL     1      12.346  32.854  27.857  1.00  0.00     0.210 HD
ENDBRANCH   8  40
BRANCH   6  42
HETATM   42  O3  UNL     1      14.245  29.243  28.471  1.00  0.00    -0.392 OA
ATOM     43  H3  UNL     1      14.543  29.543  29.321  1.00  0.00     0.210 HD
ENDBRANCH   6  42
BRANCH   7  44
HETATM   44  N6  UNL     1      14.509  32.228  29.172  1.00  0.00    -0.321 N 
HETATM   45  C18 UNL     1      15.527  32.997  29.537  1.00  0.00     0.031 A 
HETATM   46  C19 UNL     1      16.729  33.345  28.663  1.00  0.00     0.070 C 
HETATM   47  C20 UNL     1      15.507  33.543  30.790  1.00  0.00     0.071 A 
HETATM   48  S3  UNL     1      14.014  32.934  31.418  1.00  0.00    -0.049 SA
HETATM   49  C22 UNL     1      13.535  32.042  30.058  1.00  0.00     0.146 A 
BRANCH  47  50
HETATM   50  C21 UNL     1      16.451  34.402  31.500  1.00  0.00     0.129 C 
HETATM   51  N7  UNL     1      17.192  33.884  32.406  1.00  0.00    -0.387 N 
ATOM     52  H72 UNL     1      17.117  32.891  32.628  1.00  0.00     0.157 HD
ATOM     53  H71 UNL     1      17.852  34.484  32.902  1.00  0.00     0.157 HD
HETATM   54  N8  UNL     1      16.553  35.761  31.195  1.00  0.00    -0.082 NA
ENDBRANCH  47  50
BRANCH  49  55
HETATM   55  N9  UNL     1      12.437  31.368  29.999  1.00  0.00    -0.379 N 
ATOM     56  H92 UNL     1      11.515  31.779  30.146  1.00  0.00     0.158 HD
ATOM     57  H91 UNL     1      12.254  30.383  29.809  1.00  0.00     0.158 HD
ENDBRANCH  49  55
ENDBRANCH   7  44
TORSDOF 17
ENDMDL
MODEL 4
REMARK VINA RESULT: -8.009284426      0.824      1.200
REMARK  17 active torsions:
REMARK  status: ('A' for Active; 'I' for Inactive)
REMARK    1  A    between atoms: O1_2  and  C2_3 
REMARK    2  A    between atoms: C2_3  and  C3_5 
REMARK    3  A    between atoms: C4_6  and  C5_7 
REMARK    4  A    between atoms: C5_7  and  S1_8 
REMARK    5  A    between atoms: S1_8  and  C6_9 
REMARK    6  A    between atoms: N4_16  and  C7_17 
REMARK    7  A    between atoms: C7_17  and  C8_18 
REMARK    8  A    between atoms: C8_18  and  C9_19 
REMARK    9  A    between atoms: C9_19  and  N5_20 
REMARK   10  A    between atoms: C16_28  and  O3_29 
REMARK   11  A    between atoms: C17_31  and  N6_32 
REMARK   12  A    between atoms: C20_35  and  C21_36 
REMARK   13  A    between atoms: C22_42  and  N9_43 
REMARK   14  A    between atoms: C23_46  and  O4_47 
REMARK   15  A    between atoms: C24_49  and  C25_50 
REMARK       I    between atoms: C25_50  and  N10_52 
REMARK   16  A    between atoms: N10_52  and  N11_54 
REMARK   17  A    between atoms: N11_54  and  N12_55 
ROOT
HETATM    1  C3  UNL     1       7.568  28.515  23.212  1.00  0.00     0.043 C 
HETATM    2  C4  UNL     1       8.032  29.674  23.514  1.00  0.00    -0.047 C 
HETATM    3  C14 UNL     1       7.418  31.025  23.129  1.00  0.00     0.110 C 
HETATM    4  S2  UNL     1       6.094  30.887  21.991  1.00  0.00    -0.155 SA
HETATM    5  C15 UNL     1       5.528  29.225  21.837  1.00  0.00     0.103 C 
HETATM    6  C16 UNL     1       4.121  29.074  22.512  1.00  0.00     0.159 C 
HETATM    7  C17 UNL     1       4.090  27.601  22.520  1.00  0.00     0.152 C 
HETATM    8  C23 UNL     1       5.419  27.231  23.104  1.00  0.00     0.168 C 
HETATM    9  C24 UNL     1       6.358  28.174  22.395  1.00  0.00     0.118 C 
ENDROOT
BRANCH   2  10
HETATM   10  C5  UNL     1       9.262  29.974  24.307  1.00  0.00     0.118 C 
BRANCH  10  11
HETATM   11  S1  UNL     1      10.602  30.522  23.178  1.00  0.00    -0.087 SA
BRANCH  11  12
HETATM   12  C6  UNL     1      10.945  29.139  22.088  1.00  0.00     0.178 A 
HETATM   13  N1  UNL     1      10.342  28.832  20.905  1.00  0.00    -0.263 N 
HETATM   14  N2  UNL     1      10.865  27.751  20.384  1.00  0.00    -0.226 N 
ATOM     15  H1  UNL     1       9.585  29.371  20.482  1.00  0.00     0.190 HD
HETATM   16  N3  UNL     1      11.801  27.351  21.214  1.00  0.00    -0.224 N 
ATOM     17  H2  UNL     1      10.599  27.306  19.505  1.00  0.00     0.210 HD
HETATM   18  N4  UNL     1      11.870  28.169  22.248  1.00  0.00    -0.254 N 
ATOM     19  H3  UNL     1      12.389  26.529  21.078  1.00  0.00     0.210 HD
BRANCH  18  20
HETATM   20  C7  UNL     1      12.792  28.040  23.357  1.00  0.00     0.154 C 
BRANCH  20  21
HETATM   21  C8  UNL     1      14.036  28.893  23.185  1.00  0.00     0.052 C 
BRANCH  21  22
HETATM   22  C9  UNL     1      14.422  29.512  24.508  1.00  0.00     0.274 C 
BRANCH  22  23
HETATM   23  N5  UNL     1      15.862  29.378  24.706  1.00  0.00     0.088 N 
HETATM   24  C10 UNL     1      16.359  28.281  23.900  1.00  0.00     0.272 C 
HETATM   25  C11 UNL     1      16.624  27.138  24.845  1.00  0.00     0.032 C 
HETATM   26  C12 UNL     1      17.105  27.878  26.086  1.00  0.00     0.032 C 
HETATM   27  C13 UNL     1      16.216  29.103  26.065  1.00  0.00     0.272 C 
ENDBRANCH  22  23
ENDBRANCH  21  22
ENDBRANCH  20  21
ENDBRANCH  18  20
ENDBRANCH  11  12
ENDBRANCH  10  11
ENDBRANCH   2  10
BRANCH   1  28
HETATM   28  C2  UNL     1       8.243  27.292  23.642  1.00  0.00     0.290 C 
HETATM   29  O2  UNL     1       9.078  26.656  22.921  1.00  0.00    -0.260 OA
BRANCH  28  30
HETATM   30  O1  UNL     1       8.022  26.724  24.878  1.00  0.00    -0.323 OA
HETATM   31  C1  UNL     1       8.945  26.905  25.952  1.00  0.00     0.213 C 
ENDBRANCH  28  30
ENDBRANCH   1  28
BRANCH   9  32
HETATM   32  C25 UNL     1       6.957  27.427  21.207  1.00  0.00     0.252 C 
HETATM   33  O5  UNL     1       7.636  28.027  20.361  1.00  0.00    -0.271 OA
HETATM   34  N10 UNL     1       6.737  26.037  21.068  1.00  0.00    -0.253 N 
ATOM     35  H10 UNL     1       6.173  25.567  21.776  1.00  0.00     0.187 HD
BRANCH  34  36
HETATM   36  N11 UNL     1       7.239  25.285  20.032  1.00  0.00    -0.027 NA
BRANCH  36  37
HETATM   37  N12 UNL     1       8.624  25.108  20.177  1.00  0.00    -0.329 N 
ATOM     38 2H12 UNL     1       9.320  25.775  19.845  1.00  0.00     0.174 HD
ATOM     39 1H12 UNL     1       8.824  24.229  20.655  1.00  0.00     0.174 HD
ENDBRANCH  36  37
ENDBRANCH  34  36
ENDBRANCH   9  32
BRANCH   8  40
HETATM   40  O4  UNL     1       5.534  27.499  24.460  1.00  0.00    -0.392 OA
ATOM     41  H4  UNL     1       5.752  26.739  24.986  1.00  0.00     0.210 HD
ENDBRANCH   8  40
BRANCH   6  42
HETATM   42  O3  UNL     1       3.161  29.697  21.723  1.00  0.00    -0.392 OA
ATOM     43  H3  UNL     1       2.596  29.038  21.336  1.00  0.00     0.210 HD
ENDBRANCH   6  42
BRANCH   7  44
HETATM   44  N6  UNL     1       2.927  26.956  23.101  1.00  0.00    -0.321 N 
HETATM   45  C18 UNL     1       2.451  25.811  22.628  1.00  0.00     0.031 A 
HETATM   46  C19 UNL     1       3.057  25.010  21.478  1.00  0.00     0.070 C 
HETATM   47  C20 UNL     1       1.335  25.283  23.216  1.00  0.00     0.071 A 
HETATM   48  S3  UNL     1       0.995  26.454  24.445  1.00  0.00    -0.049 SA
HETATM   49  C22 UNL     1       2.281  27.512  24.121  1.00  0.00     0.146 A 
BRANCH  47  50
HETATM   50  C21 UNL     1       0.559  24.077  22.941  1.00  0.00     0.129 C 
HETATM   51  N7  UNL     1       0.872  22.993  23.546  1.00  0.00    -0.387 N 
ATOM     52  H72 UNL     1       1.652  22.976  24.203  1.00  0.00     0.157 HD
ATOM     53  H71 UNL     1       0.329  22.151  23.354  1.00  0.00     0.157 HD
HETATM   54  N8  UNL     1      -0.510  24.102  22.042  1.00  0.00    -0.082 NA
ENDBRANCH  47  50
BRANCH  49  55
HETATM   55  N9  UNL     1       2.496  28.595  24.788  1.00  0.00    -0.379 N 
ATOM     56  H92 UNL     1       2.489  29.525  24.369  1.00  0.00     0.158 HD
ATOM     57  H91 UNL     1       2.697  28.756  25.774  1.00  0.00     0.158 HD
ENDBRANCH  49  55
ENDBRANCH   7  44
TORSDOF 17
ENDMDL
MODEL 5
REMARK VINA RESULT: -7.922489415      3.680      9.282
REMARK  17 active torsions:
REMARK  status: ('A' for Active; 'I' for Inactive)
REMARK    1  A    between atoms: O1_2  and  C2_3 
REMARK    2  A    between atoms: C2_3  and  C3_5 
REMARK    3  A    between atoms: C4_6  and  C5_7 
REMARK    4  A    between atoms: C5_7  and  S1_8 
REMARK    5  A    between atoms: S1_8  and  C6_9 
REMARK    6  A    between atoms: N4_16  and  C7_17 
REMARK    7  A    between atoms: C7_17  and  C8_18 
REMARK    8  A    between atoms: C8_18  and  C9_19 
REMARK    9  A    between atoms: C9_19  and  N5_20 
REMARK   10  A    between atoms: C16_28  and  O3_29 
REMARK   11  A    between atoms: C17_31  and  N6_32 
REMARK   12  A    between atoms: C20_35  and  C21_36 
REMARK   13  A    between atoms: C22_42  and  N9_43 
REMARK   14  A    between atoms: C23_46  and  O4_47 
REMARK   15  A    between atoms: C24_49  and  C25_50 
REMARK       I    between atoms: C25_50  and  N10_52 
REMARK   16  A    between atoms: N10_52  and  N11_54 
REMARK   17  A    between atoms: N11_54  and  N12_55 
ROOT
HETATM    1  C3  UNL     1      10.724  27.623  22.509  1.00  0.00     0.043 C 
HETATM    2  C4  UNL     1       9.568  27.144  22.219  1.00  0.00    -0.047 C 
HETATM    3  C14 UNL     1       8.570  26.523  23.204  1.00  0.00     0.110 C 
HETATM    4  S2  UNL     1       9.235  26.283  24.807  1.00  0.00    -0.155 SA
HETATM    5  C15 UNL     1      10.758  27.144  25.024  1.00  0.00     0.103 C 
HETATM    6  C16 UNL     1      10.551  28.363  25.988  1.00  0.00     0.159 C 
HETATM    7  C17 UNL     1      11.833  29.030  25.703  1.00  0.00     0.152 C 
HETATM    8  C23 UNL     1      11.882  29.057  24.206  1.00  0.00     0.168 C 
HETATM    9  C24 UNL     1      11.411  27.672  23.840  1.00  0.00     0.118 C 
ENDROOT
BRANCH   2  10
HETATM   10  C5  UNL     1       8.929  27.085  20.870  1.00  0.00     0.118 C 
BRANCH  10  11
HETATM   11  S1  UNL     1       7.555  25.867  20.894  1.00  0.00    -0.087 SA
BRANCH  11  12
HETATM   12  C6  UNL     1       6.121  26.706  20.218  1.00  0.00     0.178 A 
HETATM   13  N1  UNL     1       5.789  26.882  18.908  1.00  0.00    -0.263 N 
HETATM   14  N2  UNL     1       4.660  27.536  18.799  1.00  0.00    -0.226 N 
ATOM     15  H1  UNL     1       6.345  26.549  18.120  1.00  0.00     0.190 HD
HETATM   16  N3  UNL     1       4.254  27.788  20.021  1.00  0.00    -0.224 N 
ATOM     17  H2  UNL     1       4.188  27.798  17.933  1.00  0.00     0.210 HD
HETATM   18  N4  UNL     1       5.115  27.300  20.896  1.00  0.00    -0.254 N 
ATOM     19  H3  UNL     1       3.398  28.288  20.261  1.00  0.00     0.210 HD
BRANCH  18  20
HETATM   20  C7  UNL     1       4.986  27.386  22.335  1.00  0.00     0.154 C 
BRANCH  20  21
HETATM   21  C8  UNL     1       5.735  28.572  22.918  1.00  0.00     0.052 C 
BRANCH  21  22
HETATM   22  C9  UNL     1       5.012  29.854  22.580  1.00  0.00     0.274 C 
BRANCH  22  23
HETATM   23  N5  UNL     1       5.973  30.841  22.095  1.00  0.00     0.088 N 
HETATM   24  C10 UNL     1       5.728  31.102  20.691  1.00  0.00     0.272 C 
HETATM   25  C11 UNL     1       6.816  30.397  19.926  1.00  0.00     0.032 C 
HETATM   26  C12 UNL     1       8.001  30.558  20.869  1.00  0.00     0.032 C 
HETATM   27  C13 UNL     1       7.330  30.404  22.217  1.00  0.00     0.272 C 
ENDBRANCH  22  23
ENDBRANCH  21  22
ENDBRANCH  20  21
ENDBRANCH  18  20
ENDBRANCH  11  12
ENDBRANCH  10  11
ENDBRANCH   2  10
BRANCH   1  28
HETATM   28  C2  UNL     1      11.588  28.195  21.478  1.00  0.00     0.290 C 
HETATM   29  O2  UNL     1      12.553  27.565  20.937  1.00  0.00    -0.260 OA
BRANCH  28  30
HETATM   30  O1  UNL     1      11.422  29.481  21.008  1.00  0.00    -0.323 OA
HETATM   31  C1  UNL     1      12.413  30.104  20.193  1.00  0.00     0.213 C 
ENDBRANCH  28  30
ENDBRANCH   1  28
BRANCH   9  32
HETATM   32  C25 UNL     1      12.645  26.805  23.612  1.00  0.00     0.252 C 
HETATM   33  O5  UNL     1      12.537  25.582  23.446  1.00  0.00    -0.271 OA
HETATM   34  N10 UNL     1      13.927  27.403  23.588  1.00  0.00    -0.253 N 
ATOM     35  H10 UNL     1      13.990  28.411  23.728  1.00  0.00     0.187 HD
BRANCH  34  36
HETATM   36  N11 UNL     1      15.092  26.701  23.386  1.00  0.00    -0.027 NA
BRANCH  36  37
HETATM   37  N12 UNL     1      15.184  26.269  22.054  1.00  0.00    -0.329 N 
ATOM     38 2H12 UNL     1      14.761  26.761  21.267  1.00  0.00     0.174 HD
ATOM     39 1H12 UNL     1      15.725  25.407  21.993  1.00  0.00     0.174 HD
ENDBRANCH  36  37
ENDBRANCH  34  36
ENDBRANCH   9  32
BRANCH   8  40
HETATM   40  O4  UNL     1      10.989  29.947  23.629  1.00  0.00    -0.392 OA
ATOM     41  H4  UNL     1      10.855  29.811  22.699  1.00  0.00     0.210 HD
ENDBRANCH   8  40
BRANCH   6  42
HETATM   42  O3  UNL     1      10.384  27.899  27.288  1.00  0.00    -0.392 OA
ATOM     43  H3  UNL     1      11.102  28.210  27.827  1.00  0.00     0.210 HD
ENDBRANCH   6  42
BRANCH   7  44
HETATM   44  N6  UNL     1      12.106  30.283  26.381  1.00  0.00    -0.321 N 
HETATM   45  C18 UNL     1      13.259  30.510  26.999  1.00  0.00     0.031 A 
HETATM   46  C19 UNL     1      14.439  29.544  27.047  1.00  0.00     0.070 C 
HETATM   47  C20 UNL     1      13.424  31.708  27.636  1.00  0.00     0.071 A 
HETATM   48  S3  UNL     1      11.909  32.485  27.330  1.00  0.00    -0.049 SA
HETATM   49  C22 UNL     1      11.189  31.244  26.427  1.00  0.00     0.146 A 
BRANCH  47  50
HETATM   50  C21 UNL     1      14.534  32.262  28.407  1.00  0.00     0.129 C 
HETATM   51  N7  UNL     1      14.474  32.223  29.686  1.00  0.00    -0.387 N 
ATOM     52  H72 UNL     1      13.663  31.816  30.152  1.00  0.00     0.157 HD
ATOM     53  H71 UNL     1      15.249  32.609  30.225  1.00  0.00     0.157 HD
HETATM   54  N8  UNL     1      15.644  32.818  27.769  1.00  0.00    -0.082 NA
ENDBRANCH  47  50
BRANCH  49  55
HETATM   55  N9  UNL     1      10.000  31.322  25.931  1.00  0.00    -0.379 N 
ATOM     56  H92 UNL     1       9.617  30.639  25.277  1.00  0.00     0.158 HD
ATOM     57  H91 UNL     1       9.252  32.002  26.064  1.00  0.00     0.158 HD
ENDBRANCH  49  55
ENDBRANCH   7  44
TORSDOF 17
ENDMDL
