MODEL 1
REMARK VINA RESULT: -9.214470307      0.000      0.000
REMARK  14 active torsions:
REMARK  status: ('A' for Active; 'I' for Inactive)
REMARK    1  A    between atoms: C3_3  and  N1_4 
REMARK       I    between atoms: N1_4  and  C4_6 
REMARK    2  A    between atoms: C4_6  and  C5_8 
REMARK    3  A    between atoms: C7_14  and  C8_15 
REMARK    4  A    between atoms: C9_19  and  N5_20 
REMARK    5  A    between atoms: C10_23  and  N7_24 
REMARK    6  A    between atoms: C16_32  and  C17_33 
REMARK    7  A    between atoms: C17_33  and  C18_34 
REMARK    8  A    between atoms: C18_34  and  C19_35 
REMARK    9  A    between atoms: C19_35  and  S1_36 
REMARK   10  A    between atoms: S1_36  and  C20_37 
REMARK   11  A    between atoms: N12_44  and  C21_45 
REMARK   12  A    between atoms: C22_48  and  N14_49 
REMARK   13  A    between atoms: C23_54  and  N16_55 
REMARK   14  A    between atoms: C25_61  and  O4_62 
ROOT
HETATM    1  C1  UNL     1      12.806  31.897  21.770  1.00  0.00     0.017 C 
HETATM    2  C2  UNL     1      12.420  31.632  22.877  1.00  0.00    -0.054 C 
HETATM    3  C3  UNL     1      11.934  31.328  24.244  1.00  0.00     0.231 C 
HETATM    4  O3  UNL     1      13.070  31.043  24.992  1.00  0.00    -0.321 OA
HETATM    5  C9  UNL     1      13.486  32.266  25.417  1.00  0.00     0.253 C 
HETATM    6  C24 UNL     1      12.238  32.907  25.948  1.00  0.00     0.093 C 
HETATM    7  C25 UNL     1      11.231  32.479  24.876  1.00  0.00     0.191 C 
ENDROOT
BRANCH   3   8
HETATM    8  N1  UNL     1      11.022  30.191  24.209  1.00  0.00    -0.311 N 
HETATM    9  C4  UNL     1      10.784  29.465  25.374  1.00  0.00     0.273 C 
HETATM   10  O1  UNL     1      11.404  29.899  26.426  1.00  0.00    -0.266 OA
ATOM     11  H1  UNL     1      10.562  29.929  23.337  1.00  0.00     0.167 HD
BRANCH   9  12
HETATM   12  C5  UNL     1       9.938  28.309  25.558  1.00  0.00     0.132 A 
HETATM   13  N2  UNL     1       9.098  28.203  26.645  1.00  0.00    -0.295 N 
HETATM   14  N3  UNL     1       8.446  27.068  26.610  1.00  0.00    -0.310 N 
ATOM     15  H2  UNL     1       9.000  28.909  27.374  1.00  0.00     0.187 HD
HETATM   16  C6  UNL     1       8.817  26.390  25.523  1.00  0.00     0.126 A 
ATOM     17  H3  UNL     1       7.764  26.754  27.301  1.00  0.00     0.186 HD
HETATM   18  C7  UNL     1       9.765  27.171  24.855  1.00  0.00     0.079 A 
BRANCH  18  19
HETATM   19  C8  UNL     1      10.450  26.688  23.694  1.00  0.00     0.268 C 
HETATM   20  N4  UNL     1      10.423  27.300  22.427  1.00  0.00    -0.057 NA
HETATM   21  O2  UNL     1      11.156  25.628  23.767  1.00  0.00    -0.271 OA
ENDBRANCH  18  19
ENDBRANCH   9  12
ENDBRANCH   3   8
BRANCH   7  22
HETATM   22  O4  UNL     1      11.196  33.520  23.943  1.00  0.00    -0.389 OA
ATOM     23  H4  UNL     1      10.338  33.927  23.996  1.00  0.00     0.210 HD
ENDBRANCH   7  22
BRANCH   5  24
HETATM   24  N5  UNL     1      14.597  32.289  26.330  1.00  0.00    -0.236 N 
HETATM   25  N6  UNL     1      14.406  32.271  27.640  1.00  0.00    -0.126 N 
HETATM   26  C10 UNL     1      15.575  32.297  28.294  1.00  0.00     0.696 A 
ATOM     27  H6  UNL     1      13.492  32.242  28.092  1.00  0.00     0.206 HD
HETATM   28  N8  UNL     1      16.504  32.332  27.335  1.00  0.00    -0.178 N 
HETATM   29  C16 UNL     1      15.904  32.328  26.139  1.00  0.00     0.117 A 
ATOM     30  H8  UNL     1      17.512  32.359  27.490  1.00  0.00     0.185 HD
BRANCH  26  31
HETATM   31  N7  UNL     1      15.731  32.288  29.706  1.00  0.00    -0.216 N 
HETATM   32  C11 UNL     1      16.237  33.480  30.331  1.00  0.00     0.141 C 
HETATM   33  C12 UNL     1      16.395  33.400  31.799  1.00  0.00     0.020 C 
HETATM   34  C13 UNL     1      15.700  32.279  32.480  1.00  0.00     0.003 C 
HETATM   35  C14 UNL     1      16.035  30.989  31.762  1.00  0.00     0.020 C 
HETATM   36  C15 UNL     1      15.366  31.071  30.401  1.00  0.00     0.141 C 
ENDBRANCH  26  31
BRANCH  29  37
HETATM   37  C17 UNL     1      16.598  32.360  24.846  1.00  0.00     0.080 C 
BRANCH  37  38
HETATM   38  C18 UNL     1      16.377  31.103  24.014  1.00  0.00     0.018 C 
BRANCH  38  39
HETATM   39  C19 UNL     1      17.622  30.256  23.945  1.00  0.00     0.083 C 
BRANCH  39  40
HETATM   40  S1  UNL     1      17.172  28.563  24.416  1.00  0.00    -0.090 SA
BRANCH  40  41
HETATM   41  C20 UNL     1      15.751  28.598  25.508  1.00  0.00     0.201 A 
HETATM   42  N9  UNL     1      15.693  29.030  26.773  1.00  0.00    -0.262 N 
HETATM   43  N10 UNL     1      14.472  28.888  27.230  1.00  0.00    -0.225 N 
ATOM     44  H9  UNL     1      16.478  29.412  27.300  1.00  0.00     0.190 HD
HETATM   45  N11 UNL     1      13.742  28.368  26.266  1.00  0.00    -0.205 N 
ATOM     46  H10 UNL     1      14.147  29.136  28.164  1.00  0.00     0.210 HD
HETATM   47  N12 UNL     1      14.506  28.185  25.213  1.00  0.00    -0.045 N 
ATOM     48  H11 UNL     1      12.749  28.144  26.325  1.00  0.00     0.211 HD
BRANCH  47  49
HETATM   49  C21 UNL     1      14.132  27.646  23.951  1.00  0.00     0.736 A 
HETATM   50  N13 UNL     1      13.687  28.414  22.942  1.00  0.00    -0.020 N 
HETATM   51  C22 UNL     1      13.334  27.894  21.746  1.00  0.00     0.705 A 
ATOM     52  H13 UNL     1      13.613  29.421  23.083  1.00  0.00     0.203 HD
HETATM   53  N15 UNL     1      13.437  26.559  21.575  1.00  0.00    -0.022 N 
HETATM   54  C23 UNL     1      13.879  25.774  22.568  1.00  0.00     0.705 A 
ATOM     55  H15 UNL     1      13.176  26.143  20.681  1.00  0.00     0.203 HD
HETATM   56  N17 UNL     1      14.229  26.323  23.764  1.00  0.00    -0.020 N 
ATOM     57  H17 UNL     1      14.565  25.725  24.518  1.00  0.00     0.203 HD
BRANCH  51  58
HETATM   58  N14 UNL     1      12.909  28.643  20.788  1.00  0.00    -0.234 N 
ATOM     59 2H14 UNL     1      12.913  29.658  20.885  1.00  0.00     0.174 HD
ATOM     60 1H14 UNL     1      12.560  28.245  19.915  1.00  0.00     0.174 HD
ENDBRANCH  51  58
BRANCH  54  61
HETATM   61  N16 UNL     1      13.975  24.510  22.400  1.00  0.00    -0.234 N 
ATOM     62 2H16 UNL     1      13.413  24.052  21.682  1.00  0.00     0.174 HD
ATOM     63 1H16 UNL     1      14.609  23.959  22.979  1.00  0.00     0.174 HD
ENDBRANCH  54  61
ENDBRANCH  47  49
ENDBRANCH  40  41
ENDBRANCH  39  40
ENDBRANCH  38  39
ENDBRANCH  37  38
ENDBRANCH  29  37
ENDBRANCH   5  24
TORSDOF 14
ENDMDL
MODEL 2
REMARK VINA RESULT: -9.088149931      2.454      4.737
REMARK  14 active torsions:
REMARK  status: ('A' for Active; 'I' for Inactive)
REMARK    1  A    between atoms: C3_3  and  N1_4 
REMARK       I    between atoms: N1_4  and  C4_6 
REMARK    2  A    between atoms: C4_6  and  C5_8 
REMARK    3  A    between atoms: C7_14  and  C8_15 
REMARK    4  A    between atoms: C9_19  and  N5_20 
REMARK    5  A    between atoms: C10_23  and  N7_24 
REMARK    6  A    between atoms: C16_32  and  C17_33 
REMARK    7  A    between atoms: C17_33  and  C18_34 
REMARK    8  A    between atoms: C18_34  and  C19_35 
REMARK    9  A    between atoms: C19_35  and  S1_36 
REMARK   10  A    between atoms: S1_36  and  C20_37 
REMARK   11  A    between atoms: N12_44  and  C21_45 
REMARK   12  A    between atoms: C22_48  and  N14_49 
REMARK   13  A    between atoms: C23_54  and  N16_55 
REMARK   14  A    between atoms: C25_61  and  O4_62 
ROOT
HETATM    1  C1  UNL     1      17.090  27.980  24.304  1.00  0.00     0.017 C 
HETATM    2  C2  UNL     1      16.295  28.865  24.128  1.00  0.00    -0.054 C 
HETATM    3  C3  UNL     1      15.334  29.972  23.907  1.00  0.00     0.231 C 
HETATM    4  O3  UNL     1      14.665  30.136  25.114  1.00  0.00    -0.321 OA
HETATM    5  C9  UNL     1      15.470  30.980  25.813  1.00  0.00     0.253 C 
HETATM    6  C24 UNL     1      15.774  32.077  24.836  1.00  0.00     0.093 C 
HETATM    7  C25 UNL     1      16.004  31.257  23.563  1.00  0.00     0.191 C 
ENDROOT
BRANCH   3   8
HETATM    8  N1  UNL     1      14.413  29.626  22.831  1.00  0.00    -0.311 N 
HETATM    9  C4  UNL     1      13.620  28.487  22.947  1.00  0.00     0.273 C 
HETATM   10  O1  UNL     1      13.766  27.827  24.053  1.00  0.00    -0.266 OA
ATOM     11  H1  UNL     1      14.350  30.214  22.000  1.00  0.00     0.167 HD
BRANCH   9  12
HETATM   12  C5  UNL     1      12.661  27.958  22.005  1.00  0.00     0.132 A 
HETATM   13  N2  UNL     1      11.988  26.782  22.256  1.00  0.00    -0.295 N 
HETATM   14  N3  UNL     1      11.188  26.492  21.260  1.00  0.00    -0.310 N 
ATOM     15  H2  UNL     1      12.097  26.217  23.097  1.00  0.00     0.187 HD
HETATM   16  C6  UNL     1      11.295  27.443  20.329  1.00  0.00     0.126 A 
ATOM     17  H3  UNL     1      10.581  25.674  21.204  1.00  0.00     0.186 HD
HETATM   18  C7  UNL     1      12.230  28.371  20.796  1.00  0.00     0.079 A 
BRANCH  18  19
HETATM   19  C8  UNL     1      12.660  29.473  19.988  1.00  0.00     0.268 C 
HETATM   20  N4  UNL     1      12.674  30.818  20.399  1.00  0.00    -0.057 NA
HETATM   21  O2  UNL     1      13.077  29.265  18.801  1.00  0.00    -0.271 OA
ENDBRANCH  18  19
ENDBRANCH   9  12
ENDBRANCH   3   8
BRANCH   7  22
HETATM   22  O4  UNL     1      17.379  31.018  23.502  1.00  0.00    -0.389 OA
ATOM     23  H4  UNL     1      17.736  31.150  24.373  1.00  0.00     0.210 HD
ENDBRANCH   7  22
BRANCH   5  24
HETATM   24  N5  UNL     1      14.976  31.439  27.084  1.00  0.00    -0.236 N 
HETATM   25  N6  UNL     1      15.700  31.312  28.185  1.00  0.00    -0.126 N 
HETATM   26  C10 UNL     1      15.048  31.807  29.245  1.00  0.00     0.696 A 
ATOM     27  H6  UNL     1      16.629  30.893  28.222  1.00  0.00     0.206 HD
HETATM   28  N8  UNL     1      13.885  32.248  28.758  1.00  0.00    -0.178 N 
HETATM   29  C16 UNL     1      13.845  32.022  27.440  1.00  0.00     0.117 A 
ATOM     30  H8  UNL     1      13.145  32.687  29.305  1.00  0.00     0.185 HD
BRANCH  26  31
HETATM   31  N7  UNL     1      15.538  31.829  30.579  1.00  0.00    -0.216 N 
HETATM   32  C11 UNL     1      15.215  30.715  31.429  1.00  0.00     0.141 C 
HETATM   33  C12 UNL     1      15.736  30.807  32.810  1.00  0.00     0.020 C 
HETATM   34  C13 UNL     1      16.798  31.816  33.050  1.00  0.00     0.003 C 
HETATM   35  C14 UNL     1      16.348  33.145  32.482  1.00  0.00     0.020 C 
HETATM   36  C15 UNL     1      16.326  32.978  30.972  1.00  0.00     0.141 C 
ENDBRANCH  26  31
BRANCH  29  37
HETATM   37  C17 UNL     1      12.726  32.371  26.557  1.00  0.00     0.080 C 
BRANCH  37  38
HETATM   38  C18 UNL     1      11.435  32.666  27.311  1.00  0.00     0.018 C 
BRANCH  38  39
HETATM   39  C19 UNL     1      10.244  32.023  26.648  1.00  0.00     0.083 C 
BRANCH  39  40
HETATM   40  S1  UNL     1      10.824  31.184  25.149  1.00  0.00    -0.090 SA
BRANCH  40  41
HETATM   41  C20 UNL     1      11.088  29.444  25.496  1.00  0.00     0.201 A 
HETATM   42  N9  UNL     1      12.015  28.892  26.286  1.00  0.00    -0.262 N 
HETATM   43  N10 UNL     1      11.881  27.588  26.276  1.00  0.00    -0.225 N 
ATOM     44  H9  UNL     1      12.719  29.407  26.816  1.00  0.00     0.190 HD
HETATM   45  N11 UNL     1      10.870  27.296  25.484  1.00  0.00    -0.205 N 
ATOM     46  H10 UNL     1      12.456  26.920  26.789  1.00  0.00     0.210 HD
HETATM   47  N12 UNL     1      10.379  28.415  25.002  1.00  0.00    -0.045 N 
ATOM     48  H11 UNL     1      10.526  26.358  25.279  1.00  0.00     0.211 HD
BRANCH  47  49
HETATM   49  C21 UNL     1       9.285  28.568  24.107  1.00  0.00     0.736 A 
HETATM   50  N13 UNL     1       9.422  29.117  22.887  1.00  0.00    -0.020 N 
HETATM   51  C22 UNL     1       8.379  29.259  22.042  1.00  0.00     0.705 A 
ATOM     52  H13 UNL     1      10.344  29.435  22.591  1.00  0.00     0.203 HD
HETATM   53  N15 UNL     1       7.164  28.832  22.450  1.00  0.00    -0.022 N 
HETATM   54  C23 UNL     1       7.004  28.282  23.662  1.00  0.00     0.705 A 
ATOM     55  H15 UNL     1       6.360  28.929  21.829  1.00  0.00     0.203 HD
HETATM   56  N17 UNL     1       8.072  28.150  24.494  1.00  0.00    -0.020 N 
ATOM     57  H17 UNL     1       7.950  27.731  25.416  1.00  0.00     0.203 HD
BRANCH  51  58
HETATM   58  N14 UNL     1       8.526  29.787  20.875  1.00  0.00    -0.234 N 
ATOM     59 2H14 UNL     1       9.080  29.313  20.161  1.00  0.00     0.174 HD
ATOM     60 1H14 UNL     1       8.099  30.682  20.638  1.00  0.00     0.174 HD
ENDBRANCH  51  58
BRANCH  54  61
HETATM   61  N16 UNL     1       5.852  27.880  24.042  1.00  0.00    -0.234 N 
ATOM     62 2H16 UNL     1       5.061  28.525  24.029  1.00  0.00     0.174 HD
ATOM     63 1H16 UNL     1       5.719  26.919  24.358  1.00  0.00     0.174 HD
ENDBRANCH  54  61
ENDBRANCH  47  49
ENDBRANCH  40  41
ENDBRANCH  39  40
ENDBRANCH  38  39
ENDBRANCH  37  38
ENDBRANCH  29  37
ENDBRANCH   5  24
TORSDOF 14
ENDMDL
MODEL 3
REMARK VINA RESULT: -9.028659363      2.408      5.079
REMARK  14 active torsions:
REMARK  status: ('A' for Active; 'I' for Inactive)
REMARK    1  A    between atoms: C3_3  and  N1_4 
REMARK       I    between atoms: N1_4  and  C4_6 
REMARK    2  A    between atoms: C4_6  and  C5_8 
REMARK    3  A    between atoms: C7_14  and  C8_15 
REMARK    4  A    between atoms: C9_19  and  N5_20 
REMARK    5  A    between atoms: C10_23  and  N7_24 
REMARK    6  A    between atoms: C16_32  and  C17_33 
REMARK    7  A    between atoms: C17_33  and  C18_34 
REMARK    8  A    between atoms: C18_34  and  C19_35 
REMARK    9  A    between atoms: C19_35  and  S1_36 
REMARK   10  A    between atoms: S1_36  and  C20_37 
REMARK   11  A    between atoms: N12_44  and  C21_45 
REMARK   12  A    between atoms: C22_48  and  N14_49 
REMARK   13  A    between atoms: C23_54  and  N16_55 
REMARK   14  A    between atoms: C25_61  and  O4_62 
ROOT
HETATM    1  C1  UNL     1      16.997  27.530  24.326  1.00  0.00     0.017 C 
HETATM    2  C2  UNL     1      16.238  28.448  24.160  1.00  0.00    -0.054 C 
HETATM    3  C3  UNL     1      15.320  29.593  23.951  1.00  0.00     0.231 C 
HETATM    4  O3  UNL     1      14.619  29.735  25.143  1.00  0.00    -0.321 OA
HETATM    5  C9  UNL     1      15.429  30.526  25.896  1.00  0.00     0.253 C 
HETATM    6  C24 UNL     1      15.799  31.647  24.971  1.00  0.00     0.093 C 
HETATM    7  C25 UNL     1      16.041  30.867  23.675  1.00  0.00     0.191 C 
ENDROOT
BRANCH   3   8
HETATM    8  N1  UNL     1      14.422  29.317  22.836  1.00  0.00    -0.311 N 
HETATM    9  C4  UNL     1      13.483  28.295  22.948  1.00  0.00     0.273 C 
HETATM   10  O1  UNL     1      13.481  27.675  24.087  1.00  0.00    -0.266 OA
ATOM     11  H1  UNL     1      14.482  29.869  21.980  1.00  0.00     0.167 HD
BRANCH   9  12
HETATM   12  C5  UNL     1      12.516  27.849  21.972  1.00  0.00     0.132 A 
HETATM   13  N2  UNL     1      11.774  26.705  22.172  1.00  0.00    -0.295 N 
HETATM   14  N3  UNL     1      10.981  26.491  21.152  1.00  0.00    -0.310 N 
ATOM     15  H2  UNL     1      11.835  26.109  22.997  1.00  0.00     0.187 HD
HETATM   16  C6  UNL     1      11.160  27.462  20.255  1.00  0.00     0.126 A 
ATOM     17  H3  UNL     1      10.332  25.710  21.059  1.00  0.00     0.186 HD
HETATM   18  C7  UNL     1      12.134  28.322  20.769  1.00  0.00     0.079 A 
BRANCH  18  19
HETATM   19  C8  UNL     1      12.641  29.423  20.004  1.00  0.00     0.268 C 
HETATM   20  N4  UNL     1      12.656  30.763  20.432  1.00  0.00    -0.057 NA
HETATM   21  O2  UNL     1      13.130  29.219  18.844  1.00  0.00    -0.271 OA
ENDBRANCH  18  19
ENDBRANCH   9  12
ENDBRANCH   3   8
BRANCH   7  22
HETATM   22  O4  UNL     1      17.410  30.583  23.646  1.00  0.00    -0.389 OA
ATOM     23  H4  UNL     1      17.824  31.214  23.069  1.00  0.00     0.210 HD
ENDBRANCH   7  22
BRANCH   5  24
HETATM   24  N5  UNL     1      14.911  30.955  27.168  1.00  0.00    -0.236 N 
HETATM   25  N6  UNL     1      15.701  31.071  28.224  1.00  0.00    -0.126 N 
HETATM   26  C10 UNL     1      15.010  31.485  29.295  1.00  0.00     0.696 A 
ATOM     27  H6  UNL     1      16.701  30.871  28.223  1.00  0.00     0.206 HD
HETATM   28  N8  UNL     1      13.754  31.622  28.861  1.00  0.00    -0.178 N 
HETATM   29  C16 UNL     1      13.698  31.298  27.563  1.00  0.00     0.117 A 
ATOM     30  H8  UNL     1      12.963  31.925  29.429  1.00  0.00     0.185 HD
BRANCH  26  31
HETATM   31  N7  UNL     1      15.551  31.710  30.589  1.00  0.00    -0.216 N 
HETATM   32  C11 UNL     1      15.351  30.692  31.585  1.00  0.00     0.141 C 
HETATM   33  C12 UNL     1      15.919  30.996  32.915  1.00  0.00     0.020 C 
HETATM   34  C13 UNL     1      16.908  32.102  32.976  1.00  0.00     0.003 C 
HETATM   35  C14 UNL     1      16.332  33.312  32.272  1.00  0.00     0.020 C 
HETATM   36  C15 UNL     1      16.262  32.955  30.797  1.00  0.00     0.141 C 
ENDBRANCH  26  31
BRANCH  29  37
HETATM   37  C17 UNL     1      12.484  31.326  26.738  1.00  0.00     0.080 C 
BRANCH  37  38
HETATM   38  C18 UNL     1      12.359  32.590  25.897  1.00  0.00     0.018 C 
BRANCH  38  39
HETATM   39  C19 UNL     1      11.988  32.274  24.471  1.00  0.00     0.083 C 
BRANCH  39  40
HETATM   40  S1  UNL     1      10.185  32.106  24.386  1.00  0.00    -0.090 SA
BRANCH  40  41
HETATM   41  C20 UNL     1       9.732  31.197  22.908  1.00  0.00     0.201 A 
HETATM   42  N9  UNL     1       9.685  31.644  21.648  1.00  0.00    -0.262 N 
HETATM   43  N10 UNL     1       9.306  30.673  20.852  1.00  0.00    -0.225 N 
ATOM     44  H9  UNL     1       9.909  32.594  21.351  1.00  0.00     0.190 HD
HETATM   45  N11 UNL     1       9.110  29.602  21.593  1.00  0.00    -0.205 N 
ATOM     46  H10 UNL     1       9.185  30.736  19.841  1.00  0.00     0.210 HD
HETATM   47  N12 UNL     1       9.365  29.906  22.845  1.00  0.00    -0.045 N 
ATOM     48  H11 UNL     1       8.811  28.689  21.251  1.00  0.00     0.211 HD
BRANCH  47  49
HETATM   49  C21 UNL     1       9.282  29.053  23.980  1.00  0.00     0.736 A 
HETATM   50  N13 UNL     1       8.122  28.517  24.396  1.00  0.00    -0.020 N 
HETATM   51  C22 UNL     1       8.050  27.708  25.475  1.00  0.00     0.705 A 
ATOM     52  H13 UNL     1       7.268  28.728  23.880  1.00  0.00     0.203 HD
HETATM   53  N15 UNL     1       9.190  27.439  26.147  1.00  0.00    -0.022 N 
HETATM   54  C23 UNL     1      10.359  27.963  25.749  1.00  0.00     0.705 A 
ATOM     55  H15 UNL     1       9.162  26.831  26.966  1.00  0.00     0.203 HD
HETATM   56  N17 UNL     1      10.403  28.775  24.659  1.00  0.00    -0.020 N 
ATOM     57  H17 UNL     1      11.292  29.172  24.357  1.00  0.00     0.203 HD
BRANCH  51  58
HETATM   58  N14 UNL     1       6.930  27.201  25.862  1.00  0.00    -0.234 N 
ATOM     59 2H14 UNL     1       6.917  26.383  26.470  1.00  0.00     0.174 HD
ATOM     60 1H14 UNL     1       6.037  27.601  25.572  1.00  0.00     0.174 HD
ENDBRANCH  51  58
BRANCH  54  61
HETATM   61  N16 UNL     1      11.435  27.704  26.390  1.00  0.00    -0.234 N 
ATOM     62 2H16 UNL     1      11.447  26.943  27.070  1.00  0.00     0.174 HD
ATOM     63 1H16 UNL     1      12.278  28.253  26.225  1.00  0.00     0.174 HD
ENDBRANCH  54  61
ENDBRANCH  47  49
ENDBRANCH  40  41
ENDBRANCH  39  40
ENDBRANCH  38  39
ENDBRANCH  37  38
ENDBRANCH  29  37
ENDBRANCH   5  24
TORSDOF 14
ENDMDL
MODEL 4
REMARK VINA RESULT: -9.012467722      2.097      4.806
REMARK  14 active torsions:
REMARK  status: ('A' for Active; 'I' for Inactive)
REMARK    1  A    between atoms: C3_3  and  N1_4 
REMARK       I    between atoms: N1_4  and  C4_6 
REMARK    2  A    between atoms: C4_6  and  C5_8 
REMARK    3  A    between atoms: C7_14  and  C8_15 
REMARK    4  A    between atoms: C9_19  and  N5_20 
REMARK    5  A    between atoms: C10_23  and  N7_24 
REMARK    6  A    between atoms: C16_32  and  C17_33 
REMARK    7  A    between atoms: C17_33  and  C18_34 
REMARK    8  A    between atoms: C18_34  and  C19_35 
REMARK    9  A    between atoms: C19_35  and  S1_36 
REMARK   10  A    between atoms: S1_36  and  C20_37 
REMARK   11  A    between atoms: N12_44  and  C21_45 
REMARK   12  A    between atoms: C22_48  and  N14_49 
REMARK   13  A    between atoms: C23_54  and  N16_55 
REMARK   14  A    between atoms: C25_61  and  O4_62 
ROOT
HETATM    1  C1  UNL     1      17.450  31.432  23.718  1.00  0.00     0.017 C 
HETATM    2  C2  UNL     1      16.277  31.211  23.860  1.00  0.00    -0.054 C 
HETATM    3  C3  UNL     1      14.825  30.961  24.027  1.00  0.00     0.231 C 
HETATM    4  O3  UNL     1      14.634  30.751  25.387  1.00  0.00    -0.321 OA
HETATM    5  C9  UNL     1      14.470  32.007  25.883  1.00  0.00     0.253 C 
HETATM    6  C24 UNL     1      13.471  32.633  24.955  1.00  0.00     0.093 C 
HETATM    7  C25 UNL     1      13.988  32.120  23.608  1.00  0.00     0.191 C 
ENDROOT
BRANCH   3   8
HETATM    8  N1  UNL     1      14.427  29.794  23.248  1.00  0.00    -0.311 N 
HETATM    9  C4  UNL     1      14.778  28.521  23.691  1.00  0.00     0.273 C 
HETATM   10  O1  UNL     1      15.434  28.491  24.809  1.00  0.00    -0.266 OA
ATOM     11  H1  UNL     1      13.895  29.910  22.386  1.00  0.00     0.167 HD
BRANCH   9  12
HETATM   12  C5  UNL     1      14.501  27.245  23.074  1.00  0.00     0.132 A 
HETATM   13  N2  UNL     1      15.454  26.593  22.321  1.00  0.00    -0.295 N 
HETATM   14  N3  UNL     1      14.975  25.469  21.851  1.00  0.00    -0.310 N 
ATOM     15  H2  UNL     1      16.400  26.938  22.155  1.00  0.00     0.187 HD
HETATM   16  C6  UNL     1      13.713  25.332  22.262  1.00  0.00     0.126 A 
ATOM     17  H3  UNL     1      15.483  24.806  21.266  1.00  0.00     0.186 HD
HETATM   18  C7  UNL     1      13.408  26.457  23.034  1.00  0.00     0.079 A 
BRANCH  18  19
HETATM   19  C8  UNL     1      12.090  26.678  23.548  1.00  0.00     0.268 C 
HETATM   20  N4  UNL     1      11.119  27.504  22.952  1.00  0.00    -0.057 NA
HETATM   21  O2  UNL     1      11.721  26.099  24.623  1.00  0.00    -0.271 OA
ENDBRANCH  18  19
ENDBRANCH   9  12
ENDBRANCH   3   8
BRANCH   7  22
HETATM   22  O4  UNL     1      14.846  33.110  23.121  1.00  0.00    -0.389 OA
ATOM     23  H4  UNL     1      14.315  33.757  22.670  1.00  0.00     0.210 HD
ENDBRANCH   7  22
BRANCH   5  24
HETATM   24  N5  UNL     1      14.129  32.111  27.277  1.00  0.00    -0.236 N 
HETATM   25  N6  UNL     1      15.060  32.052  28.216  1.00  0.00    -0.126 N 
HETATM   26  C10 UNL     1      14.518  32.173  29.435  1.00  0.00     0.696 A 
ATOM     27  H6  UNL     1      16.057  31.930  28.035  1.00  0.00     0.206 HD
HETATM   28  N8  UNL     1      13.208  32.309  29.216  1.00  0.00    -0.178 N 
HETATM   29  C16 UNL     1      12.974  32.271  27.899  1.00  0.00     0.117 A 
ATOM     30  H8  UNL     1      12.498  32.424  29.939  1.00  0.00     0.185 HD
BRANCH  26  31
HETATM   31  N7  UNL     1      15.235  32.151  30.662  1.00  0.00    -0.216 N 
HETATM   32  C11 UNL     1      15.956  33.337  31.037  1.00  0.00     0.141 C 
HETATM   33  C12 UNL     1      16.697  33.243  32.313  1.00  0.00     0.020 C 
HETATM   34  C13 UNL     1      16.332  32.117  33.209  1.00  0.00     0.003 C 
HETATM   35  C14 UNL     1      16.341  30.832  32.407  1.00  0.00     0.020 C 
HETATM   36  C15 UNL     1      15.177  30.928  31.436  1.00  0.00     0.141 C 
ENDBRANCH  26  31
BRANCH  29  37
HETATM   37  C17 UNL     1      11.652  32.390  27.273  1.00  0.00     0.080 C 
BRANCH  37  38
HETATM   38  C18 UNL     1      11.088  33.804  27.322  1.00  0.00     0.018 C 
BRANCH  38  39
HETATM   39  C19 UNL     1      10.315  34.139  26.073  1.00  0.00     0.083 C 
BRANCH  39  40
HETATM   40  S1  UNL     1       9.304  32.697  25.638  1.00  0.00    -0.090 SA
BRANCH  40  41
HETATM   41  C20 UNL     1       9.885  31.996  24.094  1.00  0.00     0.201 A 
HETATM   42  N9  UNL     1       9.893  32.562  22.882  1.00  0.00    -0.262 N 
HETATM   43  N10 UNL     1      10.397  31.724  22.009  1.00  0.00    -0.225 N 
ATOM     44  H9  UNL     1       9.557  33.502  22.670  1.00  0.00     0.190 HD
HETATM   45  N11 UNL     1      10.717  30.621  22.652  1.00  0.00    -0.205 N 
ATOM     46  H10 UNL     1      10.520  31.896  21.011  1.00  0.00     0.210 HD
HETATM   47  N12 UNL     1      10.411  30.771  23.921  1.00  0.00    -0.045 N 
ATOM     48  H11 UNL     1      11.133  29.788  22.236  1.00  0.00     0.211 HD
BRANCH  47  49
HETATM   49  C21 UNL     1      10.584  29.831  24.973  1.00  0.00     0.736 A 
HETATM   50  N13 UNL     1       9.572  29.084  25.447  1.00  0.00    -0.020 N 
HETATM   51  C22 UNL     1       9.744  28.193  26.448  1.00  0.00     0.705 A 
ATOM     52  H13 UNL     1       8.645  29.194  25.039  1.00  0.00     0.203 HD
HETATM   53  N15 UNL     1      10.978  28.060  26.978  1.00  0.00    -0.022 N 
HETATM   54  C23 UNL     1      12.003  28.794  26.521  1.00  0.00     0.705 A 
ATOM     55  H15 UNL     1      11.133  27.393  27.735  1.00  0.00     0.203 HD
HETATM   56  N17 UNL     1      11.803  29.685  25.512  1.00  0.00    -0.020 N 
ATOM     57  H17 UNL     1      12.582  30.243  25.164  1.00  0.00     0.203 HD
BRANCH  51  58
HETATM   58  N14 UNL     1       8.763  27.484  26.891  1.00  0.00    -0.234 N 
ATOM     59 2H14 UNL     1       8.368  27.669  27.813  1.00  0.00     0.174 HD
ATOM     60 1H14 UNL     1       8.362  26.727  26.338  1.00  0.00     0.174 HD
ENDBRANCH  51  58
BRANCH  54  61
HETATM   61  N16 UNL     1      13.169  28.663  27.027  1.00  0.00    -0.234 N 
ATOM     62 2H16 UNL     1      13.813  27.971  26.642  1.00  0.00     0.174 HD
ATOM     63 1H16 UNL     1      13.458  29.245  27.814  1.00  0.00     0.174 HD
ENDBRANCH  54  61
ENDBRANCH  47  49
ENDBRANCH  40  41
ENDBRANCH  39  40
ENDBRANCH  38  39
ENDBRANCH  37  38
ENDBRANCH  29  37
ENDBRANCH   5  24
TORSDOF 14
ENDMDL
MODEL 5
REMARK VINA RESULT: -8.802286783      4.121      5.988
REMARK  14 active torsions:
REMARK  status: ('A' for Active; 'I' for Inactive)
REMARK    1  A    between atoms: C3_3  and  N1_4 
REMARK       I    between atoms: N1_4  and  C4_6 
REMARK    2  A    between atoms: C4_6  and  C5_8 
REMARK    3  A    between atoms: C7_14  and  C8_15 
REMARK    4  A    between atoms: C9_19  and  N5_20 
REMARK    5  A    between atoms: C10_23  and  N7_24 
REMARK    6  A    between atoms: C16_32  and  C17_33 
REMARK    7  A    between atoms: C17_33  and  C18_34 
REMARK    8  A    between atoms: C18_34  and  C19_35 
REMARK    9  A    between atoms: C19_35  and  S1_36 
REMARK   10  A    between atoms: S1_36  and  C20_37 
REMARK   11  A    between atoms: N12_44  and  C21_45 
REMARK   12  A    between atoms: C22_48  and  N14_49 
REMARK   13  A    between atoms: C23_54  and  N16_55 
REMARK   14  A    between atoms: C25_61  and  O4_62 
ROOT
HETATM    1  C1  UNL     1       7.716  32.681  24.342  1.00  0.00     0.017 C 
HETATM    2  C2  UNL     1       8.419  33.353  25.050  1.00  0.00    -0.054 C 
HETATM    3  C3  UNL     1       9.301  34.185  25.904  1.00  0.00     0.231 C 
HETATM    4  O3  UNL     1       9.739  33.345  26.921  1.00  0.00    -0.321 OA
HETATM    5  C9  UNL     1      10.833  32.741  26.386  1.00  0.00     0.253 C 
HETATM    6  C24 UNL     1      11.621  33.876  25.800  1.00  0.00     0.093 C 
HETATM    7  C25 UNL     1      10.492  34.699  25.173  1.00  0.00     0.191 C 
ENDROOT
BRANCH   3   8
HETATM    8  N1  UNL     1       8.555  35.320  26.435  1.00  0.00    -0.311 N 
HETATM    9  C4  UNL     1       7.735  35.142  27.547  1.00  0.00     0.273 C 
HETATM   10  O1  UNL     1       7.728  33.941  28.037  1.00  0.00    -0.266 OA
ATOM     11  H1  UNL     1       8.635  36.236  25.996  1.00  0.00     0.167 HD
BRANCH   9  12
HETATM   12  C5  UNL     1       6.908  36.115  28.221  1.00  0.00     0.132 A 
HETATM   13  N2  UNL     1       5.929  36.811  27.545  1.00  0.00    -0.295 N 
HETATM   14  N3  UNL     1       5.322  37.646  28.352  1.00  0.00    -0.310 N 
ATOM     15  H2  UNL     1       5.708  36.692  26.557  1.00  0.00     0.187 HD
HETATM   16  C6  UNL     1       5.862  37.541  29.567  1.00  0.00     0.126 A 
ATOM     17  H3  UNL     1       4.561  38.274  28.093  1.00  0.00     0.186 HD
HETATM   18  C7  UNL     1       6.869  36.575  29.488  1.00  0.00     0.079 A 
BRANCH  18  19
HETATM   19  C8  UNL     1       7.724  36.290  30.601  1.00  0.00     0.268 C 
HETATM   20  N4  UNL     1       8.011  37.185  31.648  1.00  0.00    -0.057 NA
HETATM   21  O2  UNL     1       8.284  35.147  30.696  1.00  0.00    -0.271 OA
ENDBRANCH  18  19
ENDBRANCH   9  12
ENDBRANCH   3   8
BRANCH   7  22
HETATM   22  O4  UNL     1      10.394  34.272  23.846  1.00  0.00    -0.389 OA
ATOM     23  H4  UNL     1      10.487  33.326  23.839  1.00  0.00     0.210 HD
ENDBRANCH   7  22
BRANCH   5  24
HETATM   24  N5  UNL     1      11.591  31.885  27.259  1.00  0.00    -0.236 N 
HETATM   25  N6  UNL     1      12.347  32.388  28.223  1.00  0.00    -0.126 N 
HETATM   26  C10 UNL     1      12.957  31.412  28.910  1.00  0.00     0.696 A 
ATOM     27  H6  UNL     1      12.451  33.384  28.417  1.00  0.00     0.206 HD
HETATM   28  N8  UNL     1      12.549  30.279  28.332  1.00  0.00    -0.178 N 
HETATM   29  C16 UNL     1      11.717  30.572  27.326  1.00  0.00     0.117 A 
ATOM     30  H8  UNL     1      12.829  29.340  28.613  1.00  0.00     0.185 HD
BRANCH  26  31
HETATM   31  N7  UNL     1      13.839  31.603  30.007  1.00  0.00    -0.216 N 
HETATM   32  C11 UNL     1      14.118  32.954  30.414  1.00  0.00     0.141 C 
HETATM   33  C12 UNL     1      15.058  33.086  31.548  1.00  0.00     0.020 C 
HETATM   34  C13 UNL     1      15.312  31.858  32.344  1.00  0.00     0.003 C 
HETATM   35  C14 UNL     1      15.656  30.726  31.399  1.00  0.00     0.020 C 
HETATM   36  C15 UNL     1      14.385  30.414  30.627  1.00  0.00     0.141 C 
ENDBRANCH  26  31
BRANCH  29  37
HETATM   37  C17 UNL     1      11.064  29.585  26.456  1.00  0.00     0.080 C 
BRANCH  37  38
HETATM   38  C18 UNL     1      11.539  28.159  26.704  1.00  0.00     0.018 C 
BRANCH  38  39
HETATM   39  C19 UNL     1      11.837  27.440  25.413  1.00  0.00     0.083 C 
BRANCH  39  40
HETATM   40  S1  UNL     1      13.421  28.058  24.782  1.00  0.00    -0.090 SA
BRANCH  40  41
HETATM   41  C20 UNL     1      14.248  26.763  23.858  1.00  0.00     0.201 A 
HETATM   42  N9  UNL     1      15.212  25.936  24.279  1.00  0.00    -0.262 N 
HETATM   43  N10 UNL     1      15.557  25.131  23.304  1.00  0.00    -0.225 N 
ATOM     44  H9  UNL     1      15.616  25.933  25.216  1.00  0.00     0.190 HD
HETATM   45  N11 UNL     1      14.820  25.433  22.256  1.00  0.00    -0.205 N 
ATOM     46  H10 UNL     1      16.268  24.401  23.349  1.00  0.00     0.210 HD
HETATM   47  N12 UNL     1      14.020  26.424  22.577  1.00  0.00    -0.045 N 
ATOM     48  H11 UNL     1      14.862  24.975  21.346  1.00  0.00     0.211 HD
BRANCH  47  49
HETATM   49  C21 UNL     1      13.058  27.068  21.751  1.00  0.00     0.736 A 
HETATM   50  N13 UNL     1      11.932  26.457  21.344  1.00  0.00    -0.020 N 
HETATM   51  C22 UNL     1      11.023  27.074  20.559  1.00  0.00     0.705 A 
ATOM     52  H13 UNL     1      11.758  25.496  21.638  1.00  0.00     0.203 HD
HETATM   53  N15 UNL     1      11.268  28.347  20.179  1.00  0.00    -0.022 N 
HETATM   54  C23 UNL     1      12.385  28.976  20.573  1.00  0.00     0.705 A 
ATOM     55  H15 UNL     1      10.596  28.834  19.585  1.00  0.00     0.203 HD
HETATM   56  N17 UNL     1      13.284  28.331  21.364  1.00  0.00    -0.020 N 
ATOM     57  H17 UNL     1      14.133  28.810  21.663  1.00  0.00     0.203 HD
BRANCH  51  58
HETATM   58  N14 UNL     1       9.948  26.475  20.178  1.00  0.00    -0.234 N 
ATOM     59 2H14 UNL     1       9.811  25.484  20.376  1.00  0.00     0.174 HD
ATOM     60 1H14 UNL     1       9.213  26.971  19.672  1.00  0.00     0.174 HD
ENDBRANCH  51  58
BRANCH  54  61
HETATM   61  N16 UNL     1      12.611  30.180  20.209  1.00  0.00    -0.234 N 
ATOM     62 2H16 UNL     1      13.451  30.398  19.673  1.00  0.00     0.174 HD
ATOM     63 1H16 UNL     1      11.955  30.924  20.452  1.00  0.00     0.174 HD
ENDBRANCH  54  61
ENDBRANCH  47  49
ENDBRANCH  40  41
ENDBRANCH  39  40
ENDBRANCH  38  39
ENDBRANCH  37  38
ENDBRANCH  29  37
ENDBRANCH   5  24
TORSDOF 14
ENDMDL
