MODEL 1
REMARK VINA RESULT: -9.130308215      0.000      0.000
REMARK  13 active torsions:
REMARK  status: ('A' for Active; 'I' for Inactive)
REMARK    1  A    between atoms: N1_2  and  S1_4 
REMARK    2  A    between atoms: S1_4  and  C2_7 
REMARK    3  A    between atoms: N2_9  and  C4_10 
REMARK    4  A    between atoms: C4_10  and  C5_11 
REMARK    5  A    between atoms: C6_12  and  C7_13 
REMARK    6  A    between atoms: C10_22  and  C11_23 
REMARK    7  A    between atoms: C13_29  and  O7_30 
REMARK    8  A    between atoms: C14_32  and  C15_33 
REMARK    9  A    between atoms: C15_33  and  C16_34 
REMARK   10  A    between atoms: C16_34  and  S3_35 
REMARK   11  A    between atoms: S3_35  and  C17_36 
REMARK   12  A    between atoms: C18_37  and  O8_38 
REMARK   13  A    between atoms: N7_44  and  N8_45 
ROOT
HETATM    1  C5  UNL     1       8.278  27.023  23.320  1.00  0.00     0.044 C 
HETATM    2  C6  UNL     1       7.766  26.954  22.049  1.00  0.00     0.126 C 
HETATM    3  N3  UNL     1       6.707  27.870  21.787  1.00  0.00    -0.302 N 
HETATM    4  C8  UNL     1       6.218  28.710  22.798  1.00  0.00     0.255 C 
HETATM    5  O5  UNL     1       5.201  28.971  23.424  1.00  0.00    -0.270 OA
HETATM    6  C9  UNL     1       7.532  29.513  23.138  1.00  0.00     0.246 C 
HETATM    7  N4  UNL     1       8.177  29.593  21.896  1.00  0.00    -0.392 N 
ATOM      8  H4  UNL     1       9.196  29.606  21.860  1.00  0.00     0.155 HD
HETATM    9  C10 UNL     1       7.411  29.658  20.648  1.00  0.00     0.146 C 
HETATM   10  C14 UNL     1       6.549  28.396  20.447  1.00  0.00     0.121 C 
HETATM   11  C20 UNL     1       8.134  28.377  23.946  1.00  0.00     0.191 C 
HETATM   12  O9  UNL     1       8.478  28.639  25.098  1.00  0.00    -0.290 OA
ENDROOT
BRANCH  10  13
HETATM   13  C15 UNL     1       5.172  28.596  19.940  1.00  0.00     0.038 C 
BRANCH  13  14
HETATM   14  C16 UNL     1       4.399  27.253  19.908  1.00  0.00     0.083 C 
BRANCH  14  15
HETATM   15  S3  UNL     1       2.993  27.300  21.024  1.00  0.00    -0.106 SA
BRANCH  15  16
HETATM   16  C17 UNL     1       3.052  26.064  22.304  1.00  0.00     0.146 A 
HETATM   17  C18 UNL     1       3.099  24.713  22.050  1.00  0.00     0.178 A 
HETATM   18  N6  UNL     1       3.151  24.075  23.226  1.00  0.00    -0.310 N 
HETATM   19  C19 UNL     1       3.137  25.008  24.185  1.00  0.00     0.200 A 
ATOM     20  H6  UNL     1       3.195  23.065  23.365  1.00  0.00     0.170 HD
HETATM   21  S4  UNL     1       3.185  24.700  25.805  1.00  0.00    -0.039 SA
HETATM   22  N7  UNL     1       3.076  26.232  23.621  1.00  0.00    -0.226 N 
BRANCH  17  23
HETATM   23  O8  UNL     1       3.094  24.081  20.805  1.00  0.00    -0.344 OA
ATOM     24  H8  UNL     1       3.413  23.211  20.597  1.00  0.00     0.219 HD
ENDBRANCH  17  23
BRANCH  22  25
HETATM   25  N8  UNL     1       3.059  27.435  24.360  1.00  0.00    -0.335 N 
ATOM     26  H82 UNL     1       3.787  27.704  25.021  1.00  0.00     0.177 HD
ATOM     27  H81 UNL     1       2.367  28.184  24.346  1.00  0.00     0.177 HD
ENDBRANCH  22  25
ENDBRANCH  15  16
ENDBRANCH  14  15
ENDBRANCH  13  14
ENDBRANCH  10  13
BRANCH   9  28
HETATM   28  C11 UNL     1       6.753  30.946  20.414  1.00  0.00     0.063 A 
HETATM   29  S2  UNL     1       5.653  31.928  21.271  1.00  0.00    -0.027 SA
HETATM   30  C12 UNL     1       5.500  33.228  20.195  1.00  0.00     0.290 A 
HETATM   31  O6  UNL     1       4.797  34.301  20.282  1.00  0.00    -0.260 OA
HETATM   32  N5  UNL     1       6.305  32.858  19.211  1.00  0.00    -0.297 N 
HETATM   33  C13 UNL     1       6.948  31.742  19.268  1.00  0.00     0.159 A 
ATOM     34  H5  UNL     1       6.417  33.464  18.397  1.00  0.00     0.171 HD
BRANCH  33  35
HETATM   35  O7  UNL     1       7.829  31.290  18.238  1.00  0.00    -0.345 OA
ATOM     36  H7  UNL     1       8.645  31.751  18.083  1.00  0.00     0.219 HD
ENDBRANCH  33  35
ENDBRANCH   9  28
BRANCH   2  37
HETATM   37  C7  UNL     1       8.080  25.851  21.168  1.00  0.00     0.227 C 
HETATM   38  O3  UNL     1       7.340  24.832  21.049  1.00  0.00    -0.643 OA
HETATM   39  O4  UNL     1       9.210  25.795  20.370  1.00  0.00    -0.643 OA
ENDBRANCH   2  37
BRANCH   1  40
HETATM   40  C4  UNL     1       9.131  26.054  23.942  1.00  0.00     0.191 C 
BRANCH  40  41
HETATM   41  N2  UNL     1      10.551  26.462  23.992  1.00  0.00    -0.280 N 
HETATM   42  C3  UNL     1      11.319  26.834  22.963  1.00  0.00     0.153 A 
HETATM   43  C2  UNL     1      12.593  27.165  23.436  1.00  0.00     0.178 A 
HETATM   44  N10 UNL     1      12.518  26.968  24.763  1.00  0.00    -0.271 N 
HETATM   45  N9  UNL     1      11.296  26.550  25.081  1.00  0.00    -0.019 NA
ATOM     46  H10 UNL     1      13.280  27.117  25.424  1.00  0.00     0.185 HD
BRANCH  43  47
HETATM   47  S1  UNL     1      13.929  27.710  22.454  1.00  0.00     0.276 S 
HETATM   48  O1  UNL     1      14.592  28.861  23.108  1.00  0.00    -0.199 OA
HETATM   49  O2  UNL     1      13.402  28.206  21.114  1.00  0.00    -0.199 OA
BRANCH  47  50
HETATM   50  N1  UNL     1      15.011  26.425  22.094  1.00  0.00    -0.319 N 
HETATM   51  C1  UNL     1      14.530  25.131  22.453  1.00  0.00     0.159 C 
ATOM     52  H1  UNL     1      15.921  26.574  21.659  1.00  0.00     0.171 HD
ENDBRANCH  47  50
ENDBRANCH  43  47
ENDBRANCH  40  41
ENDBRANCH   1  40
TORSDOF 13
ENDMDL
MODEL 2
REMARK VINA RESULT: -9.120853755      0.927      1.411
REMARK  13 active torsions:
REMARK  status: ('A' for Active; 'I' for Inactive)
REMARK    1  A    between atoms: N1_2  and  S1_4 
REMARK    2  A    between atoms: S1_4  and  C2_7 
REMARK    3  A    between atoms: N2_9  and  C4_10 
REMARK    4  A    between atoms: C4_10  and  C5_11 
REMARK    5  A    between atoms: C6_12  and  C7_13 
REMARK    6  A    between atoms: C10_22  and  C11_23 
REMARK    7  A    between atoms: C13_29  and  O7_30 
REMARK    8  A    between atoms: C14_32  and  C15_33 
REMARK    9  A    between atoms: C15_33  and  C16_34 
REMARK   10  A    between atoms: C16_34  and  S3_35 
REMARK   11  A    between atoms: S3_35  and  C17_36 
REMARK   12  A    between atoms: C18_37  and  O8_38 
REMARK   13  A    between atoms: N7_44  and  N8_45 
ROOT
HETATM    1  C5  UNL     1       8.189  27.185  23.319  1.00  0.00     0.044 C 
HETATM    2  C6  UNL     1       7.588  27.107  22.088  1.00  0.00     0.126 C 
HETATM    3  N3  UNL     1       6.588  28.094  21.854  1.00  0.00    -0.302 N 
HETATM    4  C8  UNL     1       6.235  29.009  22.856  1.00  0.00     0.255 C 
HETATM    5  O5  UNL     1       5.287  29.375  23.535  1.00  0.00    -0.270 OA
HETATM    6  C9  UNL     1       7.627  29.717  23.074  1.00  0.00     0.246 C 
HETATM    7  N4  UNL     1       8.190  29.696  21.791  1.00  0.00    -0.392 N 
ATOM      8  H4  UNL     1       9.203  29.626  21.688  1.00  0.00     0.155 HD
HETATM    9  C10 UNL     1       7.348  29.773  20.594  1.00  0.00     0.146 C 
HETATM   10  C14 UNL     1       6.379  28.577  20.505  1.00  0.00     0.121 C 
HETATM   11  C20 UNL     1       8.194  28.569  23.891  1.00  0.00     0.191 C 
HETATM   12  O9  UNL     1       8.635  28.848  25.006  1.00  0.00    -0.290 OA
ENDROOT
BRANCH  10  13
HETATM   13  C15 UNL     1       4.991  28.867  20.080  1.00  0.00     0.038 C 
BRANCH  13  14
HETATM   14  C16 UNL     1       4.210  27.552  19.826  1.00  0.00     0.083 C 
BRANCH  14  15
HETATM   15  S3  UNL     1       2.648  27.557  20.711  1.00  0.00    -0.106 SA
BRANCH  15  16
HETATM   16  C17 UNL     1       2.822  27.402  22.476  1.00  0.00     0.146 A 
HETATM   17  C18 UNL     1       2.207  28.242  23.374  1.00  0.00     0.178 A 
HETATM   18  N6  UNL     1       2.534  27.837  24.607  1.00  0.00    -0.310 N 
HETATM   19  C19 UNL     1       3.333  26.772  24.475  1.00  0.00     0.200 A 
ATOM     20  H6  UNL     1       2.230  28.260  25.484  1.00  0.00     0.170 HD
HETATM   21  S4  UNL     1       3.995  25.926  25.728  1.00  0.00    -0.039 SA
HETATM   22  N7  UNL     1       3.512  26.501  23.166  1.00  0.00    -0.226 N 
BRANCH  17  23
HETATM   23  O8  UNL     1       1.381  29.332  23.091  1.00  0.00    -0.344 OA
ATOM     24  H8  UNL     1       0.639  29.643  23.597  1.00  0.00     0.219 HD
ENDBRANCH  17  23
BRANCH  22  25
HETATM   25  N8  UNL     1       4.295  25.429  22.687  1.00  0.00    -0.335 N 
ATOM     26  H82 UNL     1       4.913  25.496  21.879  1.00  0.00     0.177 HD
ATOM     27  H81 UNL     1       4.372  24.480  23.053  1.00  0.00     0.177 HD
ENDBRANCH  22  25
ENDBRANCH  15  16
ENDBRANCH  14  15
ENDBRANCH  13  14
ENDBRANCH  10  13
BRANCH   9  28
HETATM   28  C11 UNL     1       6.777  31.100  20.345  1.00  0.00     0.063 A 
HETATM   29  S2  UNL     1       5.766  32.173  21.201  1.00  0.00    -0.027 SA
HETATM   30  C12 UNL     1       5.682  33.459  20.103  1.00  0.00     0.290 A 
HETATM   31  O6  UNL     1       5.058  34.581  20.180  1.00  0.00    -0.260 OA
HETATM   32  N5  UNL     1       6.440  33.015  19.111  1.00  0.00    -0.297 N 
HETATM   33  C13 UNL     1       7.005  31.858  19.180  1.00  0.00     0.159 A 
ATOM     34  H5  UNL     1       6.578  33.596  18.284  1.00  0.00     0.171 HD
BRANCH  33  35
HETATM   35  O7  UNL     1       7.831  31.326  18.143  1.00  0.00    -0.345 OA
ATOM     36  H7  UNL     1       8.764  31.231  18.289  1.00  0.00     0.219 HD
ENDBRANCH  33  35
ENDBRANCH   9  28
BRANCH   2  37
HETATM   37  C7  UNL     1       7.755  25.949  21.239  1.00  0.00     0.227 C 
HETATM   38  O3  UNL     1       6.884  25.037  21.136  1.00  0.00    -0.643 OA
HETATM   39  O4  UNL     1       8.873  25.718  20.455  1.00  0.00    -0.643 OA
ENDBRANCH   2  37
BRANCH   1  40
HETATM   40  C4  UNL     1       9.005  26.176  23.927  1.00  0.00     0.191 C 
BRANCH  40  41
HETATM   41  N2  UNL     1      10.442  26.523  23.966  1.00  0.00    -0.280 N 
HETATM   42  C3  UNL     1      11.209  26.897  22.937  1.00  0.00     0.153 A 
HETATM   43  C2  UNL     1      12.503  27.158  23.399  1.00  0.00     0.178 A 
HETATM   44  N10 UNL     1      12.440  26.919  24.720  1.00  0.00    -0.271 N 
HETATM   45  N9  UNL     1      11.207  26.541  25.045  1.00  0.00    -0.019 NA
ATOM     46  H10 UNL     1      13.218  27.012  25.372  1.00  0.00     0.185 HD
BRANCH  43  47
HETATM   47  S1  UNL     1      13.845  27.681  22.414  1.00  0.00     0.276 S 
HETATM   48  O1  UNL     1      14.539  28.809  23.075  1.00  0.00    -0.199 OA
HETATM   49  O2  UNL     1      13.322  28.202  21.083  1.00  0.00    -0.199 OA
BRANCH  47  50
HETATM   50  N1  UNL     1      14.894  26.374  22.034  1.00  0.00    -0.319 N 
HETATM   51  C1  UNL     1      14.349  25.084  22.302  1.00  0.00     0.159 C 
ATOM     52  H1  UNL     1      15.829  26.509  21.650  1.00  0.00     0.171 HD
ENDBRANCH  47  50
ENDBRANCH  43  47
ENDBRANCH  40  41
ENDBRANCH   1  40
TORSDOF 13
ENDMDL
MODEL 3
REMARK VINA RESULT: -9.059435066      4.429      8.957
REMARK  13 active torsions:
REMARK  status: ('A' for Active; 'I' for Inactive)
REMARK    1  A    between atoms: N1_2  and  S1_4 
REMARK    2  A    between atoms: S1_4  and  C2_7 
REMARK    3  A    between atoms: N2_9  and  C4_10 
REMARK    4  A    between atoms: C4_10  and  C5_11 
REMARK    5  A    between atoms: C6_12  and  C7_13 
REMARK    6  A    between atoms: C10_22  and  C11_23 
REMARK    7  A    between atoms: C13_29  and  O7_30 
REMARK    8  A    between atoms: C14_32  and  C15_33 
REMARK    9  A    between atoms: C15_33  and  C16_34 
REMARK   10  A    between atoms: C16_34  and  S3_35 
REMARK   11  A    between atoms: S3_35  and  C17_36 
REMARK   12  A    between atoms: C18_37  and  O8_38 
REMARK   13  A    between atoms: N7_44  and  N8_45 
ROOT
HETATM    1  C5  UNL     1      13.181  32.488  23.899  1.00  0.00     0.044 C 
HETATM    2  C6  UNL     1      13.078  31.601  24.941  1.00  0.00     0.126 C 
HETATM    3  N3  UNL     1      12.606  30.309  24.574  1.00  0.00    -0.302 N 
HETATM    4  C8  UNL     1      12.227  30.032  23.252  1.00  0.00     0.255 C 
HETATM    5  O5  UNL     1      11.268  29.683  22.580  1.00  0.00    -0.270 OA
HETATM    6  C9  UNL     1      13.592  30.318  22.517  1.00  0.00     0.246 C 
HETATM    7  N4  UNL     1      14.545  29.920  23.465  1.00  0.00    -0.392 N 
ATOM      8  H4  UNL     1      15.445  30.399  23.503  1.00  0.00     0.155 HD
HETATM    9  C10 UNL     1      14.268  28.828  24.403  1.00  0.00     0.146 C 
HETATM   10  C14 UNL     1      13.070  29.154  25.315  1.00  0.00     0.121 C 
HETATM   11  C20 UNL     1      13.421  31.826  22.577  1.00  0.00     0.191 C 
HETATM   12  O9  UNL     1      13.490  32.434  21.509  1.00  0.00    -0.290 OA
ENDROOT
BRANCH  10  13
HETATM   13  C15 UNL     1      12.104  28.063  25.572  1.00  0.00     0.038 C 
BRANCH  13  14
HETATM   14  C16 UNL     1      11.126  28.453  26.709  1.00  0.00     0.083 C 
BRANCH  14  15
HETATM   15  S3  UNL     1       9.483  27.802  26.389  1.00  0.00    -0.106 SA
BRANCH  15  16
HETATM   16  C17 UNL     1       9.297  27.090  24.768  1.00  0.00     0.146 A 
HETATM   17  C18 UNL     1       9.526  25.763  24.494  1.00  0.00     0.178 A 
HETATM   18  N6  UNL     1       9.279  25.562  23.193  1.00  0.00    -0.310 N 
HETATM   19  C19 UNL     1       8.907  26.738  22.675  1.00  0.00     0.200 A 
ATOM     20  H6  UNL     1       9.359  24.678  22.691  1.00  0.00     0.170 HD
HETATM   21  S4  UNL     1       8.501  26.989  21.096  1.00  0.00    -0.039 SA
HETATM   22  N7  UNL     1       8.916  27.680  23.641  1.00  0.00    -0.226 N 
BRANCH  17  23
HETATM   23  O8  UNL     1       9.942  24.770  25.384  1.00  0.00    -0.344 OA
ATOM     24  H8  UNL     1       9.574  23.900  25.493  1.00  0.00     0.219 HD
ENDBRANCH  17  23
BRANCH  22  25
HETATM   25  N8  UNL     1       8.560  29.029  23.424  1.00  0.00    -0.335 N 
ATOM     26  H82 UNL     1       9.235  29.767  23.221  1.00  0.00     0.177 HD
ATOM     27  H81 UNL     1       7.633  29.454  23.424  1.00  0.00     0.177 HD
ENDBRANCH  22  25
ENDBRANCH  15  16
ENDBRANCH  14  15
ENDBRANCH  13  14
ENDBRANCH  10  13
BRANCH   9  28
HETATM   28  C11 UNL     1      14.286  27.495  23.793  1.00  0.00     0.063 A 
HETATM   29  S2  UNL     1      13.305  26.646  22.687  1.00  0.00    -0.027 SA
HETATM   30  C12 UNL     1      14.149  25.181  22.590  1.00  0.00     0.290 A 
HETATM   31  O6  UNL     1      13.900  24.121  21.907  1.00  0.00    -0.260 OA
HETATM   32  N5  UNL     1      15.161  25.398  23.416  1.00  0.00    -0.297 N 
HETATM   33  C13 UNL     1      15.277  26.524  24.036  1.00  0.00     0.159 A 
ATOM     34  H5  UNL     1      15.857  24.667  23.565  1.00  0.00     0.171 HD
BRANCH  33  35
HETATM   35  O7  UNL     1      16.345  26.815  24.939  1.00  0.00    -0.345 OA
ATOM     36  H7  UNL     1      17.155  26.324  24.881  1.00  0.00     0.219 HD
ENDBRANCH  33  35
ENDBRANCH   9  28
BRANCH   2  37
HETATM   37  C7  UNL     1      13.161  32.041  26.316  1.00  0.00     0.227 C 
HETATM   38  O3  UNL     1      12.150  32.145  27.069  1.00  0.00    -0.643 OA
HETATM   39  O4  UNL     1      14.343  32.388  26.948  1.00  0.00    -0.643 OA
ENDBRANCH   2  37
BRANCH   1  40
HETATM   40  C4  UNL     1      13.349  33.907  24.009  1.00  0.00     0.191 C 
BRANCH  40  41
HETATM   41  N2  UNL     1      12.075  34.657  23.979  1.00  0.00    -0.280 N 
HETATM   42  C3  UNL     1      11.703  35.577  23.084  1.00  0.00     0.153 A 
HETATM   43  C2  UNL     1      10.417  36.029  23.396  1.00  0.00     0.178 A 
HETATM   44  N10 UNL     1      10.077  35.335  24.495  1.00  0.00    -0.271 N 
HETATM   45  N9  UNL     1      11.074  34.521  24.832  1.00  0.00    -0.019 NA
ATOM     46  H10 UNL     1       9.191  35.419  24.993  1.00  0.00     0.185 HD
BRANCH  43  47
HETATM   47  S1  UNL     1       9.519  37.229  22.502  1.00  0.00     0.276 S 
HETATM   48  O1  UNL     1      10.365  38.424  22.281  1.00  0.00    -0.199 OA
HETATM   49  O2  UNL     1       8.321  37.681  23.325  1.00  0.00    -0.199 OA
BRANCH  47  50
HETATM   50  N1  UNL     1       8.878  36.580  21.046  1.00  0.00    -0.319 N 
HETATM   51  C1  UNL     1       8.495  35.208  21.130  1.00  0.00     0.159 C 
ATOM     52  H1  UNL     1       8.779  37.128  20.192  1.00  0.00     0.171 HD
ENDBRANCH  47  50
ENDBRANCH  43  47
ENDBRANCH  40  41
ENDBRANCH   1  40
TORSDOF 13
ENDMDL
MODEL 4
REMARK VINA RESULT: -9.047379172      5.385      9.404
REMARK  13 active torsions:
REMARK  status: ('A' for Active; 'I' for Inactive)
REMARK    1  A    between atoms: N1_2  and  S1_4 
REMARK    2  A    between atoms: S1_4  and  C2_7 
REMARK    3  A    between atoms: N2_9  and  C4_10 
REMARK    4  A    between atoms: C4_10  and  C5_11 
REMARK    5  A    between atoms: C6_12  and  C7_13 
REMARK    6  A    between atoms: C10_22  and  C11_23 
REMARK    7  A    between atoms: C13_29  and  O7_30 
REMARK    8  A    between atoms: C14_32  and  C15_33 
REMARK    9  A    between atoms: C15_33  and  C16_34 
REMARK   10  A    between atoms: C16_34  and  S3_35 
REMARK   11  A    between atoms: S3_35  and  C17_36 
REMARK   12  A    between atoms: C18_37  and  O8_38 
REMARK   13  A    between atoms: N7_44  and  N8_45 
ROOT
HETATM    1  C5  UNL     1      16.175  30.307  24.070  1.00  0.00     0.044 C 
HETATM    2  C6  UNL     1      14.937  30.732  23.659  1.00  0.00     0.126 C 
HETATM    3  N3  UNL     1      14.089  29.699  23.166  1.00  0.00    -0.302 N 
HETATM    4  C8  UNL     1      14.551  28.378  23.069  1.00  0.00     0.255 C 
HETATM    5  O5  UNL     1      14.751  27.487  22.257  1.00  0.00    -0.270 OA
HETATM    6  C9  UNL     1      14.889  28.100  24.584  1.00  0.00     0.246 C 
HETATM    7  N4  UNL     1      13.917  28.849  25.261  1.00  0.00    -0.392 N 
ATOM      8  H4  UNL     1      14.140  29.257  26.169  1.00  0.00     0.155 HD
HETATM    9  C10 UNL     1      12.585  29.056  24.686  1.00  0.00     0.146 C 
HETATM   10  C14 UNL     1      12.658  29.818  23.348  1.00  0.00     0.121 C 
HETATM   11  C20 UNL     1      16.188  28.885  24.539  1.00  0.00     0.191 C 
HETATM   12  O9  UNL     1      17.205  28.292  24.899  1.00  0.00    -0.290 OA
ENDROOT
BRANCH  10  13
HETATM   13  C15 UNL     1      11.779  29.343  22.255  1.00  0.00     0.038 C 
BRANCH  13  14
HETATM   14  C16 UNL     1      11.785  30.345  21.073  1.00  0.00     0.083 C 
BRANCH  14  15
HETATM   15  S3  UNL     1      10.520  31.600  21.294  1.00  0.00    -0.106 SA
BRANCH  15  16
HETATM   16  C17 UNL     1      10.818  32.683  22.674  1.00  0.00     0.146 A 
HETATM   17  C18 UNL     1      11.532  33.854  22.577  1.00  0.00     0.178 A 
HETATM   18  N6  UNL     1      11.551  34.427  23.788  1.00  0.00    -0.310 N 
HETATM   19  C19 UNL     1      10.865  33.628  24.614  1.00  0.00     0.200 A 
ATOM     20  H6  UNL     1      12.003  35.307  24.034  1.00  0.00     0.170 HD
HETATM   21  S4  UNL     1      10.617  33.919  26.219  1.00  0.00    -0.039 SA
HETATM   22  N7  UNL     1      10.412  32.556  23.933  1.00  0.00    -0.226 N 
BRANCH  17  23
HETATM   23  O8  UNL     1      12.143  34.385  21.440  1.00  0.00    -0.344 OA
ATOM     24  H8  UNL     1      12.991  34.811  21.383  1.00  0.00     0.219 HD
ENDBRANCH  17  23
BRANCH  22  25
HETATM   25  N8  UNL     1       9.640  31.527  24.514  1.00  0.00    -0.335 N 
ATOM     26  H82 UNL     1      10.022  30.818  25.140  1.00  0.00     0.177 HD
ATOM     27  H81 UNL     1       8.642  31.344  24.417  1.00  0.00     0.177 HD
ENDBRANCH  22  25
ENDBRANCH  15  16
ENDBRANCH  14  15
ENDBRANCH  13  14
ENDBRANCH  10  13
BRANCH   9  28
HETATM   28  C11 UNL     1      11.725  27.869  24.720  1.00  0.00     0.063 A 
HETATM   29  S2  UNL     1      11.771  26.310  24.032  1.00  0.00    -0.027 SA
HETATM   30  C12 UNL     1      10.344  25.652  24.666  1.00  0.00     0.290 A 
HETATM   31  O6  UNL     1       9.822  24.488  24.508  1.00  0.00    -0.260 OA
HETATM   32  N5  UNL     1       9.882  26.662  25.388  1.00  0.00    -0.297 N 
HETATM   33  C13 UNL     1      10.524  27.778  25.450  1.00  0.00     0.159 A 
ATOM     34  H5  UNL     1       9.006  26.555  25.902  1.00  0.00     0.171 HD
BRANCH  33  35
HETATM   35  O7  UNL     1      10.074  28.901  26.210  1.00  0.00    -0.345 OA
ATOM     36  H7  UNL     1       9.635  29.620  25.771  1.00  0.00     0.219 HD
ENDBRANCH  33  35
ENDBRANCH   9  28
BRANCH   2  37
HETATM   37  C7  UNL     1      14.645  32.136  23.472  1.00  0.00     0.227 C 
HETATM   38  O3  UNL     1      14.750  32.720  22.354  1.00  0.00    -0.643 OA
HETATM   39  O4  UNL     1      14.223  32.981  24.484  1.00  0.00    -0.643 OA
ENDBRANCH   2  37
BRANCH   1  40
HETATM   40  C4  UNL     1      17.310  31.140  24.336  1.00  0.00     0.191 C 
BRANCH  40  41
HETATM   41  N2  UNL     1      17.177  31.944  25.570  1.00  0.00    -0.280 N 
HETATM   42  C3  UNL     1      16.484  31.627  26.667  1.00  0.00     0.153 A 
HETATM   43  C2  UNL     1      16.635  32.642  27.617  1.00  0.00     0.178 A 
HETATM   44  N10 UNL     1      17.434  33.541  27.019  1.00  0.00    -0.271 N 
HETATM   45  N9  UNL     1      17.750  33.113  25.799  1.00  0.00    -0.019 NA
ATOM     46  H10 UNL     1      17.750  34.417  27.436  1.00  0.00     0.185 HD
BRANCH  43  47
HETATM   47  S1  UNL     1      15.914  32.660  29.206  1.00  0.00     0.276 S 
HETATM   48  O1  UNL     1      15.888  31.286  29.757  1.00  0.00    -0.199 OA
HETATM   49  O2  UNL     1      14.468  33.122  29.100  1.00  0.00    -0.199 OA
BRANCH  47  50
HETATM   50  N1  UNL     1      16.699  33.786  30.240  1.00  0.00    -0.319 N 
HETATM   51  C1  UNL     1      15.975  34.996  30.451  1.00  0.00     0.159 C 
ATOM     52  H1  UNL     1      17.607  33.604  30.667  1.00  0.00     0.171 HD
ENDBRANCH  47  50
ENDBRANCH  43  47
ENDBRANCH  40  41
ENDBRANCH   1  40
TORSDOF 13
ENDMDL
MODEL 5
REMARK VINA RESULT: -8.938066142      5.239      8.813
REMARK  13 active torsions:
REMARK  status: ('A' for Active; 'I' for Inactive)
REMARK    1  A    between atoms: N1_2  and  S1_4 
REMARK    2  A    between atoms: S1_4  and  C2_7 
REMARK    3  A    between atoms: N2_9  and  C4_10 
REMARK    4  A    between atoms: C4_10  and  C5_11 
REMARK    5  A    between atoms: C6_12  and  C7_13 
REMARK    6  A    between atoms: C10_22  and  C11_23 
REMARK    7  A    between atoms: C13_29  and  O7_30 
REMARK    8  A    between atoms: C14_32  and  C15_33 
REMARK    9  A    between atoms: C15_33  and  C16_34 
REMARK   10  A    between atoms: C16_34  and  S3_35 
REMARK   11  A    between atoms: S3_35  and  C17_36 
REMARK   12  A    between atoms: C18_37  and  O8_38 
REMARK   13  A    between atoms: N7_44  and  N8_45 
ROOT
HETATM    1  C5  UNL     1      15.261  31.001  25.501  1.00  0.00     0.044 C 
HETATM    2  C6  UNL     1      13.940  31.360  25.421  1.00  0.00     0.126 C 
HETATM    3  N3  UNL     1      13.135  30.486  24.636  1.00  0.00    -0.302 N 
HETATM    4  C8  UNL     1      13.706  29.394  23.966  1.00  0.00     0.255 C 
HETATM    5  O5  UNL     1      13.870  28.931  22.846  1.00  0.00    -0.270 OA
HETATM    6  C9  UNL     1      14.293  28.601  25.196  1.00  0.00     0.246 C 
HETATM    7  N4  UNL     1      13.364  28.870  26.210  1.00  0.00    -0.392 N 
ATOM      8  H4  UNL     1      13.679  28.920  27.179  1.00  0.00     0.155 HD
HETATM    9  C10 UNL     1      11.947  29.081  25.902  1.00  0.00     0.146 C 
HETATM   10  C14 UNL     1      11.742  30.306  24.988  1.00  0.00     0.121 C 
HETATM   11  C20 UNL     1      15.487  29.528  25.348  1.00  0.00     0.191 C 
HETATM   12  O9  UNL     1      16.600  29.003  25.335  1.00  0.00    -0.290 OA
ENDROOT
BRANCH  10  13
HETATM   13  C15 UNL     1      10.761  30.168  23.888  1.00  0.00     0.038 C 
BRANCH  13  14
HETATM   14  C16 UNL     1      10.970  31.276  22.825  1.00  0.00     0.083 C 
BRANCH  14  15
HETATM   15  S3  UNL     1      11.036  30.573  21.175  1.00  0.00    -0.106 SA
BRANCH  15  16
HETATM   16  C17 UNL     1      10.487  28.881  21.093  1.00  0.00     0.146 A 
HETATM   17  C18 UNL     1      11.322  27.827  20.807  1.00  0.00     0.178 A 
HETATM   18  N6  UNL     1      10.595  26.704  20.843  1.00  0.00    -0.310 N 
HETATM   19  C19 UNL     1       9.339  27.054  21.143  1.00  0.00     0.200 A 
ATOM     20  H6  UNL     1      10.935  25.757  20.673  1.00  0.00     0.170 HD
HETATM   21  S4  UNL     1       8.076  26.005  21.298  1.00  0.00    -0.039 SA
HETATM   22  N7  UNL     1       9.269  28.392  21.299  1.00  0.00    -0.226 N 
BRANCH  17  23
HETATM   23  O8  UNL     1      12.689  27.878  20.524  1.00  0.00    -0.344 OA
ATOM     24  H8  UNL     1      13.410  27.774  21.134  1.00  0.00     0.219 HD
ENDBRANCH  17  23
BRANCH  22  25
HETATM   25  N8  UNL     1       8.084  29.082  21.633  1.00  0.00    -0.335 N 
ATOM     26  H82 UNL     1       7.243  29.076  21.056  1.00  0.00     0.177 HD
ATOM     27  H81 UNL     1       7.885  29.651  22.456  1.00  0.00     0.177 HD
ENDBRANCH  22  25
ENDBRANCH  15  16
ENDBRANCH  14  15
ENDBRANCH  13  14
ENDBRANCH  10  13
BRANCH   9  28
HETATM   28  C11 UNL     1      11.224  27.860  25.534  1.00  0.00     0.063 A 
HETATM   29  S2  UNL     1      11.444  26.608  24.397  1.00  0.00    -0.027 SA
HETATM   30  C12 UNL     1      10.098  25.639  24.744  1.00  0.00     0.290 A 
HETATM   31  O6  UNL     1       9.709  24.535  24.213  1.00  0.00    -0.260 OA
HETATM   32  N5  UNL     1       9.526  26.317  25.728  1.00  0.00    -0.297 N 
HETATM   33  C13 UNL     1      10.040  27.419  26.156  1.00  0.00     0.159 A 
ATOM     34  H5  UNL     1       8.667  25.963  26.151  1.00  0.00     0.171 HD
BRANCH  33  35
HETATM   35  O7  UNL     1       9.468  28.193  27.212  1.00  0.00    -0.345 OA
ATOM     36  H7  UNL     1       8.946  27.763  27.879  1.00  0.00     0.219 HD
ENDBRANCH  33  35
ENDBRANCH   9  28
BRANCH   2  37
HETATM   37  C7  UNL     1      13.485  32.664  25.849  1.00  0.00     0.227 C 
HETATM   38  O3  UNL     1      13.514  33.685  25.103  1.00  0.00    -0.643 OA
HETATM   39  O4  UNL     1      12.973  32.931  27.108  1.00  0.00    -0.643 OA
ENDBRANCH   2  37
BRANCH   1  40
HETATM   40  C4  UNL     1      16.335  31.826  25.970  1.00  0.00     0.191 C 
BRANCH  40  41
HETATM   41  N2  UNL     1      16.235  32.166  27.406  1.00  0.00    -0.280 N 
HETATM   42  C3  UNL     1      15.911  31.343  28.408  1.00  0.00     0.153 A 
HETATM   43  C2  UNL     1      15.954  32.048  29.615  1.00  0.00     0.178 A 
HETATM   44  N10 UNL     1      16.311  33.294  29.260  1.00  0.00    -0.271 N 
HETATM   45  N9  UNL     1      16.475  33.351  27.941  1.00  0.00    -0.019 NA
ATOM     46  H10 UNL     1      16.437  34.076  29.903  1.00  0.00     0.185 HD
BRANCH  43  47
HETATM   47  S1  UNL     1      15.611  31.383  31.191  1.00  0.00     0.276 S 
HETATM   48  O1  UNL     1      16.868  30.929  31.826  1.00  0.00    -0.199 OA
HETATM   49  O2  UNL     1      14.723  30.156  31.039  1.00  0.00    -0.199 OA
BRANCH  47  50
HETATM   50  N1  UNL     1      14.728  32.492  32.163  1.00  0.00    -0.319 N 
HETATM   51  C1  UNL     1      13.613  33.093  31.507  1.00  0.00     0.159 C 
ATOM     52  H1  UNL     1      14.980  32.703  33.129  1.00  0.00     0.171 HD
ENDBRANCH  47  50
ENDBRANCH  43  47
ENDBRANCH  40  41
ENDBRANCH   1  40
TORSDOF 13
ENDMDL
