MODEL 1
REMARK VINA RESULT: -5.281474218      0.000      0.000
REMARK  8 active torsions:
REMARK  status: ('A' for Active; 'I' for Inactive)
REMARK    1  A    between atoms: C2_2  and  C3_3 
REMARK    2  A    between atoms: C3_3  and  C4_4 
REMARK    3  A    between atoms: C4_4  and  C5_5 
REMARK    4  A    between atoms: C5_5  and  N1_6 
REMARK    5  A    between atoms: C7_8  and  C8_9 
REMARK    6  A    between atoms: C8_9  and  N2_10 
REMARK    7  A    between atoms: N2_10  and  N3_11 
REMARK    8  A    between atoms: C9_16  and  N5_17 
ROOT
HETATM    1  N1  UNL     1       5.697  27.739  24.473  1.00  0.00    -0.287 N 
HETATM    2  C6  UNL     1       6.478  27.359  23.469  1.00  0.00     0.137 A 
HETATM    3  C7  UNL     1       7.427  28.211  22.947  1.00  0.00     0.059 A 
HETATM    4  N4  UNL     1       7.567  29.433  23.450  1.00  0.00    -0.192 N 
ATOM      5  H4  UNL     1       8.265  30.073  23.071  1.00  0.00     0.184 HD
HETATM    6  C9  UNL     1       6.770  29.812  24.470  1.00  0.00     0.690 A 
HETATM    7  N6  UNL     1       5.846  28.955  24.964  1.00  0.00    -0.131 N 
ATOM      8  H6  UNL     1       5.251  29.256  25.736  1.00  0.00     0.206 HD
ENDROOT
BRANCH   1   9
HETATM    9  C5  UNL     1       4.681  26.906  25.073  1.00  0.00     0.148 C 
BRANCH   9  10
HETATM   10  C4  UNL     1       4.324  25.695  24.293  1.00  0.00     0.022 C 
BRANCH  10  11
HETATM   11  C3  UNL     1       4.655  24.403  24.984  1.00  0.00     0.001 C 
BRANCH  11  12
HETATM   12  C2  UNL     1       4.036  24.353  26.364  1.00  0.00    -0.004 C 
HETATM   13  C1  UNL     1       3.344  23.067  26.659  1.00  0.00     0.005 C 
ENDBRANCH  11  12
ENDBRANCH  10  11
ENDBRANCH   9  10
ENDBRANCH   1   9
BRANCH   3  14
HETATM   14  C8  UNL     1       8.286  27.761  21.827  1.00  0.00     0.193 C 
BRANCH  14  15
HETATM   15  N2  UNL     1       9.617  28.325  22.075  1.00  0.00    -0.142 NA
BRANCH  15  16
HETATM   16  N3  UNL     1      10.022  28.892  20.855  1.00  0.00    -0.348 N 
ATOM     17  H32 UNL     1       9.604  29.701  20.395  1.00  0.00     0.172 HD
ATOM     18  H31 UNL     1      10.809  28.326  20.537  1.00  0.00     0.172 HD
ENDBRANCH  15  16
ENDBRANCH  14  15
ENDBRANCH   3  14
BRANCH   6  19
HETATM   19  N5  UNL     1       6.904  30.997  24.959  1.00  0.00    -0.233 N 
ATOM     20  H52 UNL     1       6.383  31.785  24.577  1.00  0.00     0.174 HD
ATOM     21  H51 UNL     1       7.545  31.138  25.741  1.00  0.00     0.174 HD
ENDBRANCH   6  19
TORSDOF 8
ENDMDL
MODEL 2
REMARK VINA RESULT: -5.044028308      1.287      3.351
REMARK  8 active torsions:
REMARK  status: ('A' for Active; 'I' for Inactive)
REMARK    1  A    between atoms: C2_2  and  C3_3 
REMARK    2  A    between atoms: C3_3  and  C4_4 
REMARK    3  A    between atoms: C4_4  and  C5_5 
REMARK    4  A    between atoms: C5_5  and  N1_6 
REMARK    5  A    between atoms: C7_8  and  C8_9 
REMARK    6  A    between atoms: C8_9  and  N2_10 
REMARK    7  A    between atoms: N2_10  and  N3_11 
REMARK    8  A    between atoms: C9_16  and  N5_17 
ROOT
HETATM    1  N1  UNL     1       6.462  26.921  23.429  1.00  0.00    -0.287 N 
HETATM    2  C6  UNL     1       6.109  27.952  24.188  1.00  0.00     0.137 A 
HETATM    3  C7  UNL     1       6.737  29.172  24.064  1.00  0.00     0.059 A 
HETATM    4  N4  UNL     1       7.713  29.326  23.176  1.00  0.00    -0.192 N 
ATOM      5  H4  UNL     1       8.187  30.223  23.076  1.00  0.00     0.184 HD
HETATM    6  C9  UNL     1       8.067  28.274  22.408  1.00  0.00     0.690 A 
HETATM    7  N6  UNL     1       7.432  27.087  22.550  1.00  0.00    -0.131 N 
ATOM      8  H6  UNL     1       7.711  26.300  21.963  1.00  0.00     0.206 HD
ENDROOT
BRANCH   1   9
HETATM    9  C5  UNL     1       5.853  25.613  23.500  1.00  0.00     0.148 C 
BRANCH   9  10
HETATM   10  C4  UNL     1       4.727  25.498  24.460  1.00  0.00     0.022 C 
BRANCH  10  11
HETATM   11  C3  UNL     1       4.597  24.142  25.091  1.00  0.00     0.001 C 
BRANCH  11  12
HETATM   12  C2  UNL     1       3.937  24.238  26.449  1.00  0.00    -0.004 C 
HETATM   13  C1  UNL     1       3.270  22.976  26.878  1.00  0.00     0.005 C 
ENDBRANCH  11  12
ENDBRANCH  10  11
ENDBRANCH   9  10
ENDBRANCH   1   9
BRANCH   3  14
HETATM   14  C8  UNL     1       6.323  30.305  24.923  1.00  0.00     0.193 C 
BRANCH  14  15
HETATM   15  N2  UNL     1       4.859  30.246  25.005  1.00  0.00    -0.142 NA
BRANCH  15  16
HETATM   16  N3  UNL     1       4.450  31.532  25.398  1.00  0.00    -0.348 N 
ATOM     17  H32 UNL     1       5.025  32.235  25.861  1.00  0.00     0.172 HD
ATOM     18  H31 UNL     1       3.470  31.604  25.124  1.00  0.00     0.172 HD
ENDBRANCH  15  16
ENDBRANCH  14  15
ENDBRANCH   3  14
BRANCH   6  19
HETATM   19  N5  UNL     1       9.013  28.421  21.546  1.00  0.00    -0.233 N 
ATOM     20  H52 UNL     1       8.925  29.088  20.779  1.00  0.00     0.174 HD
ATOM     21  H51 UNL     1       9.858  27.857  21.640  1.00  0.00     0.174 HD
ENDBRANCH   6  19
TORSDOF 8
ENDMDL
MODEL 3
REMARK VINA RESULT: -5.024502377      1.516      1.768
REMARK  8 active torsions:
REMARK  status: ('A' for Active; 'I' for Inactive)
REMARK    1  A    between atoms: C2_2  and  C3_3 
REMARK    2  A    between atoms: C3_3  and  C4_4 
REMARK    3  A    between atoms: C4_4  and  C5_5 
REMARK    4  A    between atoms: C5_5  and  N1_6 
REMARK    5  A    between atoms: C7_8  and  C8_9 
REMARK    6  A    between atoms: C8_9  and  N2_10 
REMARK    7  A    between atoms: N2_10  and  N3_11 
REMARK    8  A    between atoms: C9_16  and  N5_17 
ROOT
HETATM    1  N1  UNL     1       5.465  28.263  24.869  1.00  0.00    -0.287 N 
HETATM    2  C6  UNL     1       6.162  27.701  23.888  1.00  0.00     0.137 A 
HETATM    3  C7  UNL     1       7.204  28.369  23.283  1.00  0.00     0.059 A 
HETATM    4  N4  UNL     1       7.521  29.597  23.680  1.00  0.00    -0.192 N 
ATOM      5  H4  UNL     1       8.289  30.103  23.240  1.00  0.00     0.184 HD
HETATM    6  C9  UNL     1       6.809  30.163  24.677  1.00  0.00     0.690 A 
HETATM    7  N6  UNL     1       5.791  29.483  25.254  1.00  0.00    -0.131 N 
ATOM      8  H6  UNL     1       5.261  29.924  26.006  1.00  0.00     0.206 HD
ENDROOT
BRANCH   1   9
HETATM    9  C5  UNL     1       4.362  27.629  25.550  1.00  0.00     0.148 C 
BRANCH   9  10
HETATM   10  C4  UNL     1       4.639  26.260  26.051  1.00  0.00     0.022 C 
BRANCH  10  11
HETATM   11  C3  UNL     1       3.840  25.879  27.264  1.00  0.00     0.001 C 
BRANCH  11  12
HETATM   12  C2  UNL     1       2.869  26.976  27.639  1.00  0.00    -0.004 C 
HETATM   13  C1  UNL     1       2.553  27.021  29.095  1.00  0.00     0.005 C 
ENDBRANCH  11  12
ENDBRANCH  10  11
ENDBRANCH   9  10
ENDBRANCH   1   9
BRANCH   3  14
HETATM   14  C8  UNL     1       7.964  27.717  22.192  1.00  0.00     0.193 C 
BRANCH  14  15
HETATM   15  N2  UNL     1       9.329  28.249  22.266  1.00  0.00    -0.142 NA
BRANCH  15  16
HETATM   16  N3  UNL     1       9.609  28.754  20.984  1.00  0.00    -0.348 N 
ATOM     17  H32 UNL     1       9.952  29.688  20.763  1.00  0.00     0.172 HD
ATOM     18  H31 UNL     1       9.396  27.993  20.338  1.00  0.00     0.172 HD
ENDBRANCH  15  16
ENDBRANCH  14  15
ENDBRANCH   3  14
BRANCH   6  19
HETATM   19  N5  UNL     1       7.115  31.353  25.064  1.00  0.00    -0.233 N 
ATOM     20  H52 UNL     1       6.570  31.829  25.782  1.00  0.00     0.174 HD
ATOM     21  H51 UNL     1       7.917  31.819  24.639  1.00  0.00     0.174 HD
ENDBRANCH   6  19
TORSDOF 8
ENDMDL
MODEL 4
REMARK VINA RESULT: -4.870538858      2.529      4.716
REMARK  8 active torsions:
REMARK  status: ('A' for Active; 'I' for Inactive)
REMARK    1  A    between atoms: C2_2  and  C3_3 
REMARK    2  A    between atoms: C3_3  and  C4_4 
REMARK    3  A    between atoms: C4_4  and  C5_5 
REMARK    4  A    between atoms: C5_5  and  N1_6 
REMARK    5  A    between atoms: C7_8  and  C8_9 
REMARK    6  A    between atoms: C8_9  and  N2_10 
REMARK    7  A    between atoms: N2_10  and  N3_11 
REMARK    8  A    between atoms: C9_16  and  N5_17 
ROOT
HETATM    1  N1  UNL     1       6.825  28.934  23.875  1.00  0.00    -0.287 N 
HETATM    2  C6  UNL     1       6.207  27.764  23.767  1.00  0.00     0.137 A 
HETATM    3  C7  UNL     1       6.612  26.830  22.838  1.00  0.00     0.059 A 
HETATM    4  N4  UNL     1       7.635  27.099  22.033  1.00  0.00    -0.192 N 
ATOM      5  H4  UNL     1       7.943  26.417  21.341  1.00  0.00     0.184 HD
HETATM    6  C9  UNL     1       8.258  28.291  22.149  1.00  0.00     0.690 A 
HETATM    7  N6  UNL     1       7.840  29.189  23.070  1.00  0.00    -0.131 N 
ATOM      8  H6  UNL     1       8.320  30.086  23.145  1.00  0.00     0.206 HD
ENDROOT
BRANCH   1   9
HETATM    9  C5  UNL     1       6.459  29.963  24.821  1.00  0.00     0.148 C 
BRANCH   9  10
HETATM   10  C4  UNL     1       5.036  29.949  25.241  1.00  0.00     0.022 C 
BRANCH  10  11
HETATM   11  C3  UNL     1       4.468  31.311  25.521  1.00  0.00     0.001 C 
BRANCH  11  12
HETATM   12  C2  UNL     1       2.964  31.249  25.671  1.00  0.00    -0.004 C 
HETATM   13  C1  UNL     1       2.505  31.275  27.089  1.00  0.00     0.005 C 
ENDBRANCH  11  12
ENDBRANCH  10  11
ENDBRANCH   9  10
ENDBRANCH   1   9
BRANCH   3  14
HETATM   14  C8  UNL     1       5.905  25.533  22.740  1.00  0.00     0.193 C 
BRANCH  14  15
HETATM   15  N2  UNL     1       6.091  24.863  24.032  1.00  0.00    -0.142 NA
BRANCH  15  16
HETATM   16  N3  UNL     1       7.179  23.992  23.853  1.00  0.00    -0.348 N 
ATOM     17  H32 UNL     1       7.139  23.038  23.496  1.00  0.00     0.172 HD
ATOM     18  H31 UNL     1       8.002  24.516  24.153  1.00  0.00     0.172 HD
ENDBRANCH  15  16
ENDBRANCH  14  15
ENDBRANCH   3  14
BRANCH   6  19
HETATM   19  N5  UNL     1       9.250  28.553  21.370  1.00  0.00    -0.233 N 
ATOM     20  H52 UNL     1       9.694  27.819  20.818  1.00  0.00     0.174 HD
ATOM     21  H51 UNL     1       9.591  29.513  21.311  1.00  0.00     0.174 HD
ENDBRANCH   6  19
TORSDOF 8
ENDMDL
MODEL 5
REMARK VINA RESULT: -4.659378444      1.760      2.419
REMARK  8 active torsions:
REMARK  status: ('A' for Active; 'I' for Inactive)
REMARK    1  A    between atoms: C2_2  and  C3_3 
REMARK    2  A    between atoms: C3_3  and  C4_4 
REMARK    3  A    between atoms: C4_4  and  C5_5 
REMARK    4  A    between atoms: C5_5  and  N1_6 
REMARK    5  A    between atoms: C7_8  and  C8_9 
REMARK    6  A    between atoms: C8_9  and  N2_10 
REMARK    7  A    between atoms: N2_10  and  N3_11 
REMARK    8  A    between atoms: C9_16  and  N5_17 
ROOT
HETATM    1  N1  UNL     1       4.869  27.930  25.204  1.00  0.00    -0.287 N 
HETATM    2  C6  UNL     1       5.366  26.960  24.446  1.00  0.00     0.137 A 
HETATM    3  C7  UNL     1       6.456  27.181  23.632  1.00  0.00     0.059 A 
HETATM    4  N4  UNL     1       7.022  28.384  23.598  1.00  0.00    -0.192 N 
ATOM      5  H4  UNL     1       7.827  28.561  22.999  1.00  0.00     0.184 HD
HETATM    6  C9  UNL     1       6.512  29.365  24.371  1.00  0.00     0.690 A 
HETATM    7  N6  UNL     1       5.441  29.119  25.161  1.00  0.00    -0.131 N 
ATOM      8  H6  UNL     1       5.066  29.872  25.739  1.00  0.00     0.206 HD
ENDROOT
BRANCH   1   9
HETATM    9  C5  UNL     1       3.732  27.776  26.081  1.00  0.00     0.148 C 
BRANCH   9  10
HETATM   10  C4  UNL     1       3.226  26.388  26.211  1.00  0.00     0.022 C 
BRANCH  10  11
HETATM   11  C3  UNL     1       3.613  25.713  27.495  1.00  0.00     0.001 C 
BRANCH  11  12
HETATM   12  C2  UNL     1       3.585  24.208  27.345  1.00  0.00    -0.004 C 
HETATM   13  C1  UNL     1       3.893  23.741  25.964  1.00  0.00     0.005 C 
ENDBRANCH  11  12
ENDBRANCH  10  11
ENDBRANCH   9  10
ENDBRANCH   1   9
BRANCH   3  14
HETATM   14  C8  UNL     1       6.989  26.080  22.798  1.00  0.00     0.193 C 
BRANCH  14  15
HETATM   15  N2  UNL     1       7.895  25.312  23.660  1.00  0.00    -0.142 NA
BRANCH  15  16
HETATM   16  N3  UNL     1       7.297  24.049  23.808  1.00  0.00    -0.348 N 
ATOM     17  H32 UNL     1       6.422  23.847  24.291  1.00  0.00     0.172 HD
ATOM     18  H31 UNL     1       7.919  23.394  23.334  1.00  0.00     0.172 HD
ENDBRANCH  15  16
ENDBRANCH  14  15
ENDBRANCH   3  14
BRANCH   6  19
HETATM   19  N5  UNL     1       7.059  30.531  24.339  1.00  0.00    -0.233 N 
ATOM     20  H52 UNL     1       7.243  31.001  23.454  1.00  0.00     0.174 HD
ATOM     21  H51 UNL     1       7.310  30.982  25.220  1.00  0.00     0.174 HD
ENDBRANCH   6  19
TORSDOF 8
ENDMDL
