MODEL 1
REMARK VINA RESULT: -4.278499605      0.000      0.000
REMARK  6 active torsions:
REMARK  status: ('A' for Active; 'I' for Inactive)
REMARK    1  A    between atoms: N5_12  and  C3_13 
REMARK    2  A    between atoms: C3_13  and  C4_14 
REMARK    3  A    between atoms: C4_14  and  C5_15 
REMARK    4  A    between atoms: C5_15  and  C6_16 
REMARK    5  A    between atoms: C6_16  and  C7_17 
REMARK    6  A    between atoms: C7_17  and  N6_18 
ROOT
HETATM    1  N1  UNL     1       7.910  27.559  21.971  1.00  0.00    -0.233 N 
ATOM      2  H11 UNL     1       7.660  26.616  21.671  1.00  0.00     0.174 HD
ATOM      3  H12 UNL     1       8.649  28.083  21.504  1.00  0.00     0.174 HD
HETATM    4  C1  UNL     1       7.280  28.074  22.957  1.00  0.00     0.694 A 
HETATM    5  N2  UNL     1       7.631  29.398  23.378  1.00  0.00    -0.185 N 
ATOM      6  H2  UNL     1       8.372  29.920  22.909  1.00  0.00     0.185 HD
HETATM    7  C2  UNL     1       6.988  29.904  24.359  1.00  0.00     0.216 A 
HETATM    8  N3  UNL     1       5.962  29.197  25.017  1.00  0.00    -0.281 N 
ATOM      9  H3  UNL     1       5.452  29.654  25.773  1.00  0.00     0.189 HD
HETATM   10  N4  UNL     1       5.632  27.922  24.674  1.00  0.00    -0.225 N 
ATOM     11  H4  UNL     1       4.930  27.405  25.205  1.00  0.00     0.209 HD
HETATM   12  N5  UNL     1       6.257  27.348  23.604  1.00  0.00    -0.110 N 
ENDROOT
BRANCH  12  13
HETATM   13  C3  UNL     1       5.888  26.038  23.139  1.00  0.00     0.169 C 
BRANCH  13  14
HETATM   14  C4  UNL     1       5.880  24.971  24.180  1.00  0.00     0.022 C 
BRANCH  14  15
HETATM   15  C5  UNL     1       4.471  24.523  24.440  1.00  0.00     0.003 C 
BRANCH  15  16
HETATM   16  C6  UNL     1       4.251  24.247  25.885  1.00  0.00     0.027 C 
BRANCH  16  17
HETATM   17  C7  UNL     1       3.676  25.495  26.578  1.00  0.00     0.229 C 
BRANCH  17  18
HETATM   18  N6  UNL     1       3.965  25.404  27.977  1.00  0.00    -0.079 N 
ATOM     19  H63 UNL     1       3.937  24.444  28.323  1.00  0.00     0.274 HD
ATOM     20  H62 UNL     1       4.943  25.599  28.190  1.00  0.00     0.274 HD
ATOM     21  H61 UNL     1       3.323  26.021  28.476  1.00  0.00     0.274 HD
ENDBRANCH  17  18
ENDBRANCH  16  17
ENDBRANCH  15  16
ENDBRANCH  14  15
ENDBRANCH  13  14
ENDBRANCH  12  13
TORSDOF 6
ENDMDL
MODEL 2
REMARK VINA RESULT: -4.243456080      2.570      4.482
REMARK  6 active torsions:
REMARK  status: ('A' for Active; 'I' for Inactive)
REMARK    1  A    between atoms: N5_12  and  C3_13 
REMARK    2  A    between atoms: C3_13  and  C4_14 
REMARK    3  A    between atoms: C4_14  and  C5_15 
REMARK    4  A    between atoms: C5_15  and  C6_16 
REMARK    5  A    between atoms: C6_16  and  C7_17 
REMARK    6  A    between atoms: C7_17  and  N6_18 
ROOT
HETATM    1  N1  UNL     1       8.387  28.377  22.258  1.00  0.00    -0.233 N 
ATOM      2  H11 UNL     1       8.386  27.487  21.759  1.00  0.00     0.174 HD
ATOM      3  H12 UNL     1       9.063  29.107  22.036  1.00  0.00     0.174 HD
HETATM    4  C1  UNL     1       7.521  28.561  23.181  1.00  0.00     0.694 A 
HETATM    5  N2  UNL     1       7.522  29.810  23.882  1.00  0.00    -0.185 N 
ATOM      6  H2  UNL     1       8.201  30.538  23.658  1.00  0.00     0.185 HD
HETATM    7  C2  UNL     1       6.647  29.984  24.796  1.00  0.00     0.216 A 
HETATM    8  N3  UNL     1       5.703  28.988  25.118  1.00  0.00    -0.281 N 
ATOM      9  H3  UNL     1       5.001  29.184  25.831  1.00  0.00     0.189 HD
HETATM   10  N4  UNL     1       5.700  27.773  24.505  1.00  0.00    -0.225 N 
ATOM     11  H4  UNL     1       5.049  27.044  24.797  1.00  0.00     0.209 HD
HETATM   12  N5  UNL     1       6.586  27.550  23.489  1.00  0.00    -0.110 N 
ENDROOT
BRANCH  12  13
HETATM   13  C3  UNL     1       6.571  26.319  22.744  1.00  0.00     0.169 C 
BRANCH  13  14
HETATM   14  C4  UNL     1       5.355  26.093  21.913  1.00  0.00     0.022 C 
BRANCH  14  15
HETATM   15  C5  UNL     1       5.661  26.383  20.473  1.00  0.00     0.003 C 
BRANCH  15  16
HETATM   16  C6  UNL     1       4.537  25.971  19.589  1.00  0.00     0.027 C 
BRANCH  16  17
HETATM   17  C7  UNL     1       5.028  25.843  18.136  1.00  0.00     0.229 C 
BRANCH  17  18
HETATM   18  N6  UNL     1       4.460  26.916  17.376  1.00  0.00    -0.079 N 
ATOM     19  H63 UNL     1       3.607  27.286  17.794  1.00  0.00     0.274 HD
ATOM     20  H62 UNL     1       5.018  27.768  17.422  1.00  0.00     0.274 HD
ATOM     21  H61 UNL     1       4.320  26.589  16.420  1.00  0.00     0.274 HD
ENDBRANCH  17  18
ENDBRANCH  16  17
ENDBRANCH  15  16
ENDBRANCH  14  15
ENDBRANCH  13  14
ENDBRANCH  12  13
TORSDOF 6
ENDMDL
MODEL 3
REMARK VINA RESULT: -4.235334334      2.021      4.868
REMARK  6 active torsions:
REMARK  status: ('A' for Active; 'I' for Inactive)
REMARK    1  A    between atoms: N5_12  and  C3_13 
REMARK    2  A    between atoms: C3_13  and  C4_14 
REMARK    3  A    between atoms: C4_14  and  C5_15 
REMARK    4  A    between atoms: C5_15  and  C6_16 
REMARK    5  A    between atoms: C6_16  and  C7_17 
REMARK    6  A    between atoms: C7_17  and  N6_18 
ROOT
HETATM    1  N1  UNL     1       7.232  23.782  24.082  1.00  0.00    -0.233 N 
ATOM      2  H11 UNL     1       8.072  24.148  23.632  1.00  0.00     0.174 HD
ATOM      3  H12 UNL     1       7.226  22.862  24.520  1.00  0.00     0.174 HD
HETATM    4  C1  UNL     1       6.175  24.501  24.080  1.00  0.00     0.694 A 
HETATM    5  N2  UNL     1       4.996  23.987  24.711  1.00  0.00    -0.185 N 
ATOM      6  H2  UNL     1       4.993  23.065  25.147  1.00  0.00     0.185 HD
HETATM    7  C2  UNL     1       3.949  24.719  24.709  1.00  0.00     0.216 A 
HETATM    8  N3  UNL     1       3.937  25.995  24.111  1.00  0.00    -0.281 N 
ATOM      9  H3  UNL     1       3.089  26.559  24.164  1.00  0.00     0.189 HD
HETATM   10  N4  UNL     1       5.024  26.497  23.464  1.00  0.00    -0.225 N 
ATOM     11  H4  UNL     1       4.974  27.396  22.983  1.00  0.00     0.209 HD
HETATM   12  N5  UNL     1       6.184  25.776  23.474  1.00  0.00    -0.110 N 
ENDROOT
BRANCH  12  13
HETATM   13  C3  UNL     1       7.390  26.294  22.885  1.00  0.00     0.169 C 
BRANCH  13  14
HETATM   14  C4  UNL     1       7.279  27.664  22.308  1.00  0.00     0.022 C 
BRANCH  14  15
HETATM   15  C5  UNL     1       7.918  28.659  23.232  1.00  0.00     0.003 C 
BRANCH  15  16
HETATM   16  C6  UNL     1       6.893  29.483  23.929  1.00  0.00     0.027 C 
BRANCH  16  17
HETATM   17  C7  UNL     1       7.507  30.141  25.178  1.00  0.00     0.229 C 
BRANCH  17  18
HETATM   18  N6  UNL     1       7.177  31.534  25.157  1.00  0.00    -0.079 N 
ATOM     19  H63 UNL     1       7.776  32.071  24.528  1.00  0.00     0.274 HD
ATOM     20  H62 UNL     1       6.288  31.721  24.694  1.00  0.00     0.274 HD
ATOM     21  H61 UNL     1       7.202  31.882  26.115  1.00  0.00     0.274 HD
ENDBRANCH  17  18
ENDBRANCH  16  17
ENDBRANCH  15  16
ENDBRANCH  14  15
ENDBRANCH  13  14
ENDBRANCH  12  13
TORSDOF 6
ENDMDL
MODEL 4
REMARK VINA RESULT: -4.227975507      1.333      1.445
REMARK  6 active torsions:
REMARK  status: ('A' for Active; 'I' for Inactive)
REMARK    1  A    between atoms: N5_12  and  C3_13 
REMARK    2  A    between atoms: C3_13  and  C4_14 
REMARK    3  A    between atoms: C4_14  and  C5_15 
REMARK    4  A    between atoms: C5_15  and  C6_16 
REMARK    5  A    between atoms: C6_16  and  C7_17 
REMARK    6  A    between atoms: C7_17  and  N6_18 
ROOT
HETATM    1  N1  UNL     1       7.951  27.597  21.962  1.00  0.00    -0.233 N 
ATOM      2  H11 UNL     1       7.699  26.655  21.661  1.00  0.00     0.174 HD
ATOM      3  H12 UNL     1       8.689  28.122  21.493  1.00  0.00     0.174 HD
HETATM    4  C1  UNL     1       7.328  28.109  22.954  1.00  0.00     0.694 A 
HETATM    5  N2  UNL     1       7.683  29.431  23.378  1.00  0.00    -0.185 N 
ATOM      6  H2  UNL     1       8.422  29.953  22.906  1.00  0.00     0.185 HD
HETATM    7  C2  UNL     1       7.046  29.934  24.363  1.00  0.00     0.216 A 
HETATM    8  N3  UNL     1       6.023  29.226  25.025  1.00  0.00    -0.281 N 
ATOM      9  H3  UNL     1       5.518  29.681  25.785  1.00  0.00     0.189 HD
HETATM   10  N4  UNL     1       5.688  27.953  24.679  1.00  0.00    -0.225 N 
ATOM     11  H4  UNL     1       4.989  27.436  25.212  1.00  0.00     0.209 HD
HETATM   12  N5  UNL     1       6.307  27.382  23.603  1.00  0.00    -0.110 N 
ENDROOT
BRANCH  12  13
HETATM   13  C3  UNL     1       5.933  26.074  23.135  1.00  0.00     0.169 C 
BRANCH  13  14
HETATM   14  C4  UNL     1       5.850  25.022  24.188  1.00  0.00     0.022 C 
BRANCH  14  15
HETATM   15  C5  UNL     1       4.413  24.687  24.461  1.00  0.00     0.003 C 
BRANCH  15  16
HETATM   16  C6  UNL     1       4.227  24.210  25.858  1.00  0.00     0.027 C 
BRANCH  16  17
HETATM   17  C7  UNL     1       3.186  23.077  25.894  1.00  0.00     0.229 C 
BRANCH  17  18
HETATM   18  N6  UNL     1       3.012  22.586  24.560  1.00  0.00    -0.079 N 
ATOM     19  H63 UNL     1       3.898  22.437  24.077  1.00  0.00     0.274 HD
ATOM     20  H62 UNL     1       2.677  21.624  24.535  1.00  0.00     0.274 HD
ATOM     21  H61 UNL     1       2.396  23.229  24.062  1.00  0.00     0.274 HD
ENDBRANCH  17  18
ENDBRANCH  16  17
ENDBRANCH  15  16
ENDBRANCH  14  15
ENDBRANCH  13  14
ENDBRANCH  12  13
TORSDOF 6
ENDMDL
MODEL 5
REMARK VINA RESULT: -4.193213726      1.610      2.668
REMARK  6 active torsions:
REMARK  status: ('A' for Active; 'I' for Inactive)
REMARK    1  A    between atoms: N5_12  and  C3_13 
REMARK    2  A    between atoms: C3_13  and  C4_14 
REMARK    3  A    between atoms: C4_14  and  C5_15 
REMARK    4  A    between atoms: C5_15  and  C6_16 
REMARK    5  A    between atoms: C6_16  and  C7_17 
REMARK    6  A    between atoms: C7_17  and  N6_18 
ROOT
HETATM    1  N1  UNL     1       6.253  30.523  24.876  1.00  0.00    -0.233 N 
ATOM      2  H11 UNL     1       5.462  30.524  25.519  1.00  0.00     0.174 HD
ATOM      3  H12 UNL     1       6.792  31.371  24.700  1.00  0.00     0.174 HD
HETATM    4  C1  UNL     1       6.557  29.433  24.280  1.00  0.00     0.694 A 
HETATM    5  N2  UNL     1       7.669  29.433  23.376  1.00  0.00    -0.185 N 
ATOM      6  H2  UNL     1       8.205  30.283  23.202  1.00  0.00     0.185 HD
HETATM    7  C2  UNL     1       7.967  28.336  22.795  1.00  0.00     0.216 A 
HETATM    8  N3  UNL     1       7.236  27.152  23.025  1.00  0.00    -0.281 N 
ATOM      9  H3  UNL     1       7.532  26.291  22.565  1.00  0.00     0.189 HD
HETATM   10  N4  UNL     1       6.148  27.125  23.842  1.00  0.00    -0.225 N 
ATOM     11  H4  UNL     1       5.595  26.273  23.944  1.00  0.00     0.209 HD
HETATM   12  N5  UNL     1       5.811  28.260  24.523  1.00  0.00    -0.110 N 
ENDROOT
BRANCH  12  13
HETATM   13  C3  UNL     1       4.727  28.268  25.468  1.00  0.00     0.169 C 
BRANCH  13  14
HETATM   14  C4  UNL     1       3.912  27.021  25.513  1.00  0.00     0.022 C 
BRANCH  14  15
HETATM   15  C5  UNL     1       4.172  26.288  26.796  1.00  0.00     0.003 C 
BRANCH  15  16
HETATM   16  C6  UNL     1       3.881  24.835  26.656  1.00  0.00     0.027 C 
BRANCH  16  17
HETATM   17  C7  UNL     1       4.428  24.316  25.315  1.00  0.00     0.229 C 
BRANCH  17  18
HETATM   18  N6  UNL     1       3.671  23.159  24.941  1.00  0.00    -0.079 N 
ATOM     19  H63 UNL     1       2.864  23.004  25.546  1.00  0.00     0.274 HD
ATOM     20  H62 UNL     1       3.165  23.286  24.065  1.00  0.00     0.274 HD
ATOM     21  H61 UNL     1       4.303  22.359  24.917  1.00  0.00     0.274 HD
ENDBRANCH  17  18
ENDBRANCH  16  17
ENDBRANCH  15  16
ENDBRANCH  14  15
ENDBRANCH  13  14
ENDBRANCH  12  13
TORSDOF 6
ENDMDL
