MODEL 1
REMARK VINA RESULT: -4.436278575      0.000      0.000
REMARK  7 active torsions:
REMARK  status: ('A' for Active; 'I' for Inactive)
REMARK    1  A    between atoms: N1_2  and  C2_4 
REMARK    2  A    between atoms: C3_7  and  N3_8 
REMARK    3  A    between atoms: N5_13  and  C4_14 
REMARK    4  A    between atoms: C4_14  and  C5_15 
REMARK    5  A    between atoms: C5_15  and  C6_16 
REMARK    6  A    between atoms: C6_16  and  C7_17 
REMARK    7  A    between atoms: C7_17  and  N6_18 
ROOT
HETATM    1  C2  UNL     1       6.890  28.346  23.535  1.00  0.00     0.709 A 
HETATM    2  N2  UNL     1       7.954  29.012  23.054  1.00  0.00    -0.020 N 
ATOM      3  H2  UNL     1       8.324  29.889  23.421  1.00  0.00     0.203 HD
HETATM    4  C3  UNL     1       8.449  28.325  22.003  1.00  0.00     0.705 A 
HETATM    5  N4  UNL     1       7.690  27.226  21.832  1.00  0.00    -0.115 N 
ATOM      6  H4  UNL     1       7.813  26.508  21.118  1.00  0.00     0.206 HD
HETATM    7  N5  UNL     1       6.760  27.255  22.758  1.00  0.00    -0.109 N 
ENDROOT
BRANCH   7   8
HETATM    8  C4  UNL     1       5.734  26.242  22.923  1.00  0.00     0.168 C 
BRANCH   8   9
HETATM    9  C5  UNL     1       6.265  25.157  23.810  1.00  0.00     0.024 C 
BRANCH   9  10
HETATM   10  C6  UNL     1       5.344  24.780  24.925  1.00  0.00     0.029 C 
BRANCH  10  11
HETATM   11  C7  UNL     1       3.997  24.354  24.363  1.00  0.00     0.231 C 
BRANCH  11  12
HETATM   12  N6  UNL     1       3.536  23.122  24.951  1.00  0.00    -0.079 N 
HETATM   13  C8  UNL     1       3.481  23.238  26.379  1.00  0.00     0.266 C 
ATOM     14  H62 UNL     1       2.642  22.825  24.560  1.00  0.00     0.276 HD
ATOM     15  H61 UNL     1       4.102  22.326  24.657  1.00  0.00     0.276 HD
ENDBRANCH  11  12
ENDBRANCH  10  11
ENDBRANCH   9  10
ENDBRANCH   8   9
ENDBRANCH   7   8
BRANCH   1  16
HETATM   16  N1  UNL     1       6.127  28.648  24.526  1.00  0.00    -0.228 N 
HETATM   17  C1  UNL     1       5.708  29.954  24.903  1.00  0.00     0.165 C 
ATOM     18  H1  UNL     1       5.789  27.874  25.098  1.00  0.00     0.177 HD
ENDBRANCH   1  16
BRANCH   4  19
HETATM   19  N3  UNL     1       9.476  28.646  21.273  1.00  0.00    -0.233 N 
ATOM     20  H32 UNL     1      10.332  28.097  21.189  1.00  0.00     0.174 HD
ATOM     21  H31 UNL     1       9.578  29.477  20.689  1.00  0.00     0.174 HD
ENDBRANCH   4  19
TORSDOF 7
ENDMDL
MODEL 2
REMARK VINA RESULT: -4.320167567      1.842      4.355
REMARK  7 active torsions:
REMARK  status: ('A' for Active; 'I' for Inactive)
REMARK    1  A    between atoms: N1_2  and  C2_4 
REMARK    2  A    between atoms: C3_7  and  N3_8 
REMARK    3  A    between atoms: N5_13  and  C4_14 
REMARK    4  A    between atoms: C4_14  and  C5_15 
REMARK    5  A    between atoms: C5_15  and  C6_16 
REMARK    6  A    between atoms: C6_16  and  C7_17 
REMARK    7  A    between atoms: C7_17  and  N6_18 
ROOT
HETATM    1  C2  UNL     1       6.685  27.133  22.951  1.00  0.00     0.709 A 
HETATM    2  N2  UNL     1       7.615  27.136  21.980  1.00  0.00    -0.020 N 
ATOM      3  H2  UNL     1       7.774  26.390  21.304  1.00  0.00     0.203 HD
HETATM    4  C3  UNL     1       8.304  28.294  22.053  1.00  0.00     0.705 A 
HETATM    5  N4  UNL     1       7.797  29.014  23.072  1.00  0.00    -0.115 N 
ATOM      6  H4  UNL     1       8.108  29.937  23.376  1.00  0.00     0.206 HD
HETATM    7  N5  UNL     1       6.829  28.303  23.599  1.00  0.00    -0.109 N 
ENDROOT
BRANCH   7   8
HETATM    8  C4  UNL     1       6.020  28.726  24.727  1.00  0.00     0.168 C 
BRANCH   8   9
HETATM    9  C5  UNL     1       5.955  30.224  24.739  1.00  0.00     0.024 C 
BRANCH   9  10
HETATM   10  C6  UNL     1       4.665  30.771  25.260  1.00  0.00     0.029 C 
BRANCH  10  11
HETATM   11  C7  UNL     1       3.783  29.635  25.755  1.00  0.00     0.231 C 
BRANCH  11  12
HETATM   12  N6  UNL     1       2.489  30.107  26.179  1.00  0.00    -0.079 N 
HETATM   13  C8  UNL     1       2.625  31.280  26.991  1.00  0.00     0.266 C 
ATOM     14  H62 UNL     1       1.864  30.262  25.388  1.00  0.00     0.276 HD
ATOM     15  H61 UNL     1       1.956  29.377  26.653  1.00  0.00     0.276 HD
ENDBRANCH  11  12
ENDBRANCH  10  11
ENDBRANCH   9  10
ENDBRANCH   8   9
ENDBRANCH   7   8
BRANCH   1  16
HETATM   16  N1  UNL     1       5.818  26.225  23.237  1.00  0.00    -0.228 N 
HETATM   17  C1  UNL     1       6.047  25.050  24.005  1.00  0.00     0.165 C 
ATOM     18  H1  UNL     1       4.874  26.363  22.878  1.00  0.00     0.177 HD
ENDBRANCH   1  16
BRANCH   4  19
HETATM   19  N3  UNL     1       9.284  28.671  21.284  1.00  0.00    -0.233 N 
ATOM     20  H32 UNL     1       9.976  28.048  20.869  1.00  0.00     0.174 HD
ATOM     21  H31 UNL     1       9.502  29.623  20.991  1.00  0.00     0.174 HD
ENDBRANCH   4  19
TORSDOF 7
ENDMDL
MODEL 3
REMARK VINA RESULT: -4.259961428      2.592      4.511
REMARK  7 active torsions:
REMARK  status: ('A' for Active; 'I' for Inactive)
REMARK    1  A    between atoms: N1_2  and  C2_4 
REMARK    2  A    between atoms: C3_7  and  N3_8 
REMARK    3  A    between atoms: N5_13  and  C4_14 
REMARK    4  A    between atoms: C4_14  and  C5_15 
REMARK    5  A    between atoms: C5_15  and  C6_16 
REMARK    6  A    between atoms: C6_16  and  C7_17 
REMARK    7  A    between atoms: C7_17  and  N6_18 
ROOT
HETATM    1  C2  UNL     1       7.584  28.781  23.458  1.00  0.00     0.709 A 
HETATM    2  N2  UNL     1       7.211  29.979  23.940  1.00  0.00    -0.020 N 
ATOM      3  H2  UNL     1       7.730  30.851  23.838  1.00  0.00     0.203 HD
HETATM    4  C3  UNL     1       6.034  29.833  24.583  1.00  0.00     0.705 A 
HETATM    5  N4  UNL     1       5.673  28.538  24.498  1.00  0.00    -0.115 N 
ATOM      6  H4  UNL     1       4.829  28.116  24.886  1.00  0.00     0.206 HD
HETATM    7  N5  UNL     1       6.614  27.922  23.821  1.00  0.00    -0.109 N 
ENDROOT
BRANCH   7   8
HETATM    8  C4  UNL     1       6.604  26.506  23.505  1.00  0.00     0.168 C 
BRANCH   8   9
HETATM    9  C5  UNL     1       5.565  26.254  22.455  1.00  0.00     0.024 C 
BRANCH   9  10
HETATM   10  C6  UNL     1       6.065  26.414  21.055  1.00  0.00     0.029 C 
BRANCH  10  11
HETATM   11  C7  UNL     1       4.919  26.236  20.072  1.00  0.00     0.231 C 
BRANCH  11  12
HETATM   12  N6  UNL     1       5.233  26.783  18.777  1.00  0.00    -0.079 N 
HETATM   13  C8  UNL     1       5.179  25.760  17.774  1.00  0.00     0.266 C 
ATOM     14  H62 UNL     1       4.635  27.575  18.544  1.00  0.00     0.276 HD
ATOM     15  H61 UNL     1       6.132  27.267  18.777  1.00  0.00     0.276 HD
ENDBRANCH  11  12
ENDBRANCH  10  11
ENDBRANCH   9  10
ENDBRANCH   8   9
ENDBRANCH   7   8
BRANCH   1  16
HETATM   16  N1  UNL     1       8.637  28.472  22.786  1.00  0.00    -0.228 N 
HETATM   17  C1  UNL     1       9.975  28.456  23.269  1.00  0.00     0.165 C 
ATOM     18  H1  UNL     1       8.499  28.213  21.809  1.00  0.00     0.177 HD
ENDBRANCH   1  16
BRANCH   4  19
HETATM   19  N3  UNL     1       5.349  30.762  25.182  1.00  0.00    -0.233 N 
ATOM     20  H32 UNL     1       4.791  30.629  26.026  1.00  0.00     0.174 HD
ATOM     21  H31 UNL     1       5.269  31.741  24.905  1.00  0.00     0.174 HD
ENDBRANCH   4  19
TORSDOF 7
ENDMDL
MODEL 4
REMARK VINA RESULT: -4.258152654      1.215      2.800
REMARK  7 active torsions:
REMARK  status: ('A' for Active; 'I' for Inactive)
REMARK    1  A    between atoms: N1_2  and  C2_4 
REMARK    2  A    between atoms: C3_7  and  N3_8 
REMARK    3  A    between atoms: N5_13  and  C4_14 
REMARK    4  A    between atoms: C4_14  and  C5_15 
REMARK    5  A    between atoms: C5_15  and  C6_16 
REMARK    6  A    between atoms: C6_16  and  C7_17 
REMARK    7  A    between atoms: C7_17  and  N6_18 
ROOT
HETATM    1  C2  UNL     1       7.634  28.979  23.505  1.00  0.00     0.709 A 
HETATM    2  N2  UNL     1       7.265  30.143  24.066  1.00  0.00    -0.020 N 
ATOM      3  H2  UNL     1       7.800  31.011  24.044  1.00  0.00     0.203 HD
HETATM    4  C3  UNL     1       6.068  29.970  24.662  1.00  0.00     0.705 A 
HETATM    5  N4  UNL     1       5.691  28.692  24.470  1.00  0.00    -0.115 N 
ATOM      6  H4  UNL     1       4.829  28.257  24.801  1.00  0.00     0.206 HD
HETATM    7  N5  UNL     1       6.641  28.112  23.775  1.00  0.00    -0.109 N 
ENDROOT
BRANCH   7   8
HETATM    8  C4  UNL     1       6.619  26.724  23.352  1.00  0.00     0.168 C 
BRANCH   8   9
HETATM    9  C5  UNL     1       5.312  26.116  23.763  1.00  0.00     0.024 C 
BRANCH   9  10
HETATM   10  C6  UNL     1       5.446  24.791  24.443  1.00  0.00     0.029 C 
BRANCH  10  11
HETATM   11  C7  UNL     1       4.324  24.611  25.453  1.00  0.00     0.231 C 
BRANCH  11  12
HETATM   12  N6  UNL     1       3.846  23.252  25.487  1.00  0.00    -0.079 N 
HETATM   13  C8  UNL     1       3.214  22.974  26.743  1.00  0.00     0.266 C 
ATOM     14  H62 UNL     1       3.232  23.046  24.699  1.00  0.00     0.276 HD
ATOM     15  H61 UNL     1       4.589  22.584  25.280  1.00  0.00     0.276 HD
ENDBRANCH  11  12
ENDBRANCH  10  11
ENDBRANCH   9  10
ENDBRANCH   8   9
ENDBRANCH   7   8
BRANCH   1  16
HETATM   16  N1  UNL     1       8.702  28.703  22.841  1.00  0.00    -0.228 N 
HETATM   17  C1  UNL     1       9.990  28.439  23.382  1.00  0.00     0.165 C 
ATOM     18  H1  UNL     1       8.615  28.671  21.825  1.00  0.00     0.177 HD
ENDBRANCH   1  16
BRANCH   4  19
HETATM   19  N3  UNL     1       5.380  30.864  25.311  1.00  0.00    -0.233 N 
ATOM     20  H32 UNL     1       4.365  30.957  25.283  1.00  0.00     0.174 HD
ATOM     21  H31 UNL     1       5.745  31.588  25.930  1.00  0.00     0.174 HD
ENDBRANCH   4  19
TORSDOF 7
ENDMDL
MODEL 5
REMARK VINA RESULT: -4.221694482      1.443      2.805
REMARK  7 active torsions:
REMARK  status: ('A' for Active; 'I' for Inactive)
REMARK    1  A    between atoms: N1_2  and  C2_4 
REMARK    2  A    between atoms: C3_7  and  N3_8 
REMARK    3  A    between atoms: N5_13  and  C4_14 
REMARK    4  A    between atoms: C4_14  and  C5_15 
REMARK    5  A    between atoms: C5_15  and  C6_16 
REMARK    6  A    between atoms: C6_16  and  C7_17 
REMARK    7  A    between atoms: C7_17  and  N6_18 
ROOT
HETATM    1  C2  UNL     1       6.975  28.109  23.540  1.00  0.00     0.709 A 
HETATM    2  N2  UNL     1       7.528  29.326  23.683  1.00  0.00    -0.020 N 
ATOM      3  H2  UNL     1       8.366  29.660  23.208  1.00  0.00     0.203 HD
HETATM    4  C3  UNL     1       6.787  30.031  24.563  1.00  0.00     0.705 A 
HETATM    5  N4  UNL     1       5.768  29.249  24.966  1.00  0.00    -0.115 N 
ATOM      6  H4  UNL     1       5.035  29.502  25.630  1.00  0.00     0.206 HD
HETATM    7  N5  UNL     1       5.896  28.101  24.344  1.00  0.00    -0.109 N 
ENDROOT
BRANCH   7   8
HETATM    8  C4  UNL     1       4.992  26.977  24.501  1.00  0.00     0.168 C 
BRANCH   8   9
HETATM    9  C5  UNL     1       4.599  26.872  25.944  1.00  0.00     0.024 C 
BRANCH   9  10
HETATM   10  C6  UNL     1       4.200  25.494  26.365  1.00  0.00     0.029 C 
BRANCH  10  11
HETATM   11  C7  UNL     1       4.646  24.483  25.320  1.00  0.00     0.231 C 
BRANCH  11  12
HETATM   12  N6  UNL     1       3.775  23.336  25.277  1.00  0.00    -0.079 N 
HETATM   13  C8  UNL     1       3.303  23.016  26.592  1.00  0.00     0.266 C 
ATOM     14  H62 UNL     1       3.006  23.468  24.619  1.00  0.00     0.276 HD
ATOM     15  H61 UNL     1       4.222  22.536  24.829  1.00  0.00     0.276 HD
ENDBRANCH  11  12
ENDBRANCH  10  11
ENDBRANCH   9  10
ENDBRANCH   8   9
ENDBRANCH   7   8
BRANCH   1  16
HETATM   16  N1  UNL     1       7.360  27.128  22.802  1.00  0.00    -0.228 N 
HETATM   17  C1  UNL     1       6.841  26.775  21.526  1.00  0.00     0.165 C 
ATOM     18  H1  UNL     1       8.111  26.545  23.170  1.00  0.00     0.177 HD
ENDBRANCH   1  16
BRANCH   4  19
HETATM   19  N3  UNL     1       6.998  31.251  24.963  1.00  0.00    -0.233 N 
ATOM     20  H32 UNL     1       7.478  31.511  25.824  1.00  0.00     0.174 HD
ATOM     21  H31 UNL     1       6.721  32.110  24.486  1.00  0.00     0.174 HD
ENDBRANCH   4  19
TORSDOF 7
ENDMDL
