MODEL 1
REMARK VINA RESULT: -6.509318748      0.000      0.000
REMARK  4 active torsions:
REMARK  status: ('A' for Active; 'I' for Inactive)
REMARK    1  A    between atoms: C2_2  and  N1_5 
REMARK       I    between atoms: N1_5  and  C5_7 
REMARK       I    between atoms: C5_7  and  N3_11 
REMARK    2  A    between atoms: N5_18  and  C11_19 
REMARK    3  A    between atoms: C11_19  and  C12_20 
REMARK    4  A    between atoms: C12_20  and  N6_21 
REMARK       I    between atoms: N6_21  and  C13_23 
ROOT
HETATM    1  N1  UNL     1      43.147  -1.317  34.252  1.00  0.00    -0.217 N 
ATOM      2  H1  UNL     1      43.123  -2.315  34.461  1.00  0.00     0.178 HD
HETATM    3  C5  UNL     1      42.243  -0.840  33.292  1.00  0.00     0.696 C 
HETATM    4  N2  UNL     1      41.730   0.301  33.351  1.00  0.00    -0.233 N 
ATOM      5  H21 UNL     1      41.072   0.648  32.653  1.00  0.00     0.174 HD
ATOM      6  H22 UNL     1      41.979   0.911  34.130  1.00  0.00     0.174 HD
HETATM    7  N3  UNL     1      41.893  -1.697  32.196  1.00  0.00    -0.057 N 
HETATM    8  C6  UNL     1      40.812  -2.574  32.591  1.00  0.00     0.205 C 
HETATM    9  C7  UNL     1      39.507  -1.996  32.188  1.00  0.00     0.260 C 
HETATM   10  N4  UNL     1      39.323  -1.844  30.771  1.00  0.00    -0.066 N 
HETATM   11  C8  UNL     1      37.870  -1.992  30.574  1.00  0.00     0.272 C 
HETATM   12  C9  UNL     1      39.925  -2.904  29.992  1.00  0.00     0.268 C 
HETATM   13  C10 UNL     1      41.287  -2.642  29.482  1.00  0.00     0.303 C 
HETATM   14  N5  UNL     1      41.929  -1.436  29.939  1.00  0.00     0.072 N 
HETATM   15  C14 UNL     1      41.035  -0.336  29.828  1.00  0.00     0.303 C 
HETATM   16  C15 UNL     1      39.645  -0.534  30.294  1.00  0.00     0.268 C 
HETATM   17  O1  UNL     1      42.590  -1.541  31.087  1.00  0.00    -0.057 OA
ENDROOT
BRANCH   1  18
HETATM   18  C2  UNL     1      44.095  -0.526  34.959  1.00  0.00     0.036 C 
HETATM   19  C1  UNL     1      44.947   0.385  34.148  1.00  0.00     0.038 C 
HETATM   20  C3  UNL     1      43.415   0.287  36.057  1.00  0.00     0.038 C 
HETATM   21  C4  UNL     1      45.048  -1.510  35.653  1.00  0.00     0.038 C 
ENDBRANCH   1  18
BRANCH  14  22
HETATM   22  C11 UNL     1      42.994  -1.186  28.932  1.00  0.00     0.295 C 
BRANCH  22  23
HETATM   23  C12 UNL     1      43.357  -2.419  28.174  1.00  0.00     0.153 C 
BRANCH  23  24
HETATM   24  N6  UNL     1      43.352  -2.088  26.772  1.00  0.00    -0.363 N 
HETATM   25  C13 UNL     1      43.768  -3.010  25.792  1.00  0.00     0.181 C 
HETATM   26  N7  UNL     1      43.550  -4.260  25.920  1.00  0.00    -0.374 N 
HETATM   27  N8  UNL     1      44.458  -2.595  24.596  1.00  0.00    -0.064 NA
ATOM     28  H72 UNL     1      43.063  -4.554  26.766  1.00  0.00     0.158 HD
ATOM     29  H71 UNL     1      43.852  -4.928  25.211  1.00  0.00     0.158 HD
ATOM     30  H6  UNL     1      43.040  -1.161  26.482  1.00  0.00     0.162 HD
ENDBRANCH  23  24
ENDBRANCH  22  23
ENDBRANCH  14  22
TORSDOF 4
ENDMDL
MODEL 2
REMARK VINA RESULT: -6.202011498      0.811      1.032
REMARK  4 active torsions:
REMARK  status: ('A' for Active; 'I' for Inactive)
REMARK    1  A    between atoms: C2_2  and  N1_5 
REMARK       I    between atoms: N1_5  and  C5_7 
REMARK       I    between atoms: C5_7  and  N3_11 
REMARK    2  A    between atoms: N5_18  and  C11_19 
REMARK    3  A    between atoms: C11_19  and  C12_20 
REMARK    4  A    between atoms: C12_20  and  N6_21 
REMARK       I    between atoms: N6_21  and  C13_23 
ROOT
HETATM    1  N1  UNL     1      43.047  -1.339  34.109  1.00  0.00    -0.217 N 
ATOM      2  H1  UNL     1      43.111  -2.324  34.365  1.00  0.00     0.178 HD
HETATM    3  C5  UNL     1      41.980  -0.959  33.283  1.00  0.00     0.696 C 
HETATM    4  N2  UNL     1      41.419   0.158  33.368  1.00  0.00    -0.233 N 
ATOM      5  H21 UNL     1      40.643   0.434  32.768  1.00  0.00     0.174 HD
ATOM      6  H22 UNL     1      41.751   0.820  34.069  1.00  0.00     0.174 HD
HETATM    7  N3  UNL     1      41.513  -1.890  32.296  1.00  0.00    -0.057 N 
HETATM    8  C6  UNL     1      40.557  -2.796  32.897  1.00  0.00     0.205 C 
HETATM    9  C7  UNL     1      39.175  -2.304  32.678  1.00  0.00     0.260 C 
HETATM   10  N4  UNL     1      38.765  -2.238  31.302  1.00  0.00    -0.066 N 
HETATM   11  C8  UNL     1      37.310  -2.467  31.344  1.00  0.00     0.272 C 
HETATM   12  C9  UNL     1      39.297  -3.309  30.488  1.00  0.00     0.268 C 
HETATM   13  C10 UNL     1      40.548  -3.010  29.759  1.00  0.00     0.303 C 
HETATM   14  N5  UNL     1      41.185  -1.752  30.052  1.00  0.00     0.072 N 
HETATM   15  C14 UNL     1      40.224  -0.703  30.032  1.00  0.00     0.303 C 
HETATM   16  C15 UNL     1      38.936  -0.943  30.720  1.00  0.00     0.268 C 
HETATM   17  O1  UNL     1      42.020  -1.762  31.086  1.00  0.00    -0.057 OA
ENDROOT
BRANCH   1  18
HETATM   18  C2  UNL     1      44.047  -0.466  34.620  1.00  0.00     0.036 C 
HETATM   19  C1  UNL     1      44.825   0.320  33.625  1.00  0.00     0.038 C 
HETATM   20  C3  UNL     1      43.458   0.494  35.651  1.00  0.00     0.038 C 
HETATM   21  C4  UNL     1      45.059  -1.353  35.361  1.00  0.00     0.038 C 
ENDBRANCH   1  18
BRANCH  14  22
HETATM   22  C11 UNL     1      42.065  -1.507  28.879  1.00  0.00     0.295 C 
BRANCH  22  23
HETATM   23  C12 UNL     1      43.464  -1.966  29.117  1.00  0.00     0.153 C 
BRANCH  23  24
HETATM   24  N6  UNL     1      43.766  -2.976  28.136  1.00  0.00    -0.363 N 
HETATM   25  C13 UNL     1      44.036  -2.648  26.793  1.00  0.00     0.181 C 
HETATM   26  N7  UNL     1      44.651  -1.575  26.481  1.00  0.00    -0.374 N 
HETATM   27  N8  UNL     1      43.634  -3.501  25.703  1.00  0.00    -0.064 NA
ATOM     28  H72 UNL     1      44.935  -0.971  27.252  1.00  0.00     0.158 HD
ATOM     29  H71 UNL     1      44.846  -1.337  25.509  1.00  0.00     0.158 HD
ATOM     30  H6  UNL     1      43.786  -3.955  28.422  1.00  0.00     0.162 HD
ENDBRANCH  23  24
ENDBRANCH  22  23
ENDBRANCH  14  22
TORSDOF 4
ENDMDL
MODEL 3
REMARK VINA RESULT: -6.031043505      2.192      5.783
REMARK  4 active torsions:
REMARK  status: ('A' for Active; 'I' for Inactive)
REMARK    1  A    between atoms: C2_2  and  N1_5 
REMARK       I    between atoms: N1_5  and  C5_7 
REMARK       I    between atoms: C5_7  and  N3_11 
REMARK    2  A    between atoms: N5_18  and  C11_19 
REMARK    3  A    between atoms: C11_19  and  C12_20 
REMARK    4  A    between atoms: C12_20  and  N6_21 
REMARK       I    between atoms: N6_21  and  C13_23 
ROOT
HETATM    1  N1  UNL     1      41.862  -0.856  28.942  1.00  0.00    -0.217 N 
ATOM      2  H1  UNL     1      41.595   0.024  28.501  1.00  0.00     0.178 HD
HETATM    3  C5  UNL     1      41.093  -1.286  30.034  1.00  0.00     0.696 C 
HETATM    4  N2  UNL     1      40.877  -2.495  30.278  1.00  0.00    -0.233 N 
ATOM      5  H21 UNL     1      40.318  -2.807  31.072  1.00  0.00     0.174 HD
ATOM      6  H22 UNL     1      41.275  -3.199  29.656  1.00  0.00     0.174 HD
HETATM    7  N3  UNL     1      40.534  -0.296  30.909  1.00  0.00    -0.057 N 
HETATM    8  C6  UNL     1      39.275   0.172  30.371  1.00  0.00     0.205 C 
HETATM    9  C7  UNL     1      38.148  -0.585  30.968  1.00  0.00     0.260 C 
HETATM   10  N4  UNL     1      37.994  -0.425  32.388  1.00  0.00    -0.066 N 
HETATM   11  C8  UNL     1      36.548  -0.586  32.619  1.00  0.00     0.272 C 
HETATM   12  C9  UNL     1      38.310   0.907  32.857  1.00  0.00     0.268 C 
HETATM   13  C10 UNL     1      39.691   1.113  33.344  1.00  0.00     0.303 C 
HETATM   14  N5  UNL     1      40.613   0.023  33.157  1.00  0.00     0.072 N 
HETATM   15  C14 UNL     1      40.016  -1.198  33.576  1.00  0.00     0.303 C 
HETATM   16  C15 UNL     1      38.623  -1.460  33.149  1.00  0.00     0.268 C 
HETATM   17  O1  UNL     1      41.238  -0.002  31.985  1.00  0.00    -0.057 OA
ENDROOT
BRANCH   1  18
HETATM   18  C2  UNL     1      42.981  -1.545  28.398  1.00  0.00     0.036 C 
HETATM   19  C1  UNL     1      42.745  -2.931  27.911  1.00  0.00     0.038 C 
HETATM   20  C3  UNL     1      43.627  -0.735  27.277  1.00  0.00     0.038 C 
HETATM   21  C4  UNL     1      44.015  -1.652  29.528  1.00  0.00     0.038 C 
ENDBRANCH   1  18
BRANCH  14  22
HETATM   22  C11 UNL     1      41.698   0.292  34.138  1.00  0.00     0.295 C 
BRANCH  22  23
HETATM   23  C12 UNL     1      42.734  -0.781  34.144  1.00  0.00     0.153 C 
BRANCH  23  24
HETATM   24  N6  UNL     1      43.839  -0.328  33.340  1.00  0.00    -0.363 N 
HETATM   25  C13 UNL     1      45.084   0.001  33.909  1.00  0.00     0.181 C 
HETATM   26  N7  UNL     1      45.542  -0.632  34.917  1.00  0.00    -0.374 N 
HETATM   27  N8  UNL     1      45.906   1.064  33.387  1.00  0.00    -0.064 NA
ATOM     28  H72 UNL     1      44.961  -1.384  35.286  1.00  0.00     0.158 HD
ATOM     29  H71 UNL     1      46.444  -0.394  35.330  1.00  0.00     0.158 HD
ATOM     30  H6  UNL     1      43.715  -0.242  32.331  1.00  0.00     0.162 HD
ENDBRANCH  23  24
ENDBRANCH  22  23
ENDBRANCH  14  22
TORSDOF 4
ENDMDL
MODEL 4
REMARK VINA RESULT: -5.827039306      6.806     10.905
REMARK  4 active torsions:
REMARK  status: ('A' for Active; 'I' for Inactive)
REMARK    1  A    between atoms: C2_2  and  N1_5 
REMARK       I    between atoms: N1_5  and  C5_7 
REMARK       I    between atoms: C5_7  and  N3_11 
REMARK    2  A    between atoms: N5_18  and  C11_19 
REMARK    3  A    between atoms: C11_19  and  C12_20 
REMARK    4  A    between atoms: C12_20  and  N6_21 
REMARK       I    between atoms: N6_21  and  C13_23 
ROOT
HETATM    1  N1  UNL     1      50.776  -0.710  37.330  1.00  0.00    -0.217 N 
ATOM      2  H1  UNL     1      51.051  -0.063  36.590  1.00  0.00     0.178 HD
HETATM    3  C5  UNL     1      49.416  -1.043  37.418  1.00  0.00     0.696 C 
HETATM    4  N2  UNL     1      49.016  -2.170  37.791  1.00  0.00    -0.233 N 
ATOM      5  H21 UNL     1      48.028  -2.413  37.854  1.00  0.00     0.174 HD
ATOM      6  H22 UNL     1      49.708  -2.877  38.040  1.00  0.00     0.174 HD
HETATM    7  N3  UNL     1      48.443  -0.048  37.066  1.00  0.00    -0.057 N 
HETATM    8  C6  UNL     1      48.224  -0.068  35.636  1.00  0.00     0.205 C 
HETATM    9  C7  UNL     1      47.056  -0.920  35.307  1.00  0.00     0.260 C 
HETATM   10  N4  UNL     1      45.801  -0.463  35.840  1.00  0.00    -0.066 N 
HETATM   11  C8  UNL     1      44.800  -0.931  34.865  1.00  0.00     0.272 C 
HETATM   12  C9  UNL     1      45.672   0.977  35.860  1.00  0.00     0.268 C 
HETATM   13  C10 UNL     1      46.045   1.645  37.125  1.00  0.00     0.303 C 
HETATM   14  N5  UNL     1      46.640   0.818  38.143  1.00  0.00     0.072 N 
HETATM   15  C14 UNL     1      45.883  -0.375  38.306  1.00  0.00     0.303 C 
HETATM   16  C15 UNL     1      45.452  -1.083  37.080  1.00  0.00     0.268 C 
HETATM   17  O1  UNL     1      47.958   0.670  38.060  1.00  0.00    -0.057 OA
ENDROOT
BRANCH   1  18
HETATM   18  C2  UNL     1      51.802  -1.198  38.184  1.00  0.00     0.036 C 
HETATM   19  C1  UNL     1      51.746  -2.640  38.547  1.00  0.00     0.038 C 
HETATM   20  C3  UNL     1      53.182  -0.890  37.609  1.00  0.00     0.038 C 
HETATM   21  C4  UNL     1      51.680  -0.414  39.500  1.00  0.00     0.038 C 
ENDBRANCH   1  18
BRANCH  14  22
HETATM   22  C11 UNL     1      46.442   1.589  39.400  1.00  0.00     0.295 C 
BRANCH  22  23
HETATM   23  C12 UNL     1      45.947   0.733  40.516  1.00  0.00     0.153 C 
BRANCH  23  24
HETATM   24  N6  UNL     1      45.712   1.587  41.652  1.00  0.00    -0.363 N 
HETATM   25  C13 UNL     1      44.531   2.343  41.778  1.00  0.00     0.181 C 
HETATM   26  N7  UNL     1      43.411   1.902  41.357  1.00  0.00    -0.374 N 
HETATM   27  N8  UNL     1      44.522   3.649  42.389  1.00  0.00    -0.064 NA
ATOM     28  H72 UNL     1      43.417   0.979  40.926  1.00  0.00     0.158 HD
ATOM     29  H71 UNL     1      42.555   2.450  41.449  1.00  0.00     0.158 HD
ATOM     30  H6  UNL     1      46.421   1.645  42.383  1.00  0.00     0.162 HD
ENDBRANCH  23  24
ENDBRANCH  22  23
ENDBRANCH  14  22
TORSDOF 4
ENDMDL
MODEL 5
REMARK VINA RESULT: -5.784415633      2.382      4.855
REMARK  4 active torsions:
REMARK  status: ('A' for Active; 'I' for Inactive)
REMARK    1  A    between atoms: C2_2  and  N1_5 
REMARK       I    between atoms: N1_5  and  C5_7 
REMARK       I    between atoms: C5_7  and  N3_11 
REMARK    2  A    between atoms: N5_18  and  C11_19 
REMARK    3  A    between atoms: C11_19  and  C12_20 
REMARK    4  A    between atoms: C12_20  and  N6_21 
REMARK       I    between atoms: N6_21  and  C13_23 
ROOT
HETATM    1  N1  UNL     1      38.724  -5.150  30.559  1.00  0.00    -0.217 N 
ATOM      2  H1  UNL     1      38.021  -4.821  29.897  1.00  0.00     0.178 HD
HETATM    3  C5  UNL     1      39.358  -4.184  31.354  1.00  0.00     0.696 C 
HETATM    4  N2  UNL     1      39.733  -4.411  32.527  1.00  0.00    -0.233 N 
ATOM      5  H21 UNL     1      40.194  -3.708  33.106  1.00  0.00     0.174 HD
ATOM      6  H22 UNL     1      39.569  -5.336  32.924  1.00  0.00     0.174 HD
HETATM    7  N3  UNL     1      39.589  -2.883  30.796  1.00  0.00    -0.057 N 
HETATM    8  C6  UNL     1      38.408  -2.064  30.969  1.00  0.00     0.205 C 
HETATM    9  C7  UNL     1      38.526  -1.247  32.201  1.00  0.00     0.260 C 
HETATM   10  N4  UNL     1      39.604  -0.296  32.199  1.00  0.00    -0.066 N 
HETATM   11  C8  UNL     1      39.119   0.807  33.047  1.00  0.00     0.272 C 
HETATM   12  C9  UNL     1      39.849   0.297  30.902  1.00  0.00     0.268 C 
HETATM   13  C10 UNL     1      40.892  -0.350  30.078  1.00  0.00     0.303 C 
HETATM   14  N5  UNL     1      41.441  -1.584  30.580  1.00  0.00     0.072 N 
HETATM   15  C14 UNL     1      41.776  -1.444  31.955  1.00  0.00     0.303 C 
HETATM   16  C15 UNL     1      40.790  -0.780  32.836  1.00  0.00     0.268 C 
HETATM   17  O1  UNL     1      40.772  -2.683  30.249  1.00  0.00    -0.057 OA
ENDROOT
BRANCH   1  18
HETATM   18  C2  UNL     1      38.978  -6.549  30.598  1.00  0.00     0.036 C 
HETATM   19  C1  UNL     1      40.400  -6.976  30.494  1.00  0.00     0.038 C 
HETATM   20  C3  UNL     1      38.366  -7.179  31.847  1.00  0.00     0.038 C 
HETATM   21  C4  UNL     1      38.252  -7.155  29.388  1.00  0.00     0.038 C 
ENDBRANCH   1  18
BRANCH  14  22
HETATM   22  C11 UNL     1      42.738  -1.722  29.866  1.00  0.00     0.295 C 
BRANCH  22  23
HETATM   23  C12 UNL     1      42.631  -2.595  28.662  1.00  0.00     0.153 C 
BRANCH  23  24
HETATM   24  N6  UNL     1      43.142  -1.855  27.538  1.00  0.00    -0.363 N 
HETATM   25  C13 UNL     1      43.816  -2.490  26.477  1.00  0.00     0.181 C 
HETATM   26  N7  UNL     1      43.488  -3.658  26.085  1.00  0.00    -0.374 N 
HETATM   27  N8  UNL     1      44.908  -1.859  25.778  1.00  0.00    -0.064 NA
ATOM     28  H72 UNL     1      42.716  -4.105  26.579  1.00  0.00     0.158 HD
ATOM     29  H71 UNL     1      43.976  -4.119  25.317  1.00  0.00     0.158 HD
ATOM     30  H6  UNL     1      43.012  -0.844  27.509  1.00  0.00     0.162 HD
ENDBRANCH  23  24
ENDBRANCH  22  23
ENDBRANCH  14  22
TORSDOF 4
ENDMDL
