MODEL 1
REMARK VINA RESULT: -6.456319160      0.000      0.000
REMARK  4 active torsions:
REMARK  status: ('A' for Active; 'I' for Inactive)
REMARK    1  A    between atoms: N2_4  and  N3_6 
REMARK       I    between atoms: N3_6  and  C1_8 
REMARK       I    between atoms: C1_8  and  N8_23 
REMARK       I    between atoms: N4_9  and  C2_11 
REMARK       I    between atoms: N6_13  and  C3_15 
REMARK    2  A    between atoms: C3_15  and  C4_17 
REMARK    3  A    between atoms: C4_17  and  C5_18 
REMARK    4  A    between atoms: C5_18  and  N7_19 
REMARK       I    between atoms: N8_23  and  C6_25 
REMARK       I    between atoms: C6_25  and  N9_27 
ROOT
HETATM    1  N3  UNL     1      47.356   0.902  36.246  1.00  0.00    -0.118 N 
ATOM      2  H3  UNL     1      47.709   1.840  36.058  1.00  0.00     0.207 HD
HETATM    3  C1  UNL     1      46.955   0.608  37.571  1.00  0.00     0.704 C 
HETATM    4  N4  UNL     1      47.663  -0.199  38.314  1.00  0.00    -0.162 N 
ATOM      5  H4  UNL     1      47.356  -0.397  39.267  1.00  0.00     0.187 HD
HETATM    6  C2  UNL     1      48.848  -0.807  37.827  1.00  0.00     0.209 C 
HETATM    7  N5  UNL     1      48.814  -2.202  37.556  1.00  0.00    -0.063 NA
HETATM    8  N6  UNL     1      49.911  -0.125  37.638  1.00  0.00    -0.301 N 
ATOM      9  H6  UNL     1      49.874   0.871  37.852  1.00  0.00     0.171 HD
HETATM   10  C3  UNL     1      51.126  -0.638  37.160  1.00  0.00     0.225 C 
HETATM   11  O1  UNL     1      51.572  -0.352  36.009  1.00  0.00    -0.273 OA
HETATM   12  N8  UNL     1      45.770   1.210  38.070  1.00  0.00    -0.140 N 
ATOM     13  H8  UNL     1      45.471   1.006  39.024  1.00  0.00     0.189 HD
HETATM   14  C6  UNL     1      44.993   2.088  37.277  1.00  0.00     0.336 C 
HETATM   15  O2  UNL     1      45.323   2.365  36.098  1.00  0.00    -0.246 OA
HETATM   16  N9  UNL     1      43.813   2.676  37.802  1.00  0.00    -0.334 N 
HETATM   17  C7  UNL     1      43.132   3.549  36.861  1.00  0.00     0.127 C 
HETATM   18  C8  UNL     1      43.610   4.967  36.951  1.00  0.00     0.020 C 
HETATM   19  C9  UNL     1      43.512   5.555  38.326  1.00  0.00     0.002 C 
HETATM   20  C10 UNL     1      42.271   5.203  39.065  1.00  0.00     0.000 C 
HETATM   21  C11 UNL     1      42.621   4.258  40.212  1.00  0.00     0.002 C 
HETATM   22  C12 UNL     1      42.331   2.861  39.749  1.00  0.00     0.020 C 
HETATM   23  C13 UNL     1      43.585   2.248  39.168  1.00  0.00     0.127 C 
ENDROOT
BRANCH   1  24
HETATM   24  N2  UNL     1      47.306   0.017  35.190  1.00  0.00    -0.235 N 
HETATM   25  N1  UNL     1      46.224  -0.511  34.807  1.00  0.00    -0.330 N 
ATOM     26  H12 UNL     1      45.369  -0.263  35.305  1.00  0.00     0.178 HD
ATOM     27  H11 UNL     1      46.187  -1.166  34.025  1.00  0.00     0.178 HD
ATOM     28  H2  UNL     1      48.170  -0.219  34.703  1.00  0.00     0.208 HD
ENDBRANCH   1  24
BRANCH  10  29
HETATM   29  C4  UNL     1      51.949  -1.548  37.999  1.00  0.00     0.130 C 
BRANCH  29  30
HETATM   30  C5  UNL     1      53.399  -1.158  37.997  1.00  0.00     0.238 C 
BRANCH  30  31
HETATM   31  N7  UNL     1      53.487   0.262  38.274  1.00  0.00    -0.079 N 
ATOM     32  H73 UNL     1      54.019   0.465  39.120  1.00  0.00     0.274 HD
ATOM     33  H72 UNL     1      54.084   0.755  37.613  1.00  0.00     0.274 HD
ATOM     34  H71 UNL     1      52.540   0.641  38.307  1.00  0.00     0.274 HD
ENDBRANCH  30  31
ENDBRANCH  29  30
ENDBRANCH  10  29
TORSDOF 4
ENDMDL
MODEL 2
REMARK VINA RESULT: -6.340764308      8.393     10.088
REMARK  4 active torsions:
REMARK  status: ('A' for Active; 'I' for Inactive)
REMARK    1  A    between atoms: N2_4  and  N3_6 
REMARK       I    between atoms: N3_6  and  C1_8 
REMARK       I    between atoms: C1_8  and  N8_23 
REMARK       I    between atoms: N4_9  and  C2_11 
REMARK       I    between atoms: N6_13  and  C3_15 
REMARK    2  A    between atoms: C3_15  and  C4_17 
REMARK    3  A    between atoms: C4_17  and  C5_18 
REMARK    4  A    between atoms: C5_18  and  N7_19 
REMARK       I    between atoms: N8_23  and  C6_25 
REMARK       I    between atoms: C6_25  and  N9_27 
ROOT
HETATM    1  N3  UNL     1      41.911  -1.543  31.656  1.00  0.00    -0.118 N 
ATOM      2  H3  UNL     1      41.472  -2.445  31.843  1.00  0.00     0.207 HD
HETATM    3  C1  UNL     1      41.136  -0.567  30.986  1.00  0.00     0.704 C 
HETATM    4  N4  UNL     1      41.409  -0.236  29.753  1.00  0.00    -0.162 N 
ATOM      5  H4  UNL     1      40.838   0.469  29.288  1.00  0.00     0.187 HD
HETATM    6  C2  UNL     1      42.481  -0.836  29.045  1.00  0.00     0.209 C 
HETATM    7  N5  UNL     1      43.629  -0.041  28.782  1.00  0.00    -0.063 NA
HETATM    8  N6  UNL     1      42.419  -2.051  28.655  1.00  0.00    -0.301 N 
ATOM      9  H6  UNL     1      41.569  -2.571  28.873  1.00  0.00     0.171 HD
HETATM   10  C3  UNL     1      43.426  -2.728  27.952  1.00  0.00     0.225 C 
HETATM   11  O1  UNL     1      44.105  -3.660  28.477  1.00  0.00    -0.273 OA
HETATM   12  N8  UNL     1      40.060   0.041  31.685  1.00  0.00    -0.140 N 
ATOM     13  H8  UNL     1      39.495   0.747  31.212  1.00  0.00     0.189 HD
HETATM   14  C6  UNL     1      39.752  -0.307  33.021  1.00  0.00     0.336 C 
HETATM   15  O2  UNL     1      40.423  -1.168  33.641  1.00  0.00    -0.246 OA
HETATM   16  N9  UNL     1      38.670   0.318  33.695  1.00  0.00    -0.334 N 
HETATM   17  C7  UNL     1      38.489  -0.151  35.059  1.00  0.00     0.127 C 
HETATM   18  C8  UNL     1      37.565  -1.329  35.138  1.00  0.00     0.020 C 
HETATM   19  C9  UNL     1      36.222  -1.091  34.518  1.00  0.00     0.002 C 
HETATM   20  C10 UNL     1      35.643   0.251  34.786  1.00  0.00     0.000 C 
HETATM   21  C11 UNL     1      35.649   1.067  33.495  1.00  0.00     0.002 C 
HETATM   22  C12 UNL     1      36.854   1.959  33.531  1.00  0.00     0.020 C 
HETATM   23  C13 UNL     1      38.011   1.279  32.835  1.00  0.00     0.127 C 
ENDROOT
BRANCH   1  24
HETATM   24  N2  UNL     1      43.212  -1.369  32.076  1.00  0.00    -0.235 N 
HETATM   25  N1  UNL     1      43.507  -0.636  33.062  1.00  0.00    -0.330 N 
ATOM     26  H12 UNL     1      42.746  -0.165  33.552  1.00  0.00     0.178 HD
ATOM     27  H11 UNL     1      44.470  -0.507  33.373  1.00  0.00     0.178 HD
ATOM     28  H2  UNL     1      43.961  -1.847  31.575  1.00  0.00     0.208 HD
ENDBRANCH   1  24
BRANCH  10  29
HETATM   29  C4  UNL     1      43.740  -2.371  26.544  1.00  0.00     0.130 C 
BRANCH  29  30
HETATM   30  C5  UNL     1      43.710  -3.569  25.640  1.00  0.00     0.238 C 
BRANCH  30  31
HETATM   31  N7  UNL     1      44.424  -3.239  24.423  1.00  0.00    -0.079 N 
ATOM     32  H73 UNL     1      43.828  -2.792  23.727  1.00  0.00     0.274 HD
ATOM     33  H72 UNL     1      45.085  -2.473  24.551  1.00  0.00     0.274 HD
ATOM     34  H71 UNL     1      44.869  -4.087  24.073  1.00  0.00     0.274 HD
ENDBRANCH  30  31
ENDBRANCH  29  30
ENDBRANCH  10  29
TORSDOF 4
ENDMDL
MODEL 3
REMARK VINA RESULT: -6.292070264      2.595      8.281
REMARK  4 active torsions:
REMARK  status: ('A' for Active; 'I' for Inactive)
REMARK    1  A    between atoms: N2_4  and  N3_6 
REMARK       I    between atoms: N3_6  and  C1_8 
REMARK       I    between atoms: C1_8  and  N8_23 
REMARK       I    between atoms: N4_9  and  C2_11 
REMARK       I    between atoms: N6_13  and  C3_15 
REMARK    2  A    between atoms: C3_15  and  C4_17 
REMARK    3  A    between atoms: C4_17  and  C5_18 
REMARK    4  A    between atoms: C5_18  and  N7_19 
REMARK       I    between atoms: N8_23  and  C6_25 
REMARK       I    between atoms: C6_25  and  N9_27 
ROOT
HETATM    1  N3  UNL     1      46.893  -1.407  37.022  1.00  0.00    -0.118 N 
ATOM      2  H3  UNL     1      46.684  -1.272  38.011  1.00  0.00     0.207 HD
HETATM    3  C1  UNL     1      47.846  -0.544  36.432  1.00  0.00     0.704 C 
HETATM    4  N4  UNL     1      47.475   0.367  35.574  1.00  0.00    -0.162 N 
ATOM      5  H4  UNL     1      48.179   0.978  35.161  1.00  0.00     0.187 HD
HETATM    6  C2  UNL     1      46.115   0.525  35.203  1.00  0.00     0.209 C 
HETATM    7  N5  UNL     1      45.734   0.124  33.894  1.00  0.00    -0.063 NA
HETATM    8  N6  UNL     1      45.261   1.011  36.018  1.00  0.00    -0.301 N 
ATOM      9  H6  UNL     1      45.595   1.281  36.943  1.00  0.00     0.171 HD
HETATM   10  C3  UNL     1      43.899   1.204  35.742  1.00  0.00     0.225 C 
HETATM   11  O1  UNL     1      42.995   0.510  36.295  1.00  0.00    -0.273 OA
HETATM   12  N8  UNL     1      49.211  -0.694  36.794  1.00  0.00    -0.140 N 
ATOM     13  H8  UNL     1      49.908  -0.078  36.375  1.00  0.00     0.189 HD
HETATM   14  C6  UNL     1      49.629  -1.676  37.723  1.00  0.00     0.336 C 
HETATM   15  O2  UNL     1      48.805  -2.456  38.261  1.00  0.00    -0.246 OA
HETATM   16  N9  UNL     1      51.000  -1.803  38.067  1.00  0.00    -0.334 N 
HETATM   17  C7  UNL     1      51.261  -2.858  39.032  1.00  0.00     0.127 C 
HETATM   18  C8  UNL     1      51.182  -2.369  40.447  1.00  0.00     0.020 C 
HETATM   19  C9  UNL     1      52.080  -1.205  40.738  1.00  0.00     0.002 C 
HETATM   20  C10 UNL     1      53.427  -1.289  40.118  1.00  0.00     0.000 C 
HETATM   21  C11 UNL     1      53.535  -0.247  39.007  1.00  0.00     0.002 C 
HETATM   22  C12 UNL     1      53.270  -0.944  37.706  1.00  0.00     0.020 C 
HETATM   23  C13 UNL     1      51.804  -0.829  37.357  1.00  0.00     0.127 C 
ENDROOT
BRANCH   1  24
HETATM   24  N2  UNL     1      46.224  -2.417  36.363  1.00  0.00    -0.235 N 
HETATM   25  N1  UNL     1      46.773  -3.522  36.095  1.00  0.00    -0.330 N 
ATOM     26  H12 UNL     1      47.743  -3.656  36.382  1.00  0.00     0.178 HD
ATOM     27  H11 UNL     1      46.279  -4.269  35.607  1.00  0.00     0.178 HD
ATOM     28  H2  UNL     1      45.255  -2.266  36.083  1.00  0.00     0.208 HD
ENDBRANCH   1  24
BRANCH  10  29
HETATM   29  C4  UNL     1      43.459   2.246  34.776  1.00  0.00     0.130 C 
BRANCH  29  30
HETATM   30  C5  UNL     1      43.508   3.622  35.373  1.00  0.00     0.238 C 
BRANCH  30  31
HETATM   31  N7  UNL     1      42.702   3.624  36.576  1.00  0.00    -0.079 N 
ATOM     32  H73 UNL     1      42.363   4.555  36.821  1.00  0.00     0.274 HD
ATOM     33  H72 UNL     1      41.795   3.178  36.443  1.00  0.00     0.274 HD
ATOM     34  H71 UNL     1      43.244   3.195  37.326  1.00  0.00     0.274 HD
ENDBRANCH  30  31
ENDBRANCH  29  30
ENDBRANCH  10  29
TORSDOF 4
ENDMDL
MODEL 4
REMARK VINA RESULT: -6.012166352      3.795      8.158
REMARK  4 active torsions:
REMARK  status: ('A' for Active; 'I' for Inactive)
REMARK    1  A    between atoms: N2_4  and  N3_6 
REMARK       I    between atoms: N3_6  and  C1_8 
REMARK       I    between atoms: C1_8  and  N8_23 
REMARK       I    between atoms: N4_9  and  C2_11 
REMARK       I    between atoms: N6_13  and  C3_15 
REMARK    2  A    between atoms: C3_15  and  C4_17 
REMARK    3  A    between atoms: C4_17  and  C5_18 
REMARK    4  A    between atoms: C5_18  and  N7_19 
REMARK       I    between atoms: N8_23  and  C6_25 
REMARK       I    between atoms: C6_25  and  N9_27 
ROOT
HETATM    1  N3  UNL     1      47.146   0.527  36.489  1.00  0.00    -0.118 N 
ATOM      2  H3  UNL     1      47.893   0.650  35.805  1.00  0.00     0.207 HD
HETATM    3  C1  UNL     1      46.893  -0.787  36.951  1.00  0.00     0.704 C 
HETATM    4  N4  UNL     1      45.806  -1.416  36.598  1.00  0.00    -0.162 N 
ATOM      5  H4  UNL     1      45.644  -2.363  36.942  1.00  0.00     0.187 HD
HETATM    6  C2  UNL     1      44.845  -0.815  35.746  1.00  0.00     0.209 C 
HETATM    7  N5  UNL     1      43.604  -0.423  36.318  1.00  0.00    -0.063 NA
HETATM    8  N6  UNL     1      45.085  -0.630  34.505  1.00  0.00    -0.301 N 
ATOM      9  H6  UNL     1      45.993  -0.933  34.152  1.00  0.00     0.171 HD
HETATM   10  C3  UNL     1      44.199  -0.045  33.588  1.00  0.00     0.225 C 
HETATM   11  O1  UNL     1      44.410   1.099  33.085  1.00  0.00    -0.273 OA
HETATM   12  N8  UNL     1      47.848  -1.399  37.805  1.00  0.00    -0.140 N 
ATOM     13  H8  UNL     1      47.676  -2.345  38.146  1.00  0.00     0.189 HD
HETATM   14  C6  UNL     1      49.032  -0.730  38.197  1.00  0.00     0.336 C 
HETATM   15  O2  UNL     1      49.280   0.436  37.803  1.00  0.00    -0.246 OA
HETATM   16  N9  UNL     1      49.968  -1.367  39.052  1.00  0.00    -0.334 N 
HETATM   17  C7  UNL     1      51.126  -0.544  39.358  1.00  0.00     0.127 C 
HETATM   18  C8  UNL     1      52.238  -0.734  38.369  1.00  0.00     0.020 C 
HETATM   19  C9  UNL     1      52.675  -2.159  38.213  1.00  0.00     0.002 C 
HETATM   20  C10 UNL     1      52.749  -2.929  39.482  1.00  0.00     0.000 C 
HETATM   21  C11 UNL     1      51.630  -3.967  39.506  1.00  0.00     0.002 C 
HETATM   22  C12 UNL     1      50.504  -3.399  40.318  1.00  0.00     0.020 C 
HETATM   23  C13 UNL     1      49.523  -2.699  39.406  1.00  0.00     0.127 C 
ENDROOT
BRANCH   1  24
HETATM   24  N2  UNL     1      46.460   1.653  36.891  1.00  0.00    -0.235 N 
HETATM   25  N1  UNL     1      45.754   2.330  36.092  1.00  0.00    -0.330 N 
ATOM     26  H12 UNL     1      45.700   2.021  35.121  1.00  0.00     0.178 HD
ATOM     27  H11 UNL     1      45.247   3.164  36.390  1.00  0.00     0.178 HD
ATOM     28  H2  UNL     1      46.524   1.948  37.866  1.00  0.00     0.208 HD
ENDBRANCH   1  24
BRANCH  10  29
HETATM   29  C4  UNL     1      42.963  -0.754  33.167  1.00  0.00     0.130 C 
BRANCH  29  30
HETATM   30  C5  UNL     1      41.761   0.144  33.198  1.00  0.00     0.238 C 
BRANCH  30  31
HETATM   31  N7  UNL     1      41.786   0.893  34.438  1.00  0.00    -0.079 N 
ATOM     32  H73 UNL     1      42.033   1.873  34.300  1.00  0.00     0.274 HD
ATOM     33  H72 UNL     1      40.855   1.039  34.828  1.00  0.00     0.274 HD
ATOM     34  H71 UNL     1      42.413   0.417  35.087  1.00  0.00     0.274 HD
ENDBRANCH  30  31
ENDBRANCH  29  30
ENDBRANCH  10  29
TORSDOF 4
ENDMDL
MODEL 5
REMARK VINA RESULT: -5.918585204      6.881      9.916
REMARK  4 active torsions:
REMARK  status: ('A' for Active; 'I' for Inactive)
REMARK    1  A    between atoms: N2_4  and  N3_6 
REMARK       I    between atoms: N3_6  and  C1_8 
REMARK       I    between atoms: C1_8  and  N8_23 
REMARK       I    between atoms: N4_9  and  C2_11 
REMARK       I    between atoms: N6_13  and  C3_15 
REMARK    2  A    between atoms: C3_15  and  C4_17 
REMARK    3  A    between atoms: C4_17  and  C5_18 
REMARK    4  A    between atoms: C5_18  and  N7_19 
REMARK       I    between atoms: N8_23  and  C6_25 
REMARK       I    between atoms: C6_25  and  N9_27 
ROOT
HETATM    1  N3  UNL     1      42.285  -1.503  31.459  1.00  0.00    -0.118 N 
ATOM      2  H3  UNL     1      42.853  -2.229  31.896  1.00  0.00     0.207 HD
HETATM    3  C1  UNL     1      41.455  -0.727  32.303  1.00  0.00     0.704 C 
HETATM    4  N4  UNL     1      40.158  -0.869  32.270  1.00  0.00    -0.162 N 
ATOM      5  H4  UNL     1      39.579  -0.299  32.887  1.00  0.00     0.187 HD
HETATM    6  C2  UNL     1      39.536  -1.797  31.396  1.00  0.00     0.209 C 
HETATM    7  N5  UNL     1      38.814  -1.281  30.287  1.00  0.00    -0.063 NA
HETATM    8  N6  UNL     1      39.622  -3.055  31.599  1.00  0.00    -0.301 N 
ATOM      9  H6  UNL     1      40.153  -3.364  32.413  1.00  0.00     0.171 HD
HETATM   10  C3  UNL     1      39.043  -4.045  30.792  1.00  0.00     0.225 C 
HETATM   11  O1  UNL     1      39.740  -4.819  30.070  1.00  0.00    -0.273 OA
HETATM   12  N8  UNL     1      42.067   0.207  33.181  1.00  0.00    -0.140 N 
ATOM     13  H8  UNL     1      41.479   0.772  33.793  1.00  0.00     0.189 HD
HETATM   14  C6  UNL     1      43.471   0.372  33.228  1.00  0.00     0.336 C 
HETATM   15  O2  UNL     1      44.231  -0.302  32.490  1.00  0.00    -0.246 OA
HETATM   16  N9  UNL     1      44.055   1.312  34.116  1.00  0.00    -0.334 N 
HETATM   17  C7  UNL     1      45.505   1.359  34.040  1.00  0.00     0.127 C 
HETATM   18  C8  UNL     1      46.157   0.397  34.987  1.00  0.00     0.020 C 
HETATM   19  C9  UNL     1      45.735   0.570  36.414  1.00  0.00     0.002 C 
HETATM   20  C10 UNL     1      45.603   1.982  36.857  1.00  0.00     0.000 C 
HETATM   21  C11 UNL     1      44.126   2.305  37.072  1.00  0.00     0.002 C 
HETATM   22  C12 UNL     1      43.634   3.006  35.841  1.00  0.00     0.020 C 
HETATM   23  C13 UNL     1      43.037   1.997  34.887  1.00  0.00     0.127 C 
ENDROOT
BRANCH   1  24
HETATM   24  N2  UNL     1      42.384  -1.353  30.092  1.00  0.00    -0.235 N 
HETATM   25  N1  UNL     1      43.457  -1.589  29.467  1.00  0.00    -0.330 N 
ATOM     26  H12 UNL     1      44.265  -1.900  30.006  1.00  0.00     0.178 HD
ATOM     27  H11 UNL     1      43.530  -1.479  28.455  1.00  0.00     0.178 HD
ATOM     28  H2  UNL     1      41.566  -1.043  29.569  1.00  0.00     0.208 HD
ENDBRANCH   1  24
BRANCH  10  29
HETATM   29  C4  UNL     1      37.568  -4.228  30.754  1.00  0.00     0.130 C 
BRANCH  29  30
HETATM   30  C5  UNL     1      37.067  -4.467  29.359  1.00  0.00     0.238 C 
BRANCH  30  31
HETATM   31  N7  UNL     1      37.710  -3.516  28.476  1.00  0.00    -0.079 N 
ATOM     32  H73 UNL     1      37.231  -3.424  27.581  1.00  0.00     0.274 HD
ATOM     33  H72 UNL     1      37.602  -2.552  28.790  1.00  0.00     0.274 HD
ATOM     34  H71 UNL     1      38.688  -3.786  28.371  1.00  0.00     0.274 HD
ENDBRANCH  30  31
ENDBRANCH  29  30
ENDBRANCH  10  29
TORSDOF 4
ENDMDL
