MODEL 1
REMARK VINA RESULT: -6.623545164      0.000      0.000
REMARK  7 active torsions:
REMARK  status: ('A' for Active; 'I' for Inactive)
REMARK    1  A    between atoms: C2_2  and  N1_3 
REMARK    2  A    between atoms: C2_2  and  C5_12 
REMARK    3  A    between atoms: N1_3  and  C3_5 
REMARK    4  A    between atoms: C3_5  and  N2_7 
REMARK       I    between atoms: C5_12  and  N5_14 
REMARK    5  A    between atoms: N5_14  and  C6_15 
REMARK    6  A    between atoms: C6_15  and  C7_16 
REMARK       I    between atoms: C7_16  and  N6_18 
REMARK    7  A    between atoms: C8_20  and  C9_22 
ROOT
HETATM    1  C5  UNL     1      41.544  -0.623  30.912  1.00  0.00     0.314 C 
HETATM    2  O1  UNL     1      40.782   0.343  30.680  1.00  0.00    -0.255 OA
HETATM    3  N5  UNL     1      42.277  -0.823  32.046  1.00  0.00    -0.376 NA
ENDROOT
BRANCH   1   4
HETATM    4  C2  UNL     1      41.702  -1.702  29.850  1.00  0.00     0.187 C 
HETATM    5  C1  UNL     1      40.559  -2.636  29.949  1.00  0.00     0.043 C 
BRANCH   4   6
HETATM    6  N1  UNL     1      42.068  -1.206  28.575  1.00  0.00    -0.353 N 
ATOM      7  H1  UNL     1      41.305  -0.765  28.062  1.00  0.00     0.162 HD
BRANCH   6   8
HETATM    8  C3  UNL     1      43.278  -1.214  27.901  1.00  0.00     0.174 C 
HETATM    9  S1  UNL     1      44.531  -0.320  28.444  1.00  0.00    -0.041 SA
BRANCH   8  10
HETATM   10  N2  UNL     1      43.488  -1.971  26.719  1.00  0.00    -0.310 N 
HETATM   11  C4  UNL     1      43.560  -3.276  26.781  1.00  0.00     0.203 C 
HETATM   12  N3  UNL     1      43.430  -3.945  28.014  1.00  0.00    -0.066 NA
HETATM   13  N4  UNL     1      43.777  -3.965  25.562  1.00  0.00    -0.066 NA
ATOM     14  H2  UNL     1      43.584  -1.497  25.820  1.00  0.00     0.170 HD
ENDBRANCH   8  10
ENDBRANCH   6   8
ENDBRANCH   4   6
ENDBRANCH   1   4
BRANCH   3  15
HETATM   15  C6  UNL     1      43.015  -1.023  33.186  1.00  0.00     0.260 C 
BRANCH  15  16
HETATM   16  C7  UNL     1      43.582   0.258  33.705  1.00  0.00     0.275 C 
HETATM   17  O2  UNL     1      43.805   1.255  32.974  1.00  0.00    -0.266 OA
HETATM   18  N6  UNL     1      43.920   0.430  35.107  1.00  0.00    -0.313 N 
HETATM   19  C8  UNL     1      45.164   0.205  35.437  1.00  0.00     0.100 C 
ATOM     20  H6  UNL     1      43.223   0.711  35.797  1.00  0.00     0.170 HD
HETATM   21  N7  UNL     1      46.077  -0.180  34.431  1.00  0.00    -0.087 NA
BRANCH  19  22
HETATM   22  C9  UNL     1      45.632   0.342  36.815  1.00  0.00     0.059 A 
HETATM   23  C10 UNL     1      47.043   0.947  36.923  1.00  0.00     0.022 A 
HETATM   24  C11 UNL     1      45.816   1.604  37.530  1.00  0.00    -0.037 A 
HETATM   25  C12 UNL     1      45.358   2.935  37.021  1.00  0.00     0.015 C 
HETATM   26  C13 UNL     1      45.824   1.521  39.065  1.00  0.00     0.015 C 
ENDBRANCH  19  22
ENDBRANCH  15  16
ENDBRANCH   3  15
TORSDOF 7
ENDMDL
MODEL 2
REMARK VINA RESULT: -6.494321279      1.727      2.105
REMARK  7 active torsions:
REMARK  status: ('A' for Active; 'I' for Inactive)
REMARK    1  A    between atoms: C2_2  and  N1_3 
REMARK    2  A    between atoms: C2_2  and  C5_12 
REMARK    3  A    between atoms: N1_3  and  C3_5 
REMARK    4  A    between atoms: C3_5  and  N2_7 
REMARK       I    between atoms: C5_12  and  N5_14 
REMARK    5  A    between atoms: N5_14  and  C6_15 
REMARK    6  A    between atoms: C6_15  and  C7_16 
REMARK       I    between atoms: C7_16  and  N6_18 
REMARK    7  A    between atoms: C8_20  and  C9_22 
ROOT
HETATM    1  C5  UNL     1      40.567   0.135  32.457  1.00  0.00     0.314 C 
HETATM    2  O1  UNL     1      39.702   0.646  33.204  1.00  0.00    -0.255 OA
HETATM    3  N5  UNL     1      41.846  -0.191  32.802  1.00  0.00    -0.376 NA
ENDROOT
BRANCH   1   4
HETATM    4  C2  UNL     1      40.199  -0.166  31.010  1.00  0.00     0.187 C 
HETATM    5  C1  UNL     1      39.225   0.849  30.549  1.00  0.00     0.043 C 
BRANCH   4   6
HETATM    6  N1  UNL     1      41.308  -0.471  30.185  1.00  0.00    -0.353 N 
ATOM      7  H1  UNL     1      42.088   0.179  30.273  1.00  0.00     0.162 HD
BRANCH   6   8
HETATM    8  C3  UNL     1      41.521  -1.497  29.279  1.00  0.00     0.174 C 
HETATM    9  S1  UNL     1      40.709  -2.906  29.422  1.00  0.00    -0.041 SA
BRANCH   8  10
HETATM   10  N2  UNL     1      42.446  -1.390  28.208  1.00  0.00    -0.310 N 
HETATM   11  C4  UNL     1      43.706  -1.133  28.454  1.00  0.00     0.203 C 
HETATM   12  N3  UNL     1      44.159  -0.960  29.777  1.00  0.00    -0.066 NA
HETATM   13  N4  UNL     1      44.571  -1.034  27.336  1.00  0.00    -0.066 NA
ATOM     14  H2  UNL     1      42.129  -1.513  27.246  1.00  0.00     0.170 HD
ENDBRANCH   8  10
ENDBRANCH   6   8
ENDBRANCH   4   6
ENDBRANCH   1   4
BRANCH   3  15
HETATM   15  C6  UNL     1      43.134  -0.518  33.149  1.00  0.00     0.260 C 
BRANCH  15  16
HETATM   16  C7  UNL     1      43.843   0.637  33.778  1.00  0.00     0.275 C 
HETATM   17  O2  UNL     1      44.177   1.666  33.140  1.00  0.00    -0.266 OA
HETATM   18  N6  UNL     1      44.199   0.639  35.186  1.00  0.00    -0.313 N 
HETATM   19  C8  UNL     1      45.410   0.245  35.480  1.00  0.00     0.100 C 
ATOM     20  H6  UNL     1      43.539   0.931  35.907  1.00  0.00     0.170 HD
HETATM   21  N7  UNL     1      46.272  -0.145  34.432  1.00  0.00    -0.087 NA
BRANCH  19  22
HETATM   22  C9  UNL     1      45.891   0.200  36.859  1.00  0.00     0.059 A 
HETATM   23  C10 UNL     1      47.265   0.865  37.047  1.00  0.00     0.022 A 
HETATM   24  C11 UNL     1      46.012   1.348  37.757  1.00  0.00    -0.037 A 
HETATM   25  C12 UNL     1      45.469   2.711  37.460  1.00  0.00     0.015 C 
HETATM   26  C13 UNL     1      46.050   1.034  39.261  1.00  0.00     0.015 C 
ENDBRANCH  19  22
ENDBRANCH  15  16
ENDBRANCH   3  15
TORSDOF 7
ENDMDL
MODEL 3
REMARK VINA RESULT: -6.389328148      5.810      8.581
REMARK  7 active torsions:
REMARK  status: ('A' for Active; 'I' for Inactive)
REMARK    1  A    between atoms: C2_2  and  N1_3 
REMARK    2  A    between atoms: C2_2  and  C5_12 
REMARK    3  A    between atoms: N1_3  and  C3_5 
REMARK    4  A    between atoms: C3_5  and  N2_7 
REMARK       I    between atoms: C5_12  and  N5_14 
REMARK    5  A    between atoms: N5_14  and  C6_15 
REMARK    6  A    between atoms: C6_15  and  C7_16 
REMARK       I    between atoms: C7_16  and  N6_18 
REMARK    7  A    between atoms: C8_20  and  C9_22 
ROOT
HETATM    1  C5  UNL     1      45.942   0.574  34.410  1.00  0.00     0.314 C 
HETATM    2  O1  UNL     1      45.716   0.946  33.237  1.00  0.00    -0.255 OA
HETATM    3  N5  UNL     1      46.853  -0.365  34.802  1.00  0.00    -0.376 NA
ENDROOT
BRANCH   1   4
HETATM    4  C2  UNL     1      45.140   1.198  35.544  1.00  0.00     0.187 C 
HETATM    5  C1  UNL     1      43.919   0.391  35.762  1.00  0.00     0.043 C 
BRANCH   4   6
HETATM    6  N1  UNL     1      45.921   1.570  36.665  1.00  0.00    -0.353 N 
ATOM      7  H1  UNL     1      46.866   1.187  36.663  1.00  0.00     0.162 HD
BRANCH   6   8
HETATM    8  C3  UNL     1      45.628   2.360  37.764  1.00  0.00     0.174 C 
HETATM    9  S1  UNL     1      44.608   3.626  37.621  1.00  0.00    -0.041 SA
BRANCH   8  10
HETATM   10  N2  UNL     1      46.196   2.129  39.044  1.00  0.00    -0.310 N 
HETATM   11  C4  UNL     1      45.732   1.168  39.803  1.00  0.00     0.203 C 
HETATM   12  N3  UNL     1      44.669   0.356  39.363  1.00  0.00    -0.066 NA
HETATM   13  N4  UNL     1      46.344   1.000  41.070  1.00  0.00    -0.066 NA
ATOM     14  H2  UNL     1      46.967   2.711  39.373  1.00  0.00     0.170 HD
ENDBRANCH   8  10
ENDBRANCH   6   8
ENDBRANCH   4   6
ENDBRANCH   1   4
BRANCH   3  15
HETATM   15  C6  UNL     1      47.768  -1.309  35.195  1.00  0.00     0.260 C 
BRANCH  15  16
HETATM   16  C7  UNL     1      47.675  -1.585  36.661  1.00  0.00     0.275 C 
HETATM   17  O2  UNL     1      46.589  -1.586  37.291  1.00  0.00    -0.266 OA
HETATM   18  N6  UNL     1      48.855  -1.869  37.459  1.00  0.00    -0.313 N 
HETATM   19  C8  UNL     1      49.391  -0.855  38.086  1.00  0.00     0.100 C 
ATOM     20  H6  UNL     1      49.244  -2.810  37.527  1.00  0.00     0.170 HD
HETATM   21  N7  UNL     1      48.799   0.420  37.950  1.00  0.00    -0.087 NA
BRANCH  19  22
HETATM   22  C9  UNL     1      50.580  -1.009  38.921  1.00  0.00     0.059 A 
HETATM   23  C10 UNL     1      51.289  -2.361  38.731  1.00  0.00     0.022 A 
HETATM   24  C11 UNL     1      51.961  -1.031  38.442  1.00  0.00    -0.037 A 
HETATM   25  C12 UNL     1      52.372  -0.696  37.042  1.00  0.00     0.015 C 
HETATM   26  C13 UNL     1      53.046  -0.702  39.479  1.00  0.00     0.015 C 
ENDBRANCH  19  22
ENDBRANCH  15  16
ENDBRANCH   3  15
TORSDOF 7
ENDMDL
MODEL 4
REMARK VINA RESULT: -6.386503486      5.438      8.243
REMARK  7 active torsions:
REMARK  status: ('A' for Active; 'I' for Inactive)
REMARK    1  A    between atoms: C2_2  and  N1_3 
REMARK    2  A    between atoms: C2_2  and  C5_12 
REMARK    3  A    between atoms: N1_3  and  C3_5 
REMARK    4  A    between atoms: C3_5  and  N2_7 
REMARK       I    between atoms: C5_12  and  N5_14 
REMARK    5  A    between atoms: N5_14  and  C6_15 
REMARK    6  A    between atoms: C6_15  and  C7_16 
REMARK       I    between atoms: C7_16  and  N6_18 
REMARK    7  A    between atoms: C8_20  and  C9_22 
ROOT
HETATM    1  C5  UNL     1      45.292   0.289  34.071  1.00  0.00     0.314 C 
HETATM    2  O1  UNL     1      45.036   0.260  32.846  1.00  0.00    -0.255 OA
HETATM    3  N5  UNL     1      46.246  -0.442  34.717  1.00  0.00    -0.376 NA
ENDROOT
BRANCH   1   4
HETATM    4  C2  UNL     1      44.479   1.213  34.966  1.00  0.00     0.187 C 
HETATM    5  C1  UNL     1      43.425   0.418  35.636  1.00  0.00     0.043 C 
BRANCH   4   6
HETATM    6  N1  UNL     1      45.263   2.098  35.746  1.00  0.00    -0.353 N 
ATOM      7  H1  UNL     1      46.268   2.002  35.604  1.00  0.00     0.162 HD
BRANCH   6   8
HETATM    8  C3  UNL     1      44.908   3.069  36.666  1.00  0.00     0.174 C 
HETATM    9  S1  UNL     1      43.707   4.123  36.331  1.00  0.00    -0.041 SA
BRANCH   8  10
HETATM   10  N2  UNL     1      45.561   3.210  37.918  1.00  0.00    -0.310 N 
HETATM   11  C4  UNL     1      45.116   2.562  38.966  1.00  0.00     0.203 C 
HETATM   12  N3  UNL     1      43.991   1.720  38.865  1.00  0.00    -0.066 NA
HETATM   13  N4  UNL     1      45.814   2.755  40.183  1.00  0.00    -0.066 NA
ATOM     14  H2  UNL     1      46.376   3.817  38.003  1.00  0.00     0.170 HD
ENDBRANCH   8  10
ENDBRANCH   6   8
ENDBRANCH   4   6
ENDBRANCH   1   4
BRANCH   3  15
HETATM   15  C6  UNL     1      47.205  -1.178  35.367  1.00  0.00     0.260 C 
BRANCH  15  16
HETATM   16  C7  UNL     1      47.868  -0.385  36.446  1.00  0.00     0.275 C 
HETATM   17  O2  UNL     1      47.530   0.788  36.740  1.00  0.00    -0.266 OA
HETATM   18  N6  UNL     1      48.964  -0.929  37.229  1.00  0.00    -0.313 N 
HETATM   19  C8  UNL     1      50.170  -0.640  36.821  1.00  0.00     0.100 C 
ATOM     20  H6  UNL     1      48.799  -1.506  38.054  1.00  0.00     0.170 HD
HETATM   21  N7  UNL     1      50.325   0.166  35.672  1.00  0.00    -0.087 NA
BRANCH  19  22
HETATM   22  C9  UNL     1      51.357  -1.126  37.521  1.00  0.00     0.059 A 
HETATM   23  C10 UNL     1      51.426  -0.674  38.991  1.00  0.00     0.022 A 
HETATM   24  C11 UNL     1      51.368  -2.135  38.579  1.00  0.00    -0.037 A 
HETATM   25  C12 UNL     1      50.184  -2.967  38.963  1.00  0.00     0.015 C 
HETATM   26  C13 UNL     1      52.706  -2.850  38.823  1.00  0.00     0.015 C 
ENDBRANCH  19  22
ENDBRANCH  15  16
ENDBRANCH   3  15
TORSDOF 7
ENDMDL
MODEL 5
REMARK VINA RESULT: -6.320642509      2.082      3.076
REMARK  7 active torsions:
REMARK  status: ('A' for Active; 'I' for Inactive)
REMARK    1  A    between atoms: C2_2  and  N1_3 
REMARK    2  A    between atoms: C2_2  and  C5_12 
REMARK    3  A    between atoms: N1_3  and  C3_5 
REMARK    4  A    between atoms: C3_5  and  N2_7 
REMARK       I    between atoms: C5_12  and  N5_14 
REMARK    5  A    between atoms: N5_14  and  C6_15 
REMARK    6  A    between atoms: C6_15  and  C7_16 
REMARK       I    between atoms: C7_16  and  N6_18 
REMARK    7  A    between atoms: C8_20  and  C9_22 
ROOT
HETATM    1  C5  UNL     1      41.529  -0.401  33.764  1.00  0.00     0.314 C 
HETATM    2  O1  UNL     1      40.317  -0.181  33.988  1.00  0.00    -0.255 OA
HETATM    3  N5  UNL     1      42.581   0.368  34.171  1.00  0.00    -0.376 NA
ENDROOT
BRANCH   1   4
HETATM    4  C2  UNL     1      41.912  -1.635  32.959  1.00  0.00     0.187 C 
HETATM    5  C1  UNL     1      40.853  -2.655  33.123  1.00  0.00     0.043 C 
BRANCH   4   6
HETATM    6  N1  UNL     1      42.386  -1.348  31.656  1.00  0.00    -0.353 N 
ATOM      7  H1  UNL     1      43.373  -1.096  31.615  1.00  0.00     0.162 HD
BRANCH   6   8
HETATM    8  C3  UNL     1      41.747  -1.350  30.427  1.00  0.00     0.174 C 
HETATM    9  S1  UNL     1      40.342  -0.544  30.227  1.00  0.00    -0.041 SA
BRANCH   8  10
HETATM   10  N2  UNL     1      42.258  -2.048  29.302  1.00  0.00    -0.310 N 
HETATM   11  C4  UNL     1      43.371  -1.654  28.736  1.00  0.00     0.203 C 
HETATM   12  N3  UNL     1      44.073  -0.538  29.233  1.00  0.00    -0.066 NA
HETATM   13  N4  UNL     1      43.817  -2.394  27.614  1.00  0.00    -0.066 NA
ATOM     14  H2  UNL     1      41.757  -2.857  28.933  1.00  0.00     0.170 HD
ENDBRANCH   8  10
ENDBRANCH   6   8
ENDBRANCH   4   6
ENDBRANCH   1   4
BRANCH   3  15
HETATM   15  C6  UNL     1      43.639   1.141  34.579  1.00  0.00     0.260 C 
BRANCH  15  16
HETATM   16  C7  UNL     1      44.906   0.745  33.892  1.00  0.00     0.275 C 
HETATM   17  O2  UNL     1      44.931   0.223  32.750  1.00  0.00    -0.266 OA
HETATM   18  N6  UNL     1      46.204   0.937  34.515  1.00  0.00    -0.313 N 
HETATM   19  C8  UNL     1      46.697  -0.088  35.158  1.00  0.00     0.100 C 
ATOM     20  H6  UNL     1      46.703   1.824  34.453  1.00  0.00     0.170 HD
HETATM   21  N7  UNL     1      45.953  -1.287  35.202  1.00  0.00    -0.087 NA
BRANCH  19  22
HETATM   22  C9  UNL     1      47.994  -0.023  35.828  1.00  0.00     0.059 A 
HETATM   23  C10 UNL     1      47.922   0.589  37.238  1.00  0.00     0.022 A 
HETATM   24  C11 UNL     1      48.400  -0.829  36.979  1.00  0.00    -0.037 A 
HETATM   25  C12 UNL     1      47.616  -1.986  37.516  1.00  0.00     0.015 C 
HETATM   26  C13 UNL     1      49.912  -0.974  37.208  1.00  0.00     0.015 C 
ENDBRANCH  19  22
ENDBRANCH  15  16
ENDBRANCH   3  15
TORSDOF 7
ENDMDL
