MODEL 1
REMARK VINA RESULT: -6.380901902      0.000      0.000
REMARK  5 active torsions:
REMARK  status: ('A' for Active; 'I' for Inactive)
REMARK    1  A    between atoms: C3_3  and  C4_4 
REMARK    2  A    between atoms: C5_5  and  C6_6 
REMARK    3  A    between atoms: C6_6  and  N1_7 
REMARK       I    between atoms: N1_7  and  C7_9 
REMARK       I    between atoms: C7_9  and  N3_13 
REMARK       I    between atoms: C8_15  and  N5_17 
REMARK    4  A    between atoms: N6_21  and  C13_23 
REMARK    5  A    between atoms: C13_23  and  N7_24 
REMARK       I    between atoms: N7_24  and  C14_26 
ROOT
HETATM    1  C1  UNL     1      49.848   0.136  44.830  1.00  0.00     0.113 C 
HETATM    2  C2  UNL     1      50.038  -0.242  43.423  1.00  0.00    -0.097 C 
HETATM    3  C3  UNL     1      50.209  -0.569  42.261  1.00  0.00    -0.015 C 
ENDROOT
BRANCH   3   4
HETATM    4  C4  UNL     1      50.409  -0.928  40.905  1.00  0.00    -0.013 C 
HETATM    5  C5  UNL     1      50.573  -1.217  39.747  1.00  0.00    -0.072 C 
BRANCH   5   6
HETATM    6  C6  UNL     1      50.790  -1.548  38.324  1.00  0.00     0.233 C 
BRANCH   6   7
HETATM    7  N1  UNL     1      50.629  -0.349  37.535  1.00  0.00    -0.216 N 
HETATM    8  C7  UNL     1      49.797  -0.389  36.383  1.00  0.00     0.674 C 
HETATM    9  N2  UNL     1      49.865   0.531  35.468  1.00  0.00    -0.235 N 
HETATM   10  N3  UNL     1      48.887  -1.451  36.245  1.00  0.00    -0.164 N 
ATOM     11  H22 UNL     1      50.526   1.303  35.568  1.00  0.00     0.174 HD
ATOM     12  H21 UNL     1      49.268   0.503  34.641  1.00  0.00     0.174 HD
HETATM   13  C8  UNL     1      47.624  -1.417  36.408  1.00  0.00     0.206 C 
ATOM     14  H3  UNL     1      49.283  -2.353  35.983  1.00  0.00     0.187 HD
HETATM   15  N4  UNL     1      46.871  -2.596  36.222  1.00  0.00    -0.063 NA
HETATM   16  N5  UNL     1      46.955  -0.225  36.771  1.00  0.00    -0.331 N 
HETATM   17  C9  UNL     1      47.290   0.531  37.965  1.00  0.00     0.129 C 
HETATM   18  C15 UNL     1      45.894   0.245  35.899  1.00  0.00     0.365 C 
HETATM   19  C10 UNL     1      46.093   1.070  38.684  1.00  0.00     0.048 C 
HETATM   20  C11 UNL     1      44.814   0.947  37.921  1.00  0.00     0.242 C 
HETATM   21  N6  UNL     1      45.013   1.199  36.492  1.00  0.00    -0.039 N 
HETATM   22  C12 UNL     1      45.601   2.537  36.392  1.00  0.00     0.276 C 
ATOM     23  H1  UNL     1      51.104   0.514  37.801  1.00  0.00     0.178 HD
BRANCH  21  24
HETATM   24  C13 UNL     1      43.710   1.155  35.893  1.00  0.00     0.364 C 
BRANCH  24  25
HETATM   25  N7  UNL     1      43.534   0.104  34.921  1.00  0.00    -0.321 N 
HETATM   26  C14 UNL     1      43.612   0.427  33.554  1.00  0.00     0.330 C 
HETATM   27  N8  UNL     1      43.444  -0.582  32.575  1.00  0.00    -0.040 NA
HETATM   28  O1  UNL     1      43.831   1.608  33.195  1.00  0.00    -0.251 OA
ATOM     29  H7  UNL     1      43.357  -0.856  35.219  1.00  0.00     0.165 HD
ENDBRANCH  24  25
ENDBRANCH  21  24
ENDBRANCH   6   7
ENDBRANCH   5   6
ENDBRANCH   3   4
TORSDOF 5
ENDMDL
MODEL 2
REMARK VINA RESULT: -6.263765734      3.515      5.417
REMARK  5 active torsions:
REMARK  status: ('A' for Active; 'I' for Inactive)
REMARK    1  A    between atoms: C3_3  and  C4_4 
REMARK    2  A    between atoms: C5_5  and  C6_6 
REMARK    3  A    between atoms: C6_6  and  N1_7 
REMARK       I    between atoms: N1_7  and  C7_9 
REMARK       I    between atoms: C7_9  and  N3_13 
REMARK       I    between atoms: C8_15  and  N5_17 
REMARK    4  A    between atoms: N6_21  and  C13_23 
REMARK    5  A    between atoms: C13_23  and  N7_24 
REMARK       I    between atoms: N7_24  and  C14_26 
ROOT
HETATM    1  C1  UNL     1      52.687  -0.982  38.180  1.00  0.00     0.113 C 
HETATM    2  C2  UNL     1      51.374  -0.915  37.525  1.00  0.00    -0.097 C 
HETATM    3  C3  UNL     1      50.277  -0.868  36.997  1.00  0.00    -0.015 C 
ENDROOT
BRANCH   3   4
HETATM    4  C4  UNL     1      49.008  -0.822  36.366  1.00  0.00    -0.013 C 
HETATM    5  C5  UNL     1      47.933  -0.801  35.825  1.00  0.00    -0.072 C 
BRANCH   5   6
HETATM    6  C6  UNL     1      46.605  -0.797  35.176  1.00  0.00     0.233 C 
BRANCH   6   7
HETATM    7  N1  UNL     1      46.367   0.509  34.607  1.00  0.00    -0.216 N 
HETATM    8  C7  UNL     1      45.028   0.973  34.483  1.00  0.00     0.674 C 
HETATM    9  N2  UNL     1      44.726   1.966  33.702  1.00  0.00    -0.235 N 
HETATM   10  N3  UNL     1      44.022   0.334  35.228  1.00  0.00    -0.164 N 
ATOM     11  H22 UNL     1      45.457   2.430  33.161  1.00  0.00     0.174 HD
ATOM     12  H21 UNL     1      43.766   2.298  33.613  1.00  0.00     0.174 HD
HETATM   13  C8  UNL     1      43.433   0.770  36.270  1.00  0.00     0.206 C 
ATOM     14  H3  UNL     1      43.729  -0.585  34.896  1.00  0.00     0.187 HD
HETATM   15  N4  UNL     1      42.439  -0.023  36.884  1.00  0.00    -0.063 NA
HETATM   16  N5  UNL     1      43.749   2.029  36.829  1.00  0.00    -0.331 N 
HETATM   17  C9  UNL     1      45.094   2.387  37.245  1.00  0.00     0.129 C 
HETATM   18  C15 UNL     1      42.671   2.989  36.984  1.00  0.00     0.365 C 
HETATM   19  C10 UNL     1      45.135   3.162  38.525  1.00  0.00     0.048 C 
HETATM   20  C11 UNL     1      43.798   3.630  39.000  1.00  0.00     0.242 C 
HETATM   21  N6  UNL     1      42.951   4.059  37.885  1.00  0.00    -0.039 N 
HETATM   22  C12 UNL     1      43.698   5.107  37.185  1.00  0.00     0.276 C 
ATOM     23  H1  UNL     1      47.146   1.090  34.299  1.00  0.00     0.178 HD
BRANCH  21  24
HETATM   24  C13 UNL     1      41.749   4.579  38.473  1.00  0.00     0.364 C 
BRANCH  24  25
HETATM   25  N7  UNL     1      41.002   5.469  37.619  1.00  0.00    -0.321 N 
HETATM   26  C14 UNL     1      39.598   5.378  37.611  1.00  0.00     0.330 C 
HETATM   27  N8  UNL     1      38.836   6.238  36.783  1.00  0.00    -0.040 NA
HETATM   28  O1  UNL     1      39.015   4.537  38.335  1.00  0.00    -0.251 OA
ATOM     29  H7  UNL     1      41.482   6.151  37.032  1.00  0.00     0.165 HD
ENDBRANCH  24  25
ENDBRANCH  21  24
ENDBRANCH   6   7
ENDBRANCH   5   6
ENDBRANCH   3   4
TORSDOF 5
ENDMDL
MODEL 3
REMARK VINA RESULT: -6.131753452      3.530      5.386
REMARK  5 active torsions:
REMARK  status: ('A' for Active; 'I' for Inactive)
REMARK    1  A    between atoms: C3_3  and  C4_4 
REMARK    2  A    between atoms: C5_5  and  C6_6 
REMARK    3  A    between atoms: C6_6  and  N1_7 
REMARK       I    between atoms: N1_7  and  C7_9 
REMARK       I    between atoms: C7_9  and  N3_13 
REMARK       I    between atoms: C8_15  and  N5_17 
REMARK    4  A    between atoms: N6_21  and  C13_23 
REMARK    5  A    between atoms: C13_23  and  N7_24 
REMARK       I    between atoms: N7_24  and  C14_26 
ROOT
HETATM    1  C1  UNL     1      53.519  -1.156  38.416  1.00  0.00     0.113 C 
HETATM    2  C2  UNL     1      52.161  -1.094  37.857  1.00  0.00    -0.097 C 
HETATM    3  C3  UNL     1      51.037  -1.061  37.391  1.00  0.00    -0.015 C 
ENDROOT
BRANCH   3   4
HETATM    4  C4  UNL     1      49.734  -1.007  36.836  1.00  0.00    -0.013 C 
HETATM    5  C5  UNL     1      48.630  -0.975  36.353  1.00  0.00    -0.072 C 
BRANCH   5   6
HETATM    6  C6  UNL     1      47.273  -0.964  35.769  1.00  0.00     0.233 C 
BRANCH   6   7
HETATM    7  N1  UNL     1      47.073   0.287  35.076  1.00  0.00    -0.216 N 
HETATM    8  C7  UNL     1      45.750   0.683  34.737  1.00  0.00     0.674 C 
HETATM    9  N2  UNL     1      45.527   1.605  33.849  1.00  0.00    -0.235 N 
HETATM   10  N3  UNL     1      44.672   0.056  35.385  1.00  0.00    -0.164 N 
ATOM     11  H22 UNL     1      46.309   2.061  33.379  1.00  0.00     0.174 HD
ATOM     12  H21 UNL     1      44.578   1.889  33.607  1.00  0.00     0.174 HD
HETATM   13  C8  UNL     1      43.930   0.538  36.301  1.00  0.00     0.206 C 
ATOM     14  H3  UNL     1      44.458  -0.896  35.086  1.00  0.00     0.187 HD
HETATM   15  N4  UNL     1      42.887  -0.251  36.833  1.00  0.00    -0.063 NA
HETATM   16  N5  UNL     1      44.125   1.845  36.801  1.00  0.00    -0.331 N 
HETATM   17  C9  UNL     1      45.387   2.289  37.368  1.00  0.00     0.129 C 
HETATM   18  C15 UNL     1      43.005   2.767  36.735  1.00  0.00     0.365 C 
HETATM   19  C10 UNL     1      45.224   3.153  38.579  1.00  0.00     0.048 C 
HETATM   20  C11 UNL     1      43.820   3.596  38.832  1.00  0.00     0.242 C 
HETATM   21  N6  UNL     1      43.122   3.909  37.583  1.00  0.00    -0.039 N 
HETATM   22  C12 UNL     1      43.924   4.937  36.914  1.00  0.00     0.276 C 
ATOM     23  H1  UNL     1      47.869   0.877  34.833  1.00  0.00     0.178 HD
BRANCH  21  24
HETATM   24  C13 UNL     1      41.834   4.417  37.962  1.00  0.00     0.364 C 
BRANCH  24  25
HETATM   25  N7  UNL     1      41.872   5.450  38.968  1.00  0.00    -0.321 N 
HETATM   26  C14 UNL     1      40.919   5.421  40.003  1.00  0.00     0.330 C 
HETATM   27  N8  UNL     1      40.930   6.422  41.005  1.00  0.00    -0.040 NA
HETATM   28  O1  UNL     1      40.058   4.512  40.043  1.00  0.00    -0.251 OA
ATOM     29  H7  UNL     1      42.576   6.187  38.930  1.00  0.00     0.165 HD
ENDBRANCH  24  25
ENDBRANCH  21  24
ENDBRANCH   6   7
ENDBRANCH   5   6
ENDBRANCH   3   4
TORSDOF 5
ENDMDL
MODEL 4
REMARK VINA RESULT: -6.003834109      3.262      4.678
REMARK  5 active torsions:
REMARK  status: ('A' for Active; 'I' for Inactive)
REMARK    1  A    between atoms: C3_3  and  C4_4 
REMARK    2  A    between atoms: C5_5  and  C6_6 
REMARK    3  A    between atoms: C6_6  and  N1_7 
REMARK       I    between atoms: N1_7  and  C7_9 
REMARK       I    between atoms: C7_9  and  N3_13 
REMARK       I    between atoms: C8_15  and  N5_17 
REMARK    4  A    between atoms: N6_21  and  C13_23 
REMARK    5  A    between atoms: C13_23  and  N7_24 
REMARK       I    between atoms: N7_24  and  C14_26 
ROOT
HETATM    1  C1  UNL     1      53.477  -0.884  38.921  1.00  0.00     0.113 C 
HETATM    2  C2  UNL     1      52.187  -0.901  38.217  1.00  0.00    -0.097 C 
HETATM    3  C3  UNL     1      51.113  -0.899  37.643  1.00  0.00    -0.015 C 
ENDROOT
BRANCH   3   4
HETATM    4  C4  UNL     1      49.860  -0.917  36.980  1.00  0.00    -0.013 C 
HETATM    5  C5  UNL     1      48.799  -0.950  36.412  1.00  0.00    -0.072 C 
BRANCH   5   6
HETATM    6  C6  UNL     1      47.490  -1.013  35.730  1.00  0.00     0.233 C 
BRANCH   6   7
HETATM    7  N1  UNL     1      47.256   0.239  35.050  1.00  0.00    -0.216 N 
HETATM    8  C7  UNL     1      45.926   0.586  34.682  1.00  0.00     0.674 C 
HETATM    9  N2  UNL     1      45.688   1.512  33.802  1.00  0.00    -0.235 N 
HETATM   10  N3  UNL     1      44.859  -0.095  35.291  1.00  0.00    -0.164 N 
ATOM     11  H22 UNL     1      46.463   2.007  33.360  1.00  0.00     0.174 HD
ATOM     12  H21 UNL     1      44.735   1.760  33.539  1.00  0.00     0.174 HD
HETATM   13  C8  UNL     1      44.075   0.341  36.195  1.00  0.00     0.206 C 
ATOM     14  H3  UNL     1      44.693  -1.050  34.973  1.00  0.00     0.187 HD
HETATM   15  N4  UNL     1      43.052  -0.498  36.688  1.00  0.00    -0.063 NA
HETATM   16  N5  UNL     1      44.202   1.648  36.720  1.00  0.00    -0.331 N 
HETATM   17  C9  UNL     1      45.429   2.134  37.325  1.00  0.00     0.129 C 
HETATM   18  C15 UNL     1      43.047   2.523  36.638  1.00  0.00     0.365 C 
HETATM   19  C10 UNL     1      45.200   2.971  38.545  1.00  0.00     0.048 C 
HETATM   20  C11 UNL     1      43.772   3.352  38.767  1.00  0.00     0.242 C 
HETATM   21  N6  UNL     1      43.094   3.656  37.504  1.00  0.00    -0.039 N 
HETATM   22  C12 UNL     1      43.869   4.726  36.872  1.00  0.00     0.276 C 
ATOM     23  H1  UNL     1      48.032   0.866  34.837  1.00  0.00     0.178 HD
BRANCH  21  24
HETATM   24  C13 UNL     1      41.777   4.104  37.857  1.00  0.00     0.364 C 
BRANCH  24  25
HETATM   25  N7  UNL     1      40.766   3.825  36.867  1.00  0.00    -0.321 N 
HETATM   26  C14 UNL     1      39.413   3.985  37.218  1.00  0.00     0.330 C 
HETATM   27  N8  UNL     1      38.397   3.719  36.268  1.00  0.00    -0.040 NA
HETATM   28  O1  UNL     1      39.100   4.363  38.371  1.00  0.00    -0.251 OA
ATOM     29  H7  UNL     1      41.027   3.517  35.929  1.00  0.00     0.165 HD
ENDBRANCH  24  25
ENDBRANCH  21  24
ENDBRANCH   6   7
ENDBRANCH   5   6
ENDBRANCH   3   4
TORSDOF 5
ENDMDL
MODEL 5
REMARK VINA RESULT: -5.983351347      3.393      5.320
REMARK  5 active torsions:
REMARK  status: ('A' for Active; 'I' for Inactive)
REMARK    1  A    between atoms: C3_3  and  C4_4 
REMARK    2  A    between atoms: C5_5  and  C6_6 
REMARK    3  A    between atoms: C6_6  and  N1_7 
REMARK       I    between atoms: N1_7  and  C7_9 
REMARK       I    between atoms: C7_9  and  N3_13 
REMARK       I    between atoms: C8_15  and  N5_17 
REMARK    4  A    between atoms: N6_21  and  C13_23 
REMARK    5  A    between atoms: C13_23  and  N7_24 
REMARK       I    between atoms: N7_24  and  C14_26 
ROOT
HETATM    1  C1  UNL     1      53.522  -1.643  38.313  1.00  0.00     0.113 C 
HETATM    2  C2  UNL     1      52.196  -1.281  37.794  1.00  0.00    -0.097 C 
HETATM    3  C3  UNL     1      51.099  -0.963  37.371  1.00  0.00    -0.015 C 
ENDROOT
BRANCH   3   4
HETATM    4  C4  UNL     1      49.814  -0.611  36.888  1.00  0.00    -0.013 C 
HETATM    5  C5  UNL     1      48.725  -0.321  36.461  1.00  0.00    -0.072 C 
BRANCH   5   6
HETATM    6  C6  UNL     1      47.385   0.007  35.934  1.00  0.00     0.233 C 
BRANCH   6   7
HETATM    7  N1  UNL     1      46.686   0.817  36.904  1.00  0.00    -0.216 N 
HETATM    8  C7  UNL     1      45.875   1.892  36.449  1.00  0.00     0.674 C 
HETATM    9  N2  UNL     1      45.493   2.839  37.253  1.00  0.00    -0.235 N 
HETATM   10  N3  UNL     1      45.486   1.919  35.098  1.00  0.00    -0.164 N 
ATOM     11  H22 UNL     1      45.774   2.820  38.233  1.00  0.00     0.174 HD
ATOM     12  H21 UNL     1      44.911   3.610  36.926  1.00  0.00     0.174 HD
HETATM   13  C8  UNL     1      44.338   1.650  34.616  1.00  0.00     0.206 C 
ATOM     14  H3  UNL     1      46.207   2.184  34.427  1.00  0.00     0.187 HD
HETATM   15  N4  UNL     1      44.139   1.733  33.221  1.00  0.00    -0.063 NA
HETATM   16  N5  UNL     1      43.257   1.269  35.443  1.00  0.00    -0.331 N 
HETATM   17  C9  UNL     1      43.321   0.132  36.345  1.00  0.00     0.129 C 
HETATM   18  C15 UNL     1      42.043   2.062  35.373  1.00  0.00     0.365 C 
HETATM   19  C10 UNL     1      42.057  -0.668  36.383  1.00  0.00     0.048 C 
HETATM   20  C11 UNL     1      40.901  -0.022  35.692  1.00  0.00     0.242 C 
HETATM   21  N6  UNL     1      40.884   1.426  35.911  1.00  0.00    -0.039 N 
HETATM   22  C12 UNL     1      40.849   1.618  37.364  1.00  0.00     0.276 C 
ATOM     23  H1  UNL     1      46.772   0.620  37.902  1.00  0.00     0.178 HD
BRANCH  21  24
HETATM   24  C13 UNL     1      39.683   1.910  35.292  1.00  0.00     0.364 C 
BRANCH  24  25
HETATM   25  N7  UNL     1      39.306   3.246  35.683  1.00  0.00    -0.321 N 
HETATM   26  C14 UNL     1      37.989   3.677  35.434  1.00  0.00     0.330 C 
HETATM   27  N8  UNL     1      37.588   4.983  35.805  1.00  0.00    -0.040 NA
HETATM   28  O1  UNL     1      37.167   2.909  34.882  1.00  0.00    -0.251 OA
ATOM     29  H7  UNL     1      39.980   3.867  36.132  1.00  0.00     0.165 HD
ENDBRANCH  24  25
ENDBRANCH  21  24
ENDBRANCH   6   7
ENDBRANCH   5   6
ENDBRANCH   3   4
TORSDOF 5
ENDMDL
