MODEL 1
REMARK VINA RESULT: -5.597914665      0.000      0.000
REMARK  8 active torsions:
REMARK  status: ('A' for Active; 'I' for Inactive)
REMARK    1  A    between atoms: C1_2  and  N1_3 
REMARK    2  A    between atoms: N1_3  and  C2_5 
REMARK    3  A    between atoms: C2_5  and  C3_6 
REMARK    4  A    between atoms: C3_6  and  C4_7 
REMARK    5  A    between atoms: C4_7  and  N2_8 
REMARK    6  A    between atoms: N2_8  and  C5_10 
REMARK    7  A    between atoms: C5_10  and  C6_11 
REMARK    8  A    between atoms: C6_11  and  N3_12 
ROOT
HETATM    1  N3  UNL     1      -7.359  11.212  74.172  1.00  0.00    -0.349 N 
HETATM    2  C7  UNL     1      -7.483  12.115  73.104  1.00  0.00     0.095 C 
HETATM    3  C8  UNL     1      -6.494  13.207  72.971  1.00  0.00     0.277 C 
HETATM    4  N4  UNL     1      -5.887  13.220  71.643  1.00  0.00    -0.071 N 
ATOM      5  H41 UNL     1      -5.298  12.399  71.508  1.00  0.00     0.277 HD
ATOM      6  H42 UNL     1      -5.178  13.951  71.578  1.00  0.00     0.277 HD
HETATM    7  C9  UNL     1      -6.844  13.343  70.575  1.00  0.00     0.234 C 
HETATM    8  C10 UNL     1      -6.690  12.322  69.490  1.00  0.00     0.046 C 
HETATM    9  C11 UNL     1      -7.942  11.648  69.050  1.00  0.00     0.115 C 
HETATM   10  N5  UNL     1      -9.141  12.070  69.697  1.00  0.00    -0.420 N 
ATOM     11  H5  UNL     1      -9.272  13.026  70.027  1.00  0.00     0.153 HD
HETATM   12  C12 UNL     1     -10.149  11.067  69.853  1.00  0.00     0.141 C 
HETATM   13  C13 UNL     1      -9.832  10.010  70.855  1.00  0.00     0.251 C 
HETATM   14  N6  UNL     1      -9.768  10.491  72.219  1.00  0.00    -0.069 N 
ATOM     15  H61 UNL     1     -10.690  10.557  72.649  1.00  0.00     0.277 HD
ATOM     16  H62 UNL     1      -9.512  11.477  72.269  1.00  0.00     0.277 HD
HETATM   17  C14 UNL     1      -8.854   9.639  72.994  1.00  0.00     0.277 C 
HETATM   18  C15 UNL     1      -8.412  10.294  74.271  1.00  0.00     0.095 C 
ENDROOT
BRANCH   1  19
HETATM   19  C6  UNL     1      -6.550  11.491  75.273  1.00  0.00     0.087 C 
BRANCH  19  20
HETATM   20  C5  UNL     1      -6.747  10.476  76.369  1.00  0.00     0.159 C 
BRANCH  20  21
HETATM   21  N2  UNL     1      -5.572  10.373  77.173  1.00  0.00    -0.417 N 
ATOM     22  H2  UNL     1      -5.592   9.965  78.108  1.00  0.00     0.153 HD
BRANCH  21  23
HETATM   23  C4  UNL     1      -4.362  10.876  76.592  1.00  0.00     0.115 C 
BRANCH  23  24
HETATM   24  C3  UNL     1      -3.240   9.851  76.602  1.00  0.00     0.039 C 
BRANCH  24  25
HETATM   25  C2  UNL     1      -3.363   8.930  75.409  1.00  0.00     0.123 C 
BRANCH  25  26
HETATM   26  N1  UNL     1      -3.573   7.568  75.810  1.00  0.00    -0.368 N 
ATOM     27  H1  UNL     1      -2.769   6.954  75.935  1.00  0.00     0.161 HD
BRANCH  26  28
HETATM   28  C1  UNL     1      -4.870   7.066  76.035  1.00  0.00     0.348 C 
HETATM   29  O1  UNL     1      -5.546   7.229  77.060  1.00  0.00    -0.284 OA
ENDBRANCH  26  28
ENDBRANCH  25  26
ENDBRANCH  24  25
ENDBRANCH  23  24
ENDBRANCH  21  23
ENDBRANCH  20  21
ENDBRANCH  19  20
ENDBRANCH   1  19
TORSDOF 8
ENDMDL
MODEL 2
REMARK VINA RESULT: -5.449242220      1.786      2.192
REMARK  8 active torsions:
REMARK  status: ('A' for Active; 'I' for Inactive)
REMARK    1  A    between atoms: C1_2  and  N1_3 
REMARK    2  A    between atoms: N1_3  and  C2_5 
REMARK    3  A    between atoms: C2_5  and  C3_6 
REMARK    4  A    between atoms: C3_6  and  C4_7 
REMARK    5  A    between atoms: C4_7  and  N2_8 
REMARK    6  A    between atoms: N2_8  and  C5_10 
REMARK    7  A    between atoms: C5_10  and  C6_11 
REMARK    8  A    between atoms: C6_11  and  N3_12 
ROOT
HETATM    1  N3  UNL     1      -7.929  10.013  74.363  1.00  0.00    -0.349 N 
HETATM    2  C7  UNL     1      -7.942  11.183  73.587  1.00  0.00     0.095 C 
HETATM    3  C8  UNL     1      -6.941  12.237  73.864  1.00  0.00     0.277 C 
HETATM    4  N4  UNL     1      -6.203  12.603  72.658  1.00  0.00    -0.071 N 
ATOM      5  H41 UNL     1      -5.606  11.834  72.354  1.00  0.00     0.277 HD
ATOM      6  H42 UNL     1      -5.489  13.300  72.870  1.00  0.00     0.277 HD
HETATM    7  C9  UNL     1      -7.047  13.050  71.580  1.00  0.00     0.234 C 
HETATM    8  C10 UNL     1      -6.787  12.370  70.272  1.00  0.00     0.046 C 
HETATM    9  C11 UNL     1      -7.989  11.886  69.541  1.00  0.00     0.115 C 
HETATM   10  N5  UNL     1      -9.246  12.146  70.162  1.00  0.00    -0.420 N 
ATOM     11  H5  UNL     1      -9.407  12.975  70.734  1.00  0.00     0.153 HD
HETATM   12  C12 UNL     1     -10.268  11.172  69.931  1.00  0.00     0.141 C 
HETATM   13  C13 UNL     1     -10.057   9.867  70.620  1.00  0.00     0.251 C 
HETATM   14  N6  UNL     1     -10.130   9.944  72.064  1.00  0.00    -0.069 N 
ATOM     15  H61 UNL     1     -11.091   9.916  72.404  1.00  0.00     0.277 HD
ATOM     16  H62 UNL     1      -9.878  10.868  72.414  1.00  0.00     0.277 HD
HETATM   17  C14 UNL     1      -9.302   8.881  72.651  1.00  0.00     0.277 C 
HETATM   18  C15 UNL     1      -8.990   9.138  74.097  1.00  0.00     0.095 C 
ENDROOT
BRANCH   1  19
HETATM   19  C6  UNL     1      -7.235   9.947  75.571  1.00  0.00     0.087 C 
BRANCH  19  20
HETATM   20  C5  UNL     1      -6.948   8.520  75.961  1.00  0.00     0.159 C 
BRANCH  20  21
HETATM   21  N2  UNL     1      -5.787   8.450  76.788  1.00  0.00    -0.417 N 
ATOM     22  H2  UNL     1      -5.777   8.824  77.737  1.00  0.00     0.153 HD
BRANCH  21  23
HETATM   23  C4  UNL     1      -4.634   7.826  76.208  1.00  0.00     0.115 C 
BRANCH  23  24
HETATM   24  C3  UNL     1      -3.614   8.834  75.706  1.00  0.00     0.039 C 
BRANCH  24  25
HETATM   25  C2  UNL     1      -3.459   9.960  76.705  1.00  0.00     0.123 C 
BRANCH  25  26
HETATM   26  N1  UNL     1      -2.689   9.554  77.846  1.00  0.00    -0.368 N 
ATOM     27  H1  UNL     1      -3.119   8.959  78.554  1.00  0.00     0.161 HD
BRANCH  26  28
HETATM   28  C1  UNL     1      -1.350   9.963  78.005  1.00  0.00     0.348 C 
HETATM   29  O1  UNL     1      -0.720   9.990  79.071  1.00  0.00    -0.284 OA
ENDBRANCH  26  28
ENDBRANCH  25  26
ENDBRANCH  24  25
ENDBRANCH  23  24
ENDBRANCH  21  23
ENDBRANCH  20  21
ENDBRANCH  19  20
ENDBRANCH   1  19
TORSDOF 8
ENDMDL
MODEL 3
REMARK VINA RESULT: -5.434631135      4.228      5.670
REMARK  8 active torsions:
REMARK  status: ('A' for Active; 'I' for Inactive)
REMARK    1  A    between atoms: C1_2  and  N1_3 
REMARK    2  A    between atoms: N1_3  and  C2_5 
REMARK    3  A    between atoms: C2_5  and  C3_6 
REMARK    4  A    between atoms: C3_6  and  C4_7 
REMARK    5  A    between atoms: C4_7  and  N2_8 
REMARK    6  A    between atoms: N2_8  and  C5_10 
REMARK    7  A    between atoms: C5_10  and  C6_11 
REMARK    8  A    between atoms: C6_11  and  N3_12 
ROOT
HETATM    1  N3  UNL     1      -9.870  12.225  70.850  1.00  0.00    -0.349 N 
HETATM    2  C7  UNL     1      -8.611  12.522  71.396  1.00  0.00     0.095 C 
HETATM    3  C8  UNL     1      -7.405  11.923  70.783  1.00  0.00     0.277 C 
HETATM    4  N4  UNL     1      -6.419  12.942  70.435  1.00  0.00    -0.071 N 
ATOM      5  H41 UNL     1      -6.761  13.529  69.674  1.00  0.00     0.277 HD
ATOM      6  H42 UNL     1      -5.612  12.521  69.977  1.00  0.00     0.277 HD
HETATM    7  C9  UNL     1      -6.007  13.748  71.554  1.00  0.00     0.234 C 
HETATM    8  C10 UNL     1      -6.076  15.224  71.309  1.00  0.00     0.046 C 
HETATM    9  C11 UNL     1      -6.719  16.031  72.382  1.00  0.00     0.115 C 
HETATM   10  N5  UNL     1      -7.171  15.307  73.525  1.00  0.00    -0.420 N 
ATOM     11  H5  UNL     1      -6.697  14.467  73.857  1.00  0.00     0.153 HD
HETATM   12  C12 UNL     1      -8.330  15.834  74.176  1.00  0.00     0.141 C 
HETATM   13  C13 UNL     1      -9.603  15.675  73.416  1.00  0.00     0.251 C 
HETATM   14  N6  UNL     1     -10.028  14.300  73.259  1.00  0.00    -0.069 N 
ATOM     15  H61 UNL     1     -10.528  13.954  74.079  1.00  0.00     0.277 HD
ATOM     16  H62 UNL     1      -9.244  13.649  73.281  1.00  0.00     0.277 HD
HETATM   17  C14 UNL     1     -10.823  14.173  72.030  1.00  0.00     0.277 C 
HETATM   18  C15 UNL     1     -10.947  12.747  71.577  1.00  0.00     0.095 C 
ENDROOT
BRANCH   1  19
HETATM   19  C6  UNL     1     -10.051  11.153  69.976  1.00  0.00     0.087 C 
BRANCH  19  20
HETATM   20  C5  UNL     1     -10.627   9.957  70.689  1.00  0.00     0.159 C 
BRANCH  20  21
HETATM   21  N2  UNL     1      -9.632   8.946  70.855  1.00  0.00    -0.417 N 
ATOM     22  H2  UNL     1      -9.279   8.403  70.067  1.00  0.00     0.153 HD
BRANCH  21  23
HETATM   23  C4  UNL     1      -9.158   8.740  72.191  1.00  0.00     0.115 C 
BRANCH  23  24
HETATM   24  C3  UNL     1     -10.081   9.341  73.238  1.00  0.00     0.039 C 
BRANCH  24  25
HETATM   25  C2  UNL     1     -10.298   8.360  74.368  1.00  0.00     0.123 C 
BRANCH  25  26
HETATM   26  N1  UNL     1     -10.453   7.018  73.882  1.00  0.00    -0.368 N 
ATOM     27  H1  UNL     1      -9.639   6.519  73.524  1.00  0.00     0.161 HD
BRANCH  26  28
HETATM   28  C1  UNL     1     -11.709   6.380  73.891  1.00  0.00     0.348 C 
HETATM   29  O1  UNL     1     -11.953   5.261  74.364  1.00  0.00    -0.284 OA
ENDBRANCH  26  28
ENDBRANCH  25  26
ENDBRANCH  24  25
ENDBRANCH  23  24
ENDBRANCH  21  23
ENDBRANCH  20  21
ENDBRANCH  19  20
ENDBRANCH   1  19
TORSDOF 8
ENDMDL
MODEL 4
REMARK VINA RESULT: -5.393515913      1.248      2.881
REMARK  8 active torsions:
REMARK  status: ('A' for Active; 'I' for Inactive)
REMARK    1  A    between atoms: C1_2  and  N1_3 
REMARK    2  A    between atoms: N1_3  and  C2_5 
REMARK    3  A    between atoms: C2_5  and  C3_6 
REMARK    4  A    between atoms: C3_6  and  C4_7 
REMARK    5  A    between atoms: C4_7  and  N2_8 
REMARK    6  A    between atoms: N2_8  and  C5_10 
REMARK    7  A    between atoms: C5_10  and  C6_11 
REMARK    8  A    between atoms: C6_11  and  N3_12 
ROOT
HETATM    1  N3  UNL     1      -7.980  11.339  75.320  1.00  0.00    -0.349 N 
HETATM    2  C7  UNL     1      -7.930  10.469  74.219  1.00  0.00     0.095 C 
HETATM    3  C8  UNL     1      -8.136   9.021  74.440  1.00  0.00     0.277 C 
HETATM    4  N4  UNL     1      -9.190   8.493  73.579  1.00  0.00    -0.071 N 
ATOM      5  H41 UNL     1     -10.099   8.868  73.851  1.00  0.00     0.277 HD
ATOM      6  H42 UNL     1      -9.351   7.504  73.770  1.00  0.00     0.277 HD
HETATM    7  C9  UNL     1      -8.949   8.708  72.176  1.00  0.00     0.234 C 
HETATM    8  C10 UNL     1     -10.098   9.324  71.441  1.00  0.00     0.046 C 
HETATM    9  C11 UNL     1      -9.761  10.461  70.542  1.00  0.00     0.115 C 
HETATM   10  N5  UNL     1      -8.381  10.815  70.472  1.00  0.00    -0.420 N 
ATOM     11  H5  UNL     1      -7.638  10.123  70.573  1.00  0.00     0.153 HD
HETATM   12  C12 UNL     1      -8.105  12.201  70.250  1.00  0.00     0.141 C 
HETATM   13  C13 UNL     1      -8.403  13.092  71.407  1.00  0.00     0.251 C 
HETATM   14  N6  UNL     1      -7.555  12.867  72.559  1.00  0.00    -0.069 N 
ATOM     15  H61 UNL     1      -6.659  13.346  72.479  1.00  0.00     0.277 HD
ATOM     16  H62 UNL     1      -7.205  11.910  72.599  1.00  0.00     0.277 HD
HETATM   17  C14 UNL     1      -8.281  13.245  73.780  1.00  0.00     0.277 C 
HETATM   18  C15 UNL     1      -7.655  12.667  75.016  1.00  0.00     0.095 C 
ENDROOT
BRANCH   1  19
HETATM   19  C6  UNL     1      -7.893  10.864  76.628  1.00  0.00     0.087 C 
BRANCH  19  20
HETATM   20  C5  UNL     1      -6.666  11.395  77.323  1.00  0.00     0.159 C 
BRANCH  20  21
HETATM   21  N2  UNL     1      -5.589  10.463  77.219  1.00  0.00    -0.417 N 
ATOM     22  H2  UNL     1      -5.624   9.547  77.666  1.00  0.00     0.153 HD
BRANCH  21  23
HETATM   23  C4  UNL     1      -4.457  10.889  76.451  1.00  0.00     0.115 C 
BRANCH  23  24
HETATM   24  C3  UNL     1      -3.293   9.915  76.539  1.00  0.00     0.039 C 
BRANCH  24  25
HETATM   25  C2  UNL     1      -3.358   8.921  75.401  1.00  0.00     0.123 C 
BRANCH  25  26
HETATM   26  N1  UNL     1      -3.586   7.586  75.877  1.00  0.00    -0.368 N 
ATOM     27  H1  UNL     1      -2.788   6.981  76.071  1.00  0.00     0.161 HD
BRANCH  26  28
HETATM   28  C1  UNL     1      -4.892   7.097  76.079  1.00  0.00     0.348 C 
HETATM   29  O1  UNL     1      -5.615   7.338  77.055  1.00  0.00    -0.284 OA
ENDBRANCH  26  28
ENDBRANCH  25  26
ENDBRANCH  24  25
ENDBRANCH  23  24
ENDBRANCH  21  23
ENDBRANCH  20  21
ENDBRANCH  19  20
ENDBRANCH   1  19
TORSDOF 8
ENDMDL
MODEL 5
REMARK VINA RESULT: -5.387066842      4.423      5.823
REMARK  8 active torsions:
REMARK  status: ('A' for Active; 'I' for Inactive)
REMARK    1  A    between atoms: C1_2  and  N1_3 
REMARK    2  A    between atoms: N1_3  and  C2_5 
REMARK    3  A    between atoms: C2_5  and  C3_6 
REMARK    4  A    between atoms: C3_6  and  C4_7 
REMARK    5  A    between atoms: C4_7  and  N2_8 
REMARK    6  A    between atoms: N2_8  and  C5_10 
REMARK    7  A    between atoms: C5_10  and  C6_11 
REMARK    8  A    between atoms: C6_11  and  N3_12 
ROOT
HETATM    1  N3  UNL     1     -11.028  12.431  71.306  1.00  0.00    -0.349 N 
HETATM    2  C7  UNL     1      -9.644  12.193  71.313  1.00  0.00     0.095 C 
HETATM    3  C8  UNL     1      -9.106  11.074  70.508  1.00  0.00     0.277 C 
HETATM    4  N4  UNL     1      -8.046  11.522  69.610  1.00  0.00    -0.071 N 
ATOM      5  H41 UNL     1      -8.422  12.130  68.883  1.00  0.00     0.277 HD
ATOM      6  H42 UNL     1      -7.712  10.751  69.033  1.00  0.00     0.277 HD
HETATM    7  C9  UNL     1      -6.949  12.161  70.290  1.00  0.00     0.234 C 
HETATM    8  C10 UNL     1      -6.560  13.490  69.719  1.00  0.00     0.046 C 
HETATM    9  C11 UNL     1      -6.364  14.588  70.704  1.00  0.00     0.115 C 
HETATM   10  N5  UNL     1      -6.547  14.240  72.075  1.00  0.00    -0.420 N 
ATOM     11  H5  UNL     1      -6.328  13.310  72.432  1.00  0.00     0.153 HD
HETATM   12  C12 UNL     1      -7.057  15.277  72.917  1.00  0.00     0.141 C 
HETATM   13  C13 UNL     1      -8.488  15.626  72.685  1.00  0.00     0.251 C 
HETATM   14  N6  UNL     1      -9.416  14.569  73.028  1.00  0.00    -0.069 N 
ATOM     15  H61 UNL     1      -9.630  14.552  74.025  1.00  0.00     0.277 HD
ATOM     16  H62 UNL     1      -8.993  13.645  72.953  1.00  0.00     0.277 HD
HETATM   17  C14 UNL     1     -10.626  14.696  72.203  1.00  0.00     0.277 C 
HETATM   18  C15 UNL     1     -11.441  13.435  72.191  1.00  0.00     0.095 C 
ENDROOT
BRANCH   1  19
HETATM   19  C6  UNL     1     -11.930  11.475  70.840  1.00  0.00     0.087 C 
BRANCH  19  20
HETATM   20  C5  UNL     1     -12.797  10.951  71.955  1.00  0.00     0.159 C 
BRANCH  20  21
HETATM   21  N2  UNL     1     -12.202   9.800  72.554  1.00  0.00    -0.417 N 
ATOM     22  H2  UNL     1     -12.232   8.884  72.108  1.00  0.00     0.153 HD
BRANCH  21  23
HETATM   23  C4  UNL     1     -11.560  10.006  73.819  1.00  0.00     0.115 C 
BRANCH  23  24
HETATM   24  C3  UNL     1     -10.159   9.420  73.864  1.00  0.00     0.039 C 
BRANCH  24  25
HETATM   25  C2  UNL     1     -10.105   8.134  73.069  1.00  0.00     0.123 C 
BRANCH  25  26
HETATM   26  N1  UNL     1     -10.444   6.997  73.878  1.00  0.00    -0.368 N 
ATOM     27  H1  UNL     1      -9.756   6.627  74.534  1.00  0.00     0.161 HD
BRANCH  26  28
HETATM   28  C1  UNL     1     -11.708   6.384  73.779  1.00  0.00     0.348 C 
HETATM   29  O1  UNL     1     -12.575   6.635  72.930  1.00  0.00    -0.284 OA
ENDBRANCH  26  28
ENDBRANCH  25  26
ENDBRANCH  24  25
ENDBRANCH  23  24
ENDBRANCH  21  23
ENDBRANCH  20  21
ENDBRANCH  19  20
ENDBRANCH   1  19
TORSDOF 8
ENDMDL
