MODEL 1
REMARK VINA RESULT: -8.706051182      0.000      0.000
REMARK  6 active torsions:
REMARK  status: ('A' for Active; 'I' for Inactive)
REMARK       I    between atoms: N1_2  and  C2_4 
REMARK    1  A    between atoms: C2_4  and  C3_6 
REMARK       I    between atoms: C3_6  and  N2_8 
REMARK    2  A    between atoms: N2_8  and  C4_10 
REMARK    3  A    between atoms: N3_13  and  C7_14 
REMARK    4  A    between atoms: C7_14  and  C8_15 
REMARK       I    between atoms: C8_15  and  N4_17 
REMARK    5  A    between atoms: N4_17  and  C9_19 
REMARK    6  A    between atoms: C9_19  and  C10_20 
ROOT
HETATM    1  C8  UNL     1     -18.693 -37.406  -3.107  1.00  0.00     0.235 C 
HETATM    2  O3  UNL     1     -19.727 -37.371  -3.846  1.00  0.00    -0.272 OA
HETATM    3  N4  UNL     1     -18.678 -38.129  -1.877  1.00  0.00    -0.359 N 
ATOM      4  H4  UNL     1     -17.845 -38.151  -1.288  1.00  0.00     0.162 HD
ENDROOT
BRANCH   1   5
HETATM    5  C7  UNL     1     -17.505 -36.657  -3.591  1.00  0.00     0.219 C 
BRANCH   5   6
HETATM    6  N3  UNL     1     -17.462 -35.307  -3.178  1.00  0.00    -0.404 N 
HETATM    7  C6  UNL     1     -18.188 -34.976  -2.013  1.00  0.00     0.119 C 
HETATM    8  C5  UNL     1     -17.357 -35.051  -0.755  1.00  0.00     0.044 C 
HETATM    9  C4  UNL     1     -15.889 -35.045  -1.081  1.00  0.00     0.087 C 
HETATM   10  C23 UNL     1     -15.614 -34.058  -2.212  1.00  0.00     0.044 C 
HETATM   11  C22 UNL     1     -16.284 -34.577  -3.462  1.00  0.00     0.119 C 
BRANCH   9  12
HETATM   12  N2  UNL     1     -15.153 -34.663   0.087  1.00  0.00    -0.348 N 
HETATM   13  C3  UNL     1     -14.900 -35.642   1.093  1.00  0.00     0.309 C 
HETATM   14  O2  UNL     1     -15.306 -36.811   0.974  1.00  0.00    -0.262 OA
ATOM     15  H2  UNL     1     -14.815 -33.708   0.198  1.00  0.00     0.163 HD
BRANCH  13  16
HETATM   16  C2  UNL     1     -14.146 -35.246   2.284  1.00  0.00     0.308 C 
HETATM   17  N1  UNL     1     -12.871 -34.643   2.143  1.00  0.00    -0.357 N 
HETATM   18  C1  UNL     1     -12.121 -34.250   3.313  1.00  0.00     0.149 C 
ATOM     19  H1  UNL     1     -12.483 -34.486   1.213  1.00  0.00     0.162 HD
HETATM   20  O1  UNL     1     -14.609 -35.431   3.437  1.00  0.00    -0.262 OA
ENDBRANCH  13  16
ENDBRANCH   9  12
ENDBRANCH   5   6
ENDBRANCH   1   5
BRANCH   3  21
HETATM   21  C9  UNL     1     -19.863 -38.817  -1.500  1.00  0.00     0.132 C 
BRANCH  21  22
HETATM   22  C10 UNL     1     -20.098 -38.863   0.015  1.00  0.00    -0.024 C 
HETATM   23  C11 UNL     1     -20.973 -40.074   0.240  1.00  0.00     0.011 C 
HETATM   24  C12 UNL     1     -20.766 -40.694   1.605  1.00  0.00     0.005 C 
HETATM   25  C13 UNL     1     -20.717 -39.692   2.717  1.00  0.00    -0.014 C 
HETATM   26  C14 UNL     1     -21.637 -38.546   2.563  1.00  0.00     0.009 C 
HETATM   27  C19 UNL     1     -19.301 -39.338   3.040  1.00  0.00     0.009 C 
HETATM   28  C15 UNL     1     -21.111 -37.370   1.801  1.00  0.00    -0.013 C 
HETATM   29  C16 UNL     1     -20.015 -36.658   2.566  1.00  0.00     0.005 C 
HETATM   30  C21 UNL     1     -20.814 -37.625   0.376  1.00  0.00     0.015 C 
HETATM   31  C17 UNL     1     -18.646 -37.096   2.095  1.00  0.00     0.005 C 
HETATM   32  C18 UNL     1     -18.542 -38.603   2.009  1.00  0.00    -0.013 C 
HETATM   33  C20 UNL     1     -18.744 -39.044   0.604  1.00  0.00     0.015 C 
ENDBRANCH  21  22
ENDBRANCH   3  21
TORSDOF 6
ENDMDL
MODEL 2
REMARK VINA RESULT: -8.631763615      2.683      7.429
REMARK  6 active torsions:
REMARK  status: ('A' for Active; 'I' for Inactive)
REMARK       I    between atoms: N1_2  and  C2_4 
REMARK    1  A    between atoms: C2_4  and  C3_6 
REMARK       I    between atoms: C3_6  and  N2_8 
REMARK    2  A    between atoms: N2_8  and  C4_10 
REMARK    3  A    between atoms: N3_13  and  C7_14 
REMARK    4  A    between atoms: C7_14  and  C8_15 
REMARK       I    between atoms: C8_15  and  N4_17 
REMARK    5  A    between atoms: N4_17  and  C9_19 
REMARK    6  A    between atoms: C9_19  and  C10_20 
ROOT
HETATM    1  C8  UNL     1     -16.074 -35.867   2.633  1.00  0.00     0.235 C 
HETATM    2  O3  UNL     1     -14.813 -35.711   2.678  1.00  0.00    -0.272 OA
HETATM    3  N4  UNL     1     -16.787 -35.835   1.397  1.00  0.00    -0.359 N 
ATOM      4  H4  UNL     1     -17.799 -35.959   1.368  1.00  0.00     0.162 HD
ENDROOT
BRANCH   1   5
HETATM    5  C7  UNL     1     -16.764 -36.084   3.930  1.00  0.00     0.219 C 
BRANCH   5   6
HETATM    6  N3  UNL     1     -16.861 -37.438   4.317  1.00  0.00    -0.404 N 
HETATM    7  C6  UNL     1     -17.935 -37.780   5.168  1.00  0.00     0.119 C 
HETATM    8  C5  UNL     1     -19.163 -38.240   4.421  1.00  0.00     0.044 C 
HETATM    9  C4  UNL     1     -18.818 -38.621   3.008  1.00  0.00     0.087 C 
HETATM   10  C23 UNL     1     -17.490 -39.372   2.983  1.00  0.00     0.044 C 
HETATM   11  C22 UNL     1     -16.400 -38.412   3.399  1.00  0.00     0.119 C 
BRANCH   9  12
HETATM   12  N2  UNL     1     -19.858 -39.455   2.483  1.00  0.00    -0.348 N 
HETATM   13  C3  UNL     1     -20.839 -38.878   1.624  1.00  0.00     0.309 C 
HETATM   14  O2  UNL     1     -20.807 -37.672   1.326  1.00  0.00    -0.262 OA
ATOM     15  H2  UNL     1     -19.897 -40.447   2.720  1.00  0.00     0.163 HD
BRANCH  13  16
HETATM   16  C2  UNL     1     -21.898 -39.736   1.090  1.00  0.00     0.308 C 
HETATM   17  N1  UNL     1     -22.875 -40.277   1.964  1.00  0.00    -0.357 N 
HETATM   18  C1  UNL     1     -23.922 -41.125   1.445  1.00  0.00     0.149 C 
ATOM     19  H1  UNL     1     -22.837 -40.067   2.961  1.00  0.00     0.162 HD
HETATM   20  O1  UNL     1     -21.959 -40.006  -0.135  1.00  0.00    -0.262 OA
ENDBRANCH  13  16
ENDBRANCH   9  12
ENDBRANCH   5   6
ENDBRANCH   1   5
BRANCH   3  21
HETATM   21  C9  UNL     1     -16.037 -35.623   0.207  1.00  0.00     0.132 C 
BRANCH  21  22
HETATM   22  C10 UNL     1     -16.871 -35.718  -1.076  1.00  0.00    -0.024 C 
HETATM   23  C11 UNL     1     -17.971 -36.705  -0.757  1.00  0.00     0.011 C 
HETATM   24  C12 UNL     1     -19.233 -36.445  -1.551  1.00  0.00     0.005 C 
HETATM   25  C13 UNL     1     -18.982 -36.173  -3.003  1.00  0.00    -0.014 C 
HETATM   26  C14 UNL     1     -17.886 -36.962  -3.603  1.00  0.00     0.009 C 
HETATM   27  C19 UNL     1     -18.926 -34.702  -3.257  1.00  0.00     0.009 C 
HETATM   28  C15 UNL     1     -16.513 -36.374  -3.502  1.00  0.00    -0.013 C 
HETATM   29  C16 UNL     1     -16.375 -35.135  -4.361  1.00  0.00     0.005 C 
HETATM   30  C21 UNL     1     -15.983 -36.245  -2.128  1.00  0.00     0.015 C 
HETATM   31  C17 UNL     1     -16.562 -33.878  -3.541  1.00  0.00     0.005 C 
HETATM   32  C18 UNL     1     -17.794 -33.961  -2.666  1.00  0.00    -0.013 C 
HETATM   33  C20 UNL     1     -17.407 -34.346  -1.284  1.00  0.00     0.015 C 
ENDBRANCH  21  22
ENDBRANCH   3  21
TORSDOF 6
ENDMDL
MODEL 3
REMARK VINA RESULT: -8.514165814      2.696      5.898
REMARK  6 active torsions:
REMARK  status: ('A' for Active; 'I' for Inactive)
REMARK       I    between atoms: N1_2  and  C2_4 
REMARK    1  A    between atoms: C2_4  and  C3_6 
REMARK       I    between atoms: C3_6  and  N2_8 
REMARK    2  A    between atoms: N2_8  and  C4_10 
REMARK    3  A    between atoms: N3_13  and  C7_14 
REMARK    4  A    between atoms: C7_14  and  C8_15 
REMARK       I    between atoms: C8_15  and  N4_17 
REMARK    5  A    between atoms: N4_17  and  C9_19 
REMARK    6  A    between atoms: C9_19  and  C10_20 
ROOT
HETATM    1  C8  UNL     1     -20.930 -39.393  -0.349  1.00  0.00     0.235 C 
HETATM    2  O3  UNL     1     -22.025 -39.269  -0.984  1.00  0.00    -0.272 OA
HETATM    3  N4  UNL     1     -19.817 -38.538  -0.606  1.00  0.00    -0.359 N 
ATOM      4  H4  UNL     1     -18.941 -38.645  -0.094  1.00  0.00     0.162 HD
ENDROOT
BRANCH   1   5
HETATM    5  C7  UNL     1     -20.872 -40.471   0.671  1.00  0.00     0.219 C 
BRANCH   5   6
HETATM    6  N3  UNL     1     -21.237 -40.060   1.971  1.00  0.00    -0.404 N 
HETATM    7  C6  UNL     1     -20.919 -40.941   3.028  1.00  0.00     0.119 C 
HETATM    8  C5  UNL     1     -19.580 -40.650   3.661  1.00  0.00     0.044 C 
HETATM    9  C4  UNL     1     -19.109 -39.266   3.307  1.00  0.00     0.087 C 
HETATM   10  C23 UNL     1     -20.286 -38.295   3.345  1.00  0.00     0.044 C 
HETATM   11  C22 UNL     1     -21.241 -38.671   2.238  1.00  0.00     0.119 C 
BRANCH   9  12
HETATM   12  N2  UNL     1     -18.111 -38.858   4.250  1.00  0.00    -0.348 N 
HETATM   13  C3  UNL     1     -17.009 -38.077   3.792  1.00  0.00     0.309 C 
HETATM   14  O2  UNL     1     -16.901 -37.748   2.599  1.00  0.00    -0.262 OA
ATOM     15  H2  UNL     1     -18.186 -39.122   5.232  1.00  0.00     0.163 HD
BRANCH  13  16
HETATM   16  C2  UNL     1     -15.992 -37.662   4.761  1.00  0.00     0.308 C 
HETATM   17  N1  UNL     1     -16.221 -37.850   6.147  1.00  0.00    -0.357 N 
HETATM   18  C1  UNL     1     -15.224 -37.442   7.109  1.00  0.00     0.149 C 
ATOM     19  H1  UNL     1     -17.093 -38.273   6.466  1.00  0.00     0.162 HD
HETATM   20  O1  UNL     1     -14.913 -37.140   4.386  1.00  0.00    -0.262 OA
ENDBRANCH  13  16
ENDBRANCH   9  12
ENDBRANCH   5   6
ENDBRANCH   1   5
BRANCH   3  21
HETATM   21  C9  UNL     1     -19.970 -37.534  -1.601  1.00  0.00     0.132 C 
BRANCH  21  22
HETATM   22  C10 UNL     1     -18.830 -36.510  -1.628  1.00  0.00    -0.024 C 
HETATM   23  C11 UNL     1     -18.877 -35.832  -0.278  1.00  0.00     0.011 C 
HETATM   24  C12 UNL     1     -17.519 -35.334   0.170  1.00  0.00     0.005 C 
HETATM   25  C13 UNL     1     -16.759 -34.622  -0.906  1.00  0.00    -0.014 C 
HETATM   26  C14 UNL     1     -17.585 -33.792  -1.808  1.00  0.00     0.009 C 
HETATM   27  C19 UNL     1     -15.812 -35.558  -1.585  1.00  0.00     0.009 C 
HETATM   28  C15 UNL     1     -18.160 -34.485  -3.005  1.00  0.00    -0.013 C 
HETATM   29  C16 UNL     1     -17.081 -34.864  -3.997  1.00  0.00     0.005 C 
HETATM   30  C21 UNL     1     -19.137 -35.552  -2.706  1.00  0.00     0.015 C 
HETATM   31  C17 UNL     1     -16.669 -36.310  -3.831  1.00  0.00     0.005 C 
HETATM   32  C18 UNL     1     -16.404 -36.651  -2.381  1.00  0.00    -0.013 C 
HETATM   33  C20 UNL     1     -17.593 -37.322  -1.794  1.00  0.00     0.015 C 
ENDBRANCH  21  22
ENDBRANCH   3  21
TORSDOF 6
ENDMDL
MODEL 4
REMARK VINA RESULT: -8.455097069      1.159      2.284
REMARK  6 active torsions:
REMARK  status: ('A' for Active; 'I' for Inactive)
REMARK       I    between atoms: N1_2  and  C2_4 
REMARK    1  A    between atoms: C2_4  and  C3_6 
REMARK       I    between atoms: C3_6  and  N2_8 
REMARK    2  A    between atoms: N2_8  and  C4_10 
REMARK    3  A    between atoms: N3_13  and  C7_14 
REMARK    4  A    between atoms: C7_14  and  C8_15 
REMARK       I    between atoms: C8_15  and  N4_17 
REMARK    5  A    between atoms: N4_17  and  C9_19 
REMARK    6  A    between atoms: C9_19  and  C10_20 
ROOT
HETATM    1  C8  UNL     1     -19.597 -37.114  -2.339  1.00  0.00     0.235 C 
HETATM    2  O3  UNL     1     -19.734 -38.124  -3.099  1.00  0.00    -0.272 OA
HETATM    3  N4  UNL     1     -19.635 -37.240  -0.918  1.00  0.00    -0.359 N 
ATOM      4  H4  UNL     1     -19.527 -36.425  -0.313  1.00  0.00     0.162 HD
ENDROOT
BRANCH   1   5
HETATM    5  C7  UNL     1     -19.397 -35.802  -3.005  1.00  0.00     0.219 C 
BRANCH   5   6
HETATM    6  N3  UNL     1     -18.050 -35.500  -3.298  1.00  0.00    -0.404 N 
HETATM    7  C6  UNL     1     -17.638 -34.165  -3.089  1.00  0.00     0.119 C 
HETATM    8  C5  UNL     1     -17.055 -33.931  -1.716  1.00  0.00     0.044 C 
HETATM    9  C4  UNL     1     -16.669 -35.233  -1.070  1.00  0.00     0.087 C 
HETATM   10  C23 UNL     1     -16.036 -36.158  -2.106  1.00  0.00     0.044 C 
HETATM   11  C22 UNL     1     -17.097 -36.529  -3.115  1.00  0.00     0.119 C 
BRANCH   9  12
HETATM   12  N2  UNL     1     -15.736 -34.971  -0.015  1.00  0.00    -0.348 N 
HETATM   13  C3  UNL     1     -15.819 -35.735   1.186  1.00  0.00     0.309 C 
HETATM   14  O2  UNL     1     -16.683 -36.617   1.332  1.00  0.00    -0.262 OA
ATOM     15  H2  UNL     1     -15.022 -34.251  -0.122  1.00  0.00     0.163 HD
BRANCH  13  16
HETATM   16  C2  UNL     1     -14.861 -35.463   2.259  1.00  0.00     0.308 C 
HETATM   17  N1  UNL     1     -13.584 -34.932   1.946  1.00  0.00    -0.357 N 
HETATM   18  C1  UNL     1     -12.633 -34.662   2.999  1.00  0.00     0.149 C 
ATOM     19  H1  UNL     1     -13.338 -34.740   0.975  1.00  0.00     0.162 HD
HETATM   20  O1  UNL     1     -15.148 -35.693   3.460  1.00  0.00    -0.262 OA
ENDBRANCH  13  16
ENDBRANCH   9  12
ENDBRANCH   5   6
ENDBRANCH   1   5
BRANCH   3  21
HETATM   21  C9  UNL     1     -19.830 -38.539  -0.374  1.00  0.00     0.132 C 
BRANCH  21  22
HETATM   22  C10 UNL     1     -20.092 -38.545   1.137  1.00  0.00    -0.024 C 
HETATM   23  C11 UNL     1     -20.131 -37.087   1.535  1.00  0.00     0.011 C 
HETATM   24  C12 UNL     1     -21.016 -36.837   2.738  1.00  0.00     0.005 C 
HETATM   25  C13 UNL     1     -20.814 -37.825   3.845  1.00  0.00    -0.014 C 
HETATM   26  C14 UNL     1     -19.417 -38.265   4.041  1.00  0.00     0.009 C 
HETATM   27  C19 UNL     1     -21.825 -38.922   3.758  1.00  0.00     0.009 C 
HETATM   28  C15 UNL     1     -18.973 -39.444   3.231  1.00  0.00    -0.013 C 
HETATM   29  C16 UNL     1     -19.659 -40.716   3.682  1.00  0.00     0.005 C 
HETATM   30  C21 UNL     1     -18.950 -39.231   1.769  1.00  0.00     0.015 C 
HETATM   31  C17 UNL     1     -20.847 -41.039   2.803  1.00  0.00     0.005 C 
HETATM   32  C18 UNL     1     -21.733 -39.829   2.597  1.00  0.00    -0.013 C 
HETATM   33  C20 UNL     1     -21.423 -39.193   1.289  1.00  0.00     0.015 C 
ENDBRANCH  21  22
ENDBRANCH   3  21
TORSDOF 6
ENDMDL
MODEL 5
REMARK VINA RESULT: -8.324126773      1.696      2.328
REMARK  6 active torsions:
REMARK  status: ('A' for Active; 'I' for Inactive)
REMARK       I    between atoms: N1_2  and  C2_4 
REMARK    1  A    between atoms: C2_4  and  C3_6 
REMARK       I    between atoms: C3_6  and  N2_8 
REMARK    2  A    between atoms: N2_8  and  C4_10 
REMARK    3  A    between atoms: N3_13  and  C7_14 
REMARK    4  A    between atoms: C7_14  and  C8_15 
REMARK       I    between atoms: C8_15  and  N4_17 
REMARK    5  A    between atoms: N4_17  and  C9_19 
REMARK    6  A    between atoms: C9_19  and  C10_20 
ROOT
HETATM    1  C8  UNL     1     -19.527 -38.491  -0.844  1.00  0.00     0.235 C 
HETATM    2  O3  UNL     1     -20.504 -38.202  -1.604  1.00  0.00    -0.272 OA
HETATM    3  N4  UNL     1     -19.709 -39.256   0.347  1.00  0.00    -0.359 N 
ATOM      4  H4  UNL     1     -18.921 -39.483   0.954  1.00  0.00     0.162 HD
ENDROOT
BRANCH   1   5
HETATM    5  C7  UNL     1     -18.191 -37.992  -1.259  1.00  0.00     0.219 C 
BRANCH   5   6
HETATM    6  N3  UNL     1     -18.081 -36.585  -1.292  1.00  0.00    -0.404 N 
HETATM    7  C6  UNL     1     -18.514 -35.887  -0.143  1.00  0.00     0.119 C 
HETATM    8  C5  UNL     1     -17.405 -35.629   0.848  1.00  0.00     0.044 C 
HETATM    9  C4  UNL     1     -16.058 -35.795   0.201  1.00  0.00     0.087 C 
HETATM   10  C23 UNL     1     -16.083 -35.202  -1.205  1.00  0.00     0.044 C 
HETATM   11  C22 UNL     1     -17.021 -36.033  -2.049  1.00  0.00     0.119 C 
BRANCH   9  12
HETATM   12  N2  UNL     1     -15.073 -35.123   0.995  1.00  0.00    -0.348 N 
HETATM   13  C3  UNL     1     -14.569 -35.770   2.161  1.00  0.00     0.309 C 
HETATM   14  O2  UNL     1     -14.968 -36.898   2.498  1.00  0.00    -0.262 OA
ATOM     15  H2  UNL     1     -14.738 -34.198   0.730  1.00  0.00     0.163 HD
BRANCH  13  16
HETATM   16  C2  UNL     1     -13.561 -35.079   2.968  1.00  0.00     0.308 C 
HETATM   17  N1  UNL     1     -12.350 -34.652   2.368  1.00  0.00    -0.357 N 
HETATM   18  C1  UNL     1     -11.350 -33.971   3.157  1.00  0.00     0.149 C 
ATOM     19  H1  UNL     1     -12.184 -34.828   1.377  1.00  0.00     0.162 HD
HETATM   20  O1  UNL     1     -13.750 -34.854   4.189  1.00  0.00    -0.262 OA
ENDBRANCH  13  16
ENDBRANCH   9  12
ENDBRANCH   5   6
ENDBRANCH   1   5
BRANCH   3  21
HETATM   21  C9  UNL     1     -21.026 -39.691   0.659  1.00  0.00     0.132 C 
BRANCH  21  22
HETATM   22  C10 UNL     1     -21.329 -39.720   2.162  1.00  0.00    -0.024 C 
HETATM   23  C11 UNL     1     -22.752 -40.218   2.267  1.00  0.00     0.011 C 
HETATM   24  C12 UNL     1     -23.015 -40.958   3.561  1.00  0.00     0.005 C 
HETATM   25  C13 UNL     1     -22.461 -40.267   4.769  1.00  0.00    -0.014 C 
HETATM   26  C14 UNL     1     -22.546 -38.792   4.736  1.00  0.00     0.009 C 
HETATM   27  C19 UNL     1     -21.120 -40.824   5.121  1.00  0.00     0.009 C 
HETATM   28  C15 UNL     1     -21.398 -38.076   4.095  1.00  0.00    -0.013 C 
HETATM   29  C16 UNL     1     -20.137 -38.196   4.925  1.00  0.00     0.005 C 
HETATM   30  C21 UNL     1     -21.222 -38.333   2.651  1.00  0.00     0.015 C 
HETATM   31  C17 UNL     1     -19.244 -39.301   4.407  1.00  0.00     0.005 C 
HETATM   32  C18 UNL     1     -20.020 -40.578   4.168  1.00  0.00    -0.013 C 
HETATM   33  C20 UNL     1     -20.360 -40.700   2.726  1.00  0.00     0.015 C 
ENDBRANCH  21  22
ENDBRANCH   3  21
TORSDOF 6
ENDMDL
