MODEL 1
REMARK VINA RESULT: -8.102035268      0.000      0.000
REMARK  8 active torsions:
REMARK  status: ('A' for Active; 'I' for Inactive)
REMARK    1  A    between atoms: C2_2  and  C5_5 
REMARK    2  A    between atoms: C5_5  and  N1_6 
REMARK    3  A    between atoms: C5_5  and  C13_18 
REMARK       I    between atoms: N1_6  and  C6_8 
REMARK       I    between atoms: C6_8  and  N2_10 
REMARK    4  A    between atoms: N2_10  and  C7_12 
REMARK    5  A    between atoms: C13_18  and  C14_20 
REMARK    6  A    between atoms: C14_20  and  N3_21 
REMARK    7  A    between atoms: C17_24  and  N4_25 
REMARK    8  A    between atoms: C22_30  and  N5_31 
ROOT
HETATM    1  C13 UNL     1     -20.507 -37.736   1.511  1.00  0.00     0.178 C 
HETATM    2  O2  UNL     1     -21.159 -36.796   1.006  1.00  0.00    -0.294 OA
ENDROOT
BRANCH   1   3
HETATM    3  C5  UNL     1     -20.100 -38.876   0.673  1.00  0.00     0.165 C 
BRANCH   3   4
HETATM    4  C2  UNL     1     -21.308 -39.819   0.633  1.00  0.00    -0.024 C 
HETATM    5  C1  UNL     1     -20.825 -41.252   0.702  1.00  0.00     0.017 C 
HETATM    6  C3  UNL     1     -22.061 -39.648  -0.678  1.00  0.00     0.017 C 
HETATM    7  C4  UNL     1     -22.272 -39.608   1.756  1.00  0.00     0.017 C 
ENDBRANCH   3   4
BRANCH   3   8
HETATM    8  N1  UNL     1     -19.627 -38.436  -0.569  1.00  0.00    -0.331 N 
HETATM    9  C6  UNL     1     -18.611 -37.695  -1.131  1.00  0.00     0.317 C 
HETATM   10  O1  UNL     1     -17.653 -37.178  -0.577  1.00  0.00    -0.247 OA
HETATM   11  N2  UNL     1     -18.617 -37.441  -2.596  1.00  0.00    -0.339 N 
ATOM     12  H2  UNL     1     -19.404 -37.767  -3.156  1.00  0.00     0.164 HD
ATOM     13  H1  UNL     1     -20.243 -38.781  -1.307  1.00  0.00     0.165 HD
BRANCH  11  14
HETATM   14  C7  UNL     1     -17.545 -36.753  -3.237  1.00  0.00     0.086 C 
HETATM   15  C8  UNL     1     -17.648 -35.241  -3.242  1.00  0.00     0.025 C 
HETATM   16  C9  UNL     1     -16.267 -34.758  -3.669  1.00  0.00     0.002 C 
HETATM   17  C10 UNL     1     -16.012 -35.167  -5.081  1.00  0.00     0.000 C 
HETATM   18  C11 UNL     1     -16.098 -36.654  -5.219  1.00  0.00     0.002 C 
HETATM   19  C12 UNL     1     -17.333 -37.272  -4.646  1.00  0.00     0.025 C 
ENDBRANCH  11  14
ENDBRANCH   3   8
ENDBRANCH   1   3
BRANCH   1  20
HETATM   20  C14 UNL     1     -20.207 -37.599   2.938  1.00  0.00     0.352 C 
BRANCH  20  21
HETATM   21  N3  UNL     1     -18.783 -37.548   3.206  1.00  0.00     0.097 N 
HETATM   22  C15 UNL     1     -18.419 -36.139   3.134  1.00  0.00     0.275 C 
HETATM   23  C16 UNL     1     -16.905 -36.048   3.127  1.00  0.00     0.066 C 
HETATM   24  C17 UNL     1     -16.458 -36.660   4.451  1.00  0.00     0.223 C 
HETATM   25  C22 UNL     1     -16.886 -38.089   4.555  1.00  0.00     0.242 C 
HETATM   26  C23 UNL     1     -18.430 -38.039   4.505  1.00  0.00     0.307 C 
BRANCH  24  27
HETATM   27  N4  UNL     1     -15.111 -36.358   4.783  1.00  0.00    -0.064 N 
HETATM   28  C18 UNL     1     -14.593 -37.343   5.743  1.00  0.00     0.273 C 
HETATM   29  C19 UNL     1     -14.704 -35.060   5.156  1.00  0.00     0.239 C 
HETATM   30  C20 UNL     1     -13.326 -35.377   4.522  1.00  0.00     0.056 C 
HETATM   31  C21 UNL     1     -14.190 -36.278   3.662  1.00  0.00     0.239 C 
ENDBRANCH  24  27
BRANCH  25  32
HETATM   32  N5  UNL     1     -16.493 -38.919   3.466  1.00  0.00    -0.071 N 
ATOM     33  H53 UNL     1     -16.019 -38.363   2.754  1.00  0.00     0.274 HD
ATOM     34  H52 UNL     1     -15.729 -39.533   3.750  1.00  0.00     0.274 HD
ATOM     35  H51 UNL     1     -17.244 -39.465   3.044  1.00  0.00     0.274 HD
ENDBRANCH  25  32
ENDBRANCH  20  21
ENDBRANCH   1  20
TORSDOF 8
ENDMDL
MODEL 2
REMARK VINA RESULT: -8.060326288      1.566      1.848
REMARK  8 active torsions:
REMARK  status: ('A' for Active; 'I' for Inactive)
REMARK    1  A    between atoms: C2_2  and  C5_5 
REMARK    2  A    between atoms: C5_5  and  N1_6 
REMARK    3  A    between atoms: C5_5  and  C13_18 
REMARK       I    between atoms: N1_6  and  C6_8 
REMARK       I    between atoms: C6_8  and  N2_10 
REMARK    4  A    between atoms: N2_10  and  C7_12 
REMARK    5  A    between atoms: C13_18  and  C14_20 
REMARK    6  A    between atoms: C14_20  and  N3_21 
REMARK    7  A    between atoms: C17_24  and  N4_25 
REMARK    8  A    between atoms: C22_30  and  N5_31 
ROOT
HETATM    1  C13 UNL     1     -20.395 -39.894   1.917  1.00  0.00     0.178 C 
HETATM    2  O2  UNL     1     -20.471 -41.001   2.495  1.00  0.00    -0.294 OA
ENDROOT
BRANCH   1   3
HETATM    3  C5  UNL     1     -20.360 -39.838   0.446  1.00  0.00     0.165 C 
BRANCH   3   4
HETATM    4  C2  UNL     1     -21.740 -40.310  -0.024  1.00  0.00    -0.024 C 
HETATM    5  C1  UNL     1     -21.615 -41.691  -0.632  1.00  0.00     0.017 C 
HETATM    6  C3  UNL     1     -22.272 -39.378  -1.101  1.00  0.00     0.017 C 
HETATM    7  C4  UNL     1     -22.755 -40.384   1.072  1.00  0.00     0.017 C 
ENDBRANCH   3   4
BRANCH   3   8
HETATM    8  N1  UNL     1     -19.966 -38.568   0.007  1.00  0.00    -0.331 N 
HETATM    9  C6  UNL     1     -18.912 -37.919  -0.598  1.00  0.00     0.317 C 
HETATM   10  O1  UNL     1     -17.874 -38.398  -1.029  1.00  0.00    -0.247 OA
HETATM   11  N2  UNL     1     -18.967 -36.444  -0.774  1.00  0.00    -0.339 N 
ATOM     12  H2  UNL     1     -19.757 -35.925  -0.391  1.00  0.00     0.164 HD
ATOM     13  H1  UNL     1     -20.711 -37.898   0.198  1.00  0.00     0.165 HD
BRANCH  11  14
HETATM   14  C7  UNL     1     -17.941 -35.738  -1.467  1.00  0.00     0.086 C 
HETATM   15  C8  UNL     1     -17.057 -34.858  -0.609  1.00  0.00     0.025 C 
HETATM   16  C9  UNL     1     -15.879 -34.497  -1.505  1.00  0.00     0.002 C 
HETATM   17  C10 UNL     1     -16.354 -33.643  -2.633  1.00  0.00     0.000 C 
HETATM   18  C11 UNL     1     -17.399 -34.361  -3.427  1.00  0.00     0.002 C 
HETATM   19  C12 UNL     1     -18.517 -34.942  -2.622  1.00  0.00     0.025 C 
ENDBRANCH  11  14
ENDBRANCH   3   8
ENDBRANCH   1   3
BRANCH   1  20
HETATM   20  C14 UNL     1     -20.348 -38.726   2.800  1.00  0.00     0.352 C 
BRANCH  20  21
HETATM   21  N3  UNL     1     -18.993 -38.293   3.079  1.00  0.00     0.097 N 
HETATM   22  C15 UNL     1     -19.019 -36.838   2.995  1.00  0.00     0.275 C 
HETATM   23  C16 UNL     1     -17.585 -36.344   2.999  1.00  0.00     0.066 C 
HETATM   24  C17 UNL     1     -17.005 -36.802   4.333  1.00  0.00     0.223 C 
HETATM   25  C22 UNL     1     -17.035 -38.293   4.449  1.00  0.00     0.242 C 
HETATM   26  C23 UNL     1     -18.535 -38.659   4.386  1.00  0.00     0.307 C 
BRANCH  24  27
HETATM   27  N4  UNL     1     -15.793 -36.147   4.673  1.00  0.00    -0.064 N 
HETATM   28  C18 UNL     1     -16.043 -35.113   5.686  1.00  0.00     0.273 C 
HETATM   29  C19 UNL     1     -14.904 -35.659   3.693  1.00  0.00     0.239 C 
HETATM   30  C20 UNL     1     -13.749 -35.947   4.685  1.00  0.00     0.056 C 
HETATM   31  C21 UNL     1     -14.725 -37.010   5.150  1.00  0.00     0.239 C 
ENDBRANCH  24  27
BRANCH  25  32
HETATM   32  N5  UNL     1     -16.422 -38.995   3.372  1.00  0.00    -0.071 N 
ATOM     33  H53 UNL     1     -16.556 -38.486   2.499  1.00  0.00     0.274 HD
ATOM     34  H52 UNL     1     -15.406 -38.946   3.454  1.00  0.00     0.274 HD
ATOM     35  H51 UNL     1     -16.718 -39.965   3.263  1.00  0.00     0.274 HD
ENDBRANCH  25  32
ENDBRANCH  20  21
ENDBRANCH   1  20
TORSDOF 8
ENDMDL
MODEL 3
REMARK VINA RESULT: -7.929771217      1.546      1.906
REMARK  8 active torsions:
REMARK  status: ('A' for Active; 'I' for Inactive)
REMARK    1  A    between atoms: C2_2  and  C5_5 
REMARK    2  A    between atoms: C5_5  and  N1_6 
REMARK    3  A    between atoms: C5_5  and  C13_18 
REMARK       I    between atoms: N1_6  and  C6_8 
REMARK       I    between atoms: C6_8  and  N2_10 
REMARK    4  A    between atoms: N2_10  and  C7_12 
REMARK    5  A    between atoms: C13_18  and  C14_20 
REMARK    6  A    between atoms: C14_20  and  N3_21 
REMARK    7  A    between atoms: C17_24  and  N4_25 
REMARK    8  A    between atoms: C22_30  and  N5_31 
ROOT
HETATM    1  C13 UNL     1     -20.618 -39.247   1.991  1.00  0.00     0.178 C 
HETATM    2  O2  UNL     1     -21.513 -38.375   2.043  1.00  0.00    -0.294 OA
ENDROOT
BRANCH   1   3
HETATM    3  C5  UNL     1     -20.324 -39.917   0.713  1.00  0.00     0.165 C 
BRANCH   3   4
HETATM    4  C2  UNL     1     -21.685 -40.296   0.117  1.00  0.00    -0.024 C 
HETATM    5  C1  UNL     1     -21.553 -41.600  -0.641  1.00  0.00     0.017 C 
HETATM    6  C3  UNL     1     -22.137 -39.232  -0.871  1.00  0.00     0.017 C 
HETATM    7  C4  UNL     1     -22.761 -40.470   1.140  1.00  0.00     0.017 C 
ENDBRANCH   3   4
BRANCH   3   8
HETATM    8  N1  UNL     1     -19.506 -39.116  -0.093  1.00  0.00    -0.331 N 
HETATM    9  C6  UNL     1     -19.120 -37.805  -0.265  1.00  0.00     0.317 C 
HETATM   10  O1  UNL     1     -19.419 -36.832   0.411  1.00  0.00    -0.247 OA
HETATM   11  N2  UNL     1     -18.233 -37.448  -1.404  1.00  0.00    -0.339 N 
ATOM     12  H2  UNL     1     -17.972 -38.168  -2.077  1.00  0.00     0.164 HD
ATOM     13  H1  UNL     1     -19.039 -39.700  -0.786  1.00  0.00     0.165 HD
BRANCH  11  14
HETATM   14  C7  UNL     1     -17.740 -36.122  -1.575  1.00  0.00     0.086 C 
HETATM   15  C8  UNL     1     -17.886 -35.543  -2.967  1.00  0.00     0.025 C 
HETATM   16  C9  UNL     1     -17.601 -34.055  -2.802  1.00  0.00     0.002 C 
HETATM   17  C10 UNL     1     -16.174 -33.861  -2.414  1.00  0.00     0.000 C 
HETATM   18  C11 UNL     1     -15.876 -34.583  -1.138  1.00  0.00     0.002 C 
HETATM   19  C12 UNL     1     -16.300 -36.016  -1.108  1.00  0.00     0.025 C 
ENDBRANCH  11  14
ENDBRANCH   3   8
ENDBRANCH   1   3
BRANCH   1  20
HETATM   20  C14 UNL     1     -19.929 -39.519   3.255  1.00  0.00     0.352 C 
BRANCH  20  21
HETATM   21  N3  UNL     1     -18.868 -38.569   3.528  1.00  0.00     0.097 N 
HETATM   22  C15 UNL     1     -18.794 -38.469   4.980  1.00  0.00     0.275 C 
HETATM   23  C16 UNL     1     -17.902 -37.291   5.321  1.00  0.00     0.066 C 
HETATM   24  C17 UNL     1     -16.539 -37.631   4.727  1.00  0.00     0.223 C 
HETATM   25  C22 UNL     1     -16.625 -37.797   3.244  1.00  0.00     0.242 C 
HETATM   26  C23 UNL     1     -17.589 -38.988   3.039  1.00  0.00     0.307 C 
BRANCH  24  27
HETATM   27  N4  UNL     1     -15.488 -36.821   5.232  1.00  0.00    -0.064 N 
HETATM   28  C18 UNL     1     -14.947 -37.405   6.467  1.00  0.00     0.273 C 
HETATM   29  C19 UNL     1     -15.620 -35.425   5.375  1.00  0.00     0.239 C 
HETATM   30  C20 UNL     1     -14.099 -35.314   5.099  1.00  0.00     0.056 C 
HETATM   31  C21 UNL     1     -14.386 -36.580   4.316  1.00  0.00     0.239 C 
ENDBRANCH  24  27
BRANCH  25  32
HETATM   32  N5  UNL     1     -17.212 -36.703   2.546  1.00  0.00    -0.071 N 
ATOM     33  H53 UNL     1     -18.205 -36.636   2.770  1.00  0.00     0.274 HD
ATOM     34  H52 UNL     1     -16.881 -35.820   2.935  1.00  0.00     0.274 HD
ATOM     35  H51 UNL     1     -17.079 -36.713   1.534  1.00  0.00     0.274 HD
ENDBRANCH  25  32
ENDBRANCH  20  21
ENDBRANCH   1  20
TORSDOF 8
ENDMDL
MODEL 4
REMARK VINA RESULT: -7.874917720      0.967      1.140
REMARK  8 active torsions:
REMARK  status: ('A' for Active; 'I' for Inactive)
REMARK    1  A    between atoms: C2_2  and  C5_5 
REMARK    2  A    between atoms: C5_5  and  N1_6 
REMARK    3  A    between atoms: C5_5  and  C13_18 
REMARK       I    between atoms: N1_6  and  C6_8 
REMARK       I    between atoms: C6_8  and  N2_10 
REMARK    4  A    between atoms: N2_10  and  C7_12 
REMARK    5  A    between atoms: C13_18  and  C14_20 
REMARK    6  A    between atoms: C14_20  and  N3_21 
REMARK    7  A    between atoms: C17_24  and  N4_25 
REMARK    8  A    between atoms: C22_30  and  N5_31 
ROOT
HETATM    1  C13 UNL     1     -20.407 -38.702   1.439  1.00  0.00     0.178 C 
HETATM    2  O2  UNL     1     -20.997 -37.604   1.333  1.00  0.00    -0.294 OA
ENDROOT
BRANCH   1   3
HETATM    3  C5  UNL     1     -20.299 -39.589   0.269  1.00  0.00     0.165 C 
BRANCH   3   4
HETATM    4  C2  UNL     1     -21.681 -40.230   0.101  1.00  0.00    -0.024 C 
HETATM    5  C1  UNL     1     -21.523 -41.605  -0.512  1.00  0.00     0.017 C 
HETATM    6  C3  UNL     1     -22.531 -39.398  -0.848  1.00  0.00     0.017 C 
HETATM    7  C4  UNL     1     -22.431 -40.385   1.384  1.00  0.00     0.017 C 
ENDBRANCH   3   4
BRANCH   3   8
HETATM    8  N1  UNL     1     -19.810 -38.890  -0.842  1.00  0.00    -0.331 N 
HETATM    9  C6  UNL     1     -18.796 -38.036  -1.213  1.00  0.00     0.317 C 
HETATM   10  O1  UNL     1     -17.856 -37.638  -0.541  1.00  0.00    -0.247 OA
HETATM   11  N2  UNL     1     -18.779 -37.477  -2.591  1.00  0.00    -0.339 N 
ATOM     12  H2  UNL     1     -19.551 -37.685  -3.223  1.00  0.00     0.164 HD
ATOM     13  H1  UNL     1     -20.407 -39.077  -1.648  1.00  0.00     0.165 HD
BRANCH  11  14
HETATM   14  C7  UNL     1     -17.706 -36.656  -3.048  1.00  0.00     0.086 C 
HETATM   15  C8  UNL     1     -17.921 -35.163  -2.916  1.00  0.00     0.025 C 
HETATM   16  C9  UNL     1     -16.547 -34.549  -3.151  1.00  0.00     0.002 C 
HETATM   17  C10 UNL     1     -16.129 -34.790  -4.563  1.00  0.00     0.000 C 
HETATM   18  C11 UNL     1     -16.089 -36.257  -4.853  1.00  0.00     0.002 C 
HETATM   19  C12 UNL     1     -17.323 -37.011  -4.472  1.00  0.00     0.025 C 
ENDBRANCH  11  14
ENDBRANCH   3   8
ENDBRANCH   1   3
BRANCH   1  20
HETATM   20  C14 UNL     1     -19.865 -39.000   2.767  1.00  0.00     0.352 C 
BRANCH  20  21
HETATM   21  N3  UNL     1     -18.739 -38.155   3.112  1.00  0.00     0.097 N 
HETATM   22  C15 UNL     1     -18.783 -38.014   4.562  1.00  0.00     0.275 C 
HETATM   23  C16 UNL     1     -17.806 -36.922   4.955  1.00  0.00     0.066 C 
HETATM   24  C17 UNL     1     -16.439 -37.420   4.497  1.00  0.00     0.223 C 
HETATM   25  C22 UNL     1     -16.411 -37.626   3.016  1.00  0.00     0.242 C 
HETATM   26  C23 UNL     1     -17.472 -38.719   2.753  1.00  0.00     0.307 C 
BRANCH  24  27
HETATM   27  N4  UNL     1     -15.358 -36.705   5.075  1.00  0.00    -0.064 N 
HETATM   28  C18 UNL     1     -14.880 -37.398   6.279  1.00  0.00     0.273 C 
HETATM   29  C19 UNL     1     -15.417 -35.316   5.309  1.00  0.00     0.239 C 
HETATM   30  C20 UNL     1     -13.886 -35.273   5.072  1.00  0.00     0.056 C 
HETATM   31  C21 UNL     1     -14.223 -36.466   4.200  1.00  0.00     0.239 C 
ENDBRANCH  24  27
BRANCH  25  32
HETATM   32  N5  UNL     1     -16.816 -36.501   2.241  1.00  0.00    -0.071 N 
ATOM     33  H53 UNL     1     -16.862 -35.669   2.828  1.00  0.00     0.274 HD
ATOM     34  H52 UNL     1     -16.070 -36.228   1.601  1.00  0.00     0.274 HD
ATOM     35  H51 UNL     1     -17.692 -36.620   1.730  1.00  0.00     0.274 HD
ENDBRANCH  25  32
ENDBRANCH  20  21
ENDBRANCH   1  20
TORSDOF 8
ENDMDL
MODEL 5
REMARK VINA RESULT: -7.739361459      1.667      5.589
REMARK  8 active torsions:
REMARK  status: ('A' for Active; 'I' for Inactive)
REMARK    1  A    between atoms: C2_2  and  C5_5 
REMARK    2  A    between atoms: C5_5  and  N1_6 
REMARK    3  A    between atoms: C5_5  and  C13_18 
REMARK       I    between atoms: N1_6  and  C6_8 
REMARK       I    between atoms: C6_8  and  N2_10 
REMARK    4  A    between atoms: N2_10  and  C7_12 
REMARK    5  A    between atoms: C13_18  and  C14_20 
REMARK    6  A    between atoms: C14_20  and  N3_21 
REMARK    7  A    between atoms: C17_24  and  N4_25 
REMARK    8  A    between atoms: C22_30  and  N5_31 
ROOT
HETATM    1  C13 UNL     1     -16.331 -35.732  -1.044  1.00  0.00     0.178 C 
HETATM    2  O2  UNL     1     -15.580 -36.439  -1.751  1.00  0.00    -0.294 OA
ENDROOT
BRANCH   1   3
HETATM    3  C5  UNL     1     -17.757 -35.607  -1.391  1.00  0.00     0.165 C 
BRANCH   3   4
HETATM    4  C2  UNL     1     -17.796 -35.272  -2.886  1.00  0.00    -0.024 C 
HETATM    5  C1  UNL     1     -19.219 -34.950  -3.289  1.00  0.00     0.017 C 
HETATM    6  C3  UNL     1     -17.346 -36.474  -3.702  1.00  0.00     0.017 C 
HETATM    7  C4  UNL     1     -16.940 -34.106  -3.263  1.00  0.00     0.017 C 
ENDBRANCH   3   4
BRANCH   3   8
HETATM    8  N1  UNL     1     -18.465 -36.750  -1.002  1.00  0.00    -0.331 N 
HETATM    9  C6  UNL     1     -19.491 -37.150  -0.174  1.00  0.00     0.317 C 
HETATM   10  O1  UNL     1     -20.212 -36.457   0.528  1.00  0.00    -0.247 OA
HETATM   11  N2  UNL     1     -19.817 -38.596  -0.060  1.00  0.00    -0.339 N 
ATOM     12  H2  UNL     1     -19.237 -39.278  -0.549  1.00  0.00     0.164 HD
ATOM     13  H1  UNL     1     -18.097 -37.561  -1.500  1.00  0.00     0.165 HD
BRANCH  11  14
HETATM   14  C7  UNL     1     -20.922 -39.051   0.717  1.00  0.00     0.086 C 
HETATM   15  C8  UNL     1     -20.620 -39.353   2.171  1.00  0.00     0.025 C 
HETATM   16  C9  UNL     1     -21.986 -39.490   2.832  1.00  0.00     0.002 C 
HETATM   17  C10 UNL     1     -22.684 -40.691   2.288  1.00  0.00     0.000 C 
HETATM   18  C11 UNL     1     -22.844 -40.577   0.806  1.00  0.00     0.002 C 
HETATM   19  C12 UNL     1     -21.593 -40.241   0.059  1.00  0.00     0.025 C 
ENDBRANCH  11  14
ENDBRANCH   3   8
ENDBRANCH   1   3
BRANCH   1  20
HETATM   20  C14 UNL     1     -15.689 -35.077   0.098  1.00  0.00     0.352 C 
BRANCH  20  21
HETATM   21  N3  UNL     1     -15.828 -35.835   1.326  1.00  0.00     0.097 N 
HETATM   22  C15 UNL     1     -14.711 -35.428   2.170  1.00  0.00     0.275 C 
HETATM   23  C16 UNL     1     -14.641 -36.383   3.345  1.00  0.00     0.066 C 
HETATM   24  C17 UNL     1     -15.967 -36.217   4.080  1.00  0.00     0.223 C 
HETATM   25  C22 UNL     1     -17.120 -36.573   3.196  1.00  0.00     0.242 C 
HETATM   26  C23 UNL     1     -17.045 -35.562   2.030  1.00  0.00     0.307 C 
BRANCH  24  27
HETATM   27  N4  UNL     1     -15.957 -36.764   5.389  1.00  0.00    -0.064 N 
HETATM   28  C18 UNL     1     -14.811 -37.669   5.552  1.00  0.00     0.273 C 
HETATM   29  C19 UNL     1     -17.109 -37.332   5.973  1.00  0.00     0.239 C 
HETATM   30  C20 UNL     1     -16.569 -36.863   7.347  1.00  0.00     0.056 C 
HETATM   31  C21 UNL     1     -15.938 -35.797   6.474  1.00  0.00     0.239 C 
ENDBRANCH  24  27
BRANCH  25  32
HETATM   32  N5  UNL     1     -17.043 -37.862   2.594  1.00  0.00    -0.071 N 
ATOM     33  H53 UNL     1     -17.580 -37.876   1.727  1.00  0.00     0.274 HD
ATOM     34  H52 UNL     1     -16.105 -38.022   2.225  1.00  0.00     0.274 HD
ATOM     35  H51 UNL     1     -17.322 -38.638   3.194  1.00  0.00     0.274 HD
ENDBRANCH  25  32
ENDBRANCH  20  21
ENDBRANCH   1  20
TORSDOF 8
ENDMDL
