MODEL 1
REMARK VINA RESULT: -8.818685296      0.000      0.000
REMARK  6 active torsions:
REMARK  status: ('A' for Active; 'I' for Inactive)
REMARK       I    between atoms: C2_2  and  N1_4 
REMARK    1  A    between atoms: N1_4  and  C3_6 
REMARK    2  A    between atoms: C3_6  and  C4_7 
REMARK    3  A    between atoms: C3_6  and  C8_11 
REMARK    4  A    between atoms: C4_7  and  C5_8 
REMARK       I    between atoms: C8_11  and  N2_13 
REMARK    5  A    between atoms: C13_18  and  C14_19 
REMARK       I    between atoms: C14_19  and  N3_21 
REMARK    6  A    between atoms: N3_21  and  C15_23 
ROOT
HETATM    1  C8  UNL     1     -18.528 -37.142  -0.181  1.00  0.00     0.267 C 
HETATM    2  O2  UNL     1     -18.407 -38.360  -0.393  1.00  0.00    -0.266 OA
HETATM    3  N2  UNL     1     -18.400 -36.683   1.177  1.00  0.00    -0.334 N 
HETATM    4  C9  UNL     1     -19.151 -35.487   1.566  1.00  0.00     0.127 C 
HETATM    5  C10 UNL     1     -19.599 -35.561   3.025  1.00  0.00     0.020 C 
HETATM    6  C11 UNL     1     -18.451 -35.850   3.931  1.00  0.00     0.004 C 
HETATM    7  C12 UNL     1     -17.174 -35.994   3.135  1.00  0.00     0.035 C 
HETATM    8  C13 UNL     1     -17.443 -37.141   2.081  1.00  0.00     0.179 C 
ENDROOT
BRANCH   8   9
HETATM    9  C14 UNL     1     -17.518 -38.336   2.917  1.00  0.00     0.241 C 
HETATM   10  O3  UNL     1     -16.633 -38.864   3.613  1.00  0.00    -0.271 OA
HETATM   11  N3  UNL     1     -18.812 -38.994   2.915  1.00  0.00    -0.354 N 
ATOM     12  H3  UNL     1     -19.557 -38.541   2.385  1.00  0.00     0.162 HD
BRANCH  11  13
HETATM   13  C15 UNL     1     -19.140 -40.200   3.576  1.00  0.00     0.092 C 
HETATM   14  C16 UNL     1     -20.228 -40.972   2.836  1.00  0.00     0.009 C 
HETATM   15  C17 UNL     1     -21.561 -40.272   3.032  1.00  0.00     0.011 C 
HETATM   16  C21 UNL     1     -20.342 -42.360   3.402  1.00  0.00     0.011 C 
HETATM   17  C18 UNL     1     -21.897 -40.241   4.519  1.00  0.00    -0.013 C 
HETATM   18  C19 UNL     1     -21.933 -41.623   5.068  1.00  0.00     0.009 C 
HETATM   19  C24 UNL     1     -20.847 -39.397   5.220  1.00  0.00     0.011 C 
HETATM   20  C20 UNL     1     -20.581 -42.303   4.905  1.00  0.00    -0.013 C 
HETATM   21  C22 UNL     1     -19.543 -41.490   5.599  1.00  0.00     0.011 C 
HETATM   22  C23 UNL     1     -19.527 -40.068   5.032  1.00  0.00     0.009 C 
ENDBRANCH  11  13
ENDBRANCH   8   9
BRANCH   1  23
HETATM   23  C3  UNL     1     -18.789 -36.207  -1.320  1.00  0.00     0.080 C 
BRANCH  23  24
HETATM   24  N1  UNL     1     -17.884 -35.211  -1.677  1.00  0.00    -0.326 N 
HETATM   25  C2  UNL     1     -16.489 -35.224  -1.916  1.00  0.00     0.218 C 
HETATM   26  C1  UNL     1     -15.840 -33.919  -2.293  1.00  0.00     0.117 C 
HETATM   27  O1  UNL     1     -15.805 -36.244  -1.828  1.00  0.00    -0.274 OA
ATOM     28  H1  UNL     1     -18.310 -34.291  -1.789  1.00  0.00     0.168 HD
ENDBRANCH  23  24
BRANCH  23  29
HETATM   29  C4  UNL     1     -19.537 -36.961  -2.363  1.00  0.00     0.067 C 
BRANCH  29  30
HETATM   30  C5  UNL     1     -18.789 -37.936  -3.191  1.00  0.00    -0.017 C 
HETATM   31  C6  UNL     1     -19.495 -39.239  -3.461  1.00  0.00     0.010 C 
HETATM   32  C7  UNL     1     -18.055 -37.397  -4.383  1.00  0.00     0.010 C 
ENDBRANCH  29  30
ENDBRANCH  23  29
ENDBRANCH   1  23
TORSDOF 6
ENDMDL
MODEL 2
REMARK VINA RESULT: -8.455354198      2.504      8.272
REMARK  6 active torsions:
REMARK  status: ('A' for Active; 'I' for Inactive)
REMARK       I    between atoms: C2_2  and  N1_4 
REMARK    1  A    between atoms: N1_4  and  C3_6 
REMARK    2  A    between atoms: C3_6  and  C4_7 
REMARK    3  A    between atoms: C3_6  and  C8_11 
REMARK    4  A    between atoms: C4_7  and  C5_8 
REMARK       I    between atoms: C8_11  and  N2_13 
REMARK    5  A    between atoms: C13_18  and  C14_19 
REMARK       I    between atoms: C14_19  and  N3_21 
REMARK    6  A    between atoms: N3_21  and  C15_23 
ROOT
HETATM    1  C8  UNL     1     -21.522 -39.244   2.765  1.00  0.00     0.267 C 
HETATM    2  O2  UNL     1     -21.378 -38.169   3.370  1.00  0.00    -0.266 OA
HETATM    3  N2  UNL     1     -21.140 -39.288   1.378  1.00  0.00    -0.334 N 
HETATM    4  C9  UNL     1     -21.862 -40.213   0.501  1.00  0.00     0.127 C 
HETATM    5  C10 UNL     1     -21.991 -39.652  -0.915  1.00  0.00     0.020 C 
HETATM    6  C11 UNL     1     -20.665 -39.245  -1.460  1.00  0.00     0.004 C 
HETATM    7  C12 UNL     1     -19.575 -39.500  -0.443  1.00  0.00     0.035 C 
HETATM    8  C13 UNL     1     -19.992 -38.699   0.853  1.00  0.00     0.179 C 
ENDROOT
BRANCH   8   9
HETATM    9  C14 UNL     1     -19.821 -37.307   0.441  1.00  0.00     0.241 C 
HETATM   10  O3  UNL     1     -20.452 -36.299   0.801  1.00  0.00    -0.271 OA
HETATM   11  N3  UNL     1     -18.767 -37.093  -0.534  1.00  0.00    -0.354 N 
ATOM     12  H3  UNL     1     -18.213 -37.907  -0.800  1.00  0.00     0.162 HD
BRANCH  11  13
HETATM   13  C15 UNL     1     -18.435 -35.866  -1.152  1.00  0.00     0.092 C 
HETATM   14  C16 UNL     1     -18.892 -35.823  -2.607  1.00  0.00     0.009 C 
HETATM   15  C17 UNL     1     -17.990 -36.714  -3.442  1.00  0.00     0.011 C 
HETATM   16  C21 UNL     1     -18.781 -34.420  -3.135  1.00  0.00     0.011 C 
HETATM   17  C18 UNL     1     -16.558 -36.198  -3.356  1.00  0.00    -0.013 C 
HETATM   18  C19 UNL     1     -16.490 -34.785  -3.817  1.00  0.00     0.009 C 
HETATM   19  C24 UNL     1     -16.097 -36.330  -1.915  1.00  0.00     0.011 C 
HETATM   20  C20 UNL     1     -17.364 -33.893  -2.948  1.00  0.00    -0.013 C 
HETATM   21  C22 UNL     1     -16.915 -34.004  -1.532  1.00  0.00     0.011 C 
HETATM   22  C23 UNL     1     -16.979 -35.465  -1.077  1.00  0.00     0.009 C 
ENDBRANCH  11  13
ENDBRANCH   8   9
BRANCH   1  23
HETATM   23  C3  UNL     1     -22.068 -40.439   3.481  1.00  0.00     0.080 C 
BRANCH  23  24
HETATM   24  N1  UNL     1     -21.408 -41.015   4.563  1.00  0.00    -0.326 N 
HETATM   25  C2  UNL     1     -20.435 -42.038   4.659  1.00  0.00     0.218 C 
HETATM   26  C1  UNL     1     -19.943 -42.398   6.035  1.00  0.00     0.117 C 
HETATM   27  O1  UNL     1     -19.988 -42.629   3.676  1.00  0.00    -0.274 OA
ATOM     28  H1  UNL     1     -21.679 -40.622   5.465  1.00  0.00     0.168 HD
ENDBRANCH  23  24
BRANCH  23  29
HETATM   29  C4  UNL     1     -23.554 -40.336   3.467  1.00  0.00     0.067 C 
BRANCH  29  30
HETATM   30  C5  UNL     1     -24.334 -41.550   3.130  1.00  0.00    -0.017 C 
HETATM   31  C6  UNL     1     -25.106 -42.164   4.268  1.00  0.00     0.010 C 
HETATM   32  C7  UNL     1     -25.090 -41.538   1.835  1.00  0.00     0.010 C 
ENDBRANCH  29  30
ENDBRANCH  23  29
ENDBRANCH   1  23
TORSDOF 6
ENDMDL
MODEL 3
REMARK VINA RESULT: -8.382655571      2.696      8.562
REMARK  6 active torsions:
REMARK  status: ('A' for Active; 'I' for Inactive)
REMARK       I    between atoms: C2_2  and  N1_4 
REMARK    1  A    between atoms: N1_4  and  C3_6 
REMARK    2  A    between atoms: C3_6  and  C4_7 
REMARK    3  A    between atoms: C3_6  and  C8_11 
REMARK    4  A    between atoms: C4_7  and  C5_8 
REMARK       I    between atoms: C8_11  and  N2_13 
REMARK    5  A    between atoms: C13_18  and  C14_19 
REMARK       I    between atoms: C14_19  and  N3_21 
REMARK    6  A    between atoms: N3_21  and  C15_23 
ROOT
HETATM    1  C8  UNL     1     -21.372 -39.426   2.763  1.00  0.00     0.267 C 
HETATM    2  O2  UNL     1     -21.182 -38.370   3.389  1.00  0.00    -0.266 OA
HETATM    3  N2  UNL     1     -21.090 -39.428   1.352  1.00  0.00    -0.334 N 
HETATM    4  C9  UNL     1     -21.875 -40.325   0.501  1.00  0.00     0.127 C 
HETATM    5  C10 UNL     1     -22.103 -39.721  -0.885  1.00  0.00     0.020 C 
HETATM    6  C11 UNL     1     -20.817 -39.300  -1.510  1.00  0.00     0.004 C 
HETATM    7  C12 UNL     1     -19.659 -39.588  -0.581  1.00  0.00     0.035 C 
HETATM    8  C13 UNL     1     -19.980 -38.825   0.765  1.00  0.00     0.179 C 
ENDROOT
BRANCH   8   9
HETATM    9  C14 UNL     1     -19.833 -37.422   0.384  1.00  0.00     0.241 C 
HETATM   10  O3  UNL     1     -20.479 -36.433   0.769  1.00  0.00    -0.271 OA
HETATM   11  N3  UNL     1     -18.787 -37.168  -0.590  1.00  0.00    -0.354 N 
ATOM     12  H3  UNL     1     -18.221 -37.968  -0.875  1.00  0.00     0.162 HD
BRANCH  11  13
HETATM   13  C15 UNL     1     -18.477 -35.922  -1.181  1.00  0.00     0.092 C 
HETATM   14  C16 UNL     1     -18.914 -35.865  -2.641  1.00  0.00     0.009 C 
HETATM   15  C17 UNL     1     -17.978 -36.717  -3.479  1.00  0.00     0.011 C 
HETATM   16  C21 UNL     1     -18.832 -34.450  -3.142  1.00  0.00     0.011 C 
HETATM   17  C18 UNL     1     -16.561 -36.168  -3.363  1.00  0.00    -0.013 C 
HETATM   18  C19 UNL     1     -16.523 -34.745  -3.798  1.00  0.00     0.009 C 
HETATM   19  C24 UNL     1     -16.117 -36.314  -1.917  1.00  0.00     0.011 C 
HETATM   20  C20 UNL     1     -17.431 -33.891  -2.926  1.00  0.00    -0.013 C 
HETATM   21  C22 UNL     1     -17.000 -34.017  -1.506  1.00  0.00     0.011 C 
HETATM   22  C23 UNL     1     -17.033 -35.486  -1.078  1.00  0.00     0.009 C 
ENDBRANCH  11  13
ENDBRANCH   8   9
BRANCH   1  23
HETATM   23  C3  UNL     1     -21.871 -40.641   3.480  1.00  0.00     0.080 C 
BRANCH  23  24
HETATM   24  N1  UNL     1     -23.186 -41.082   3.357  1.00  0.00    -0.326 N 
HETATM   25  C2  UNL     1     -24.225 -41.273   4.299  1.00  0.00     0.218 C 
HETATM   26  C1  UNL     1     -25.545 -41.773   3.779  1.00  0.00     0.117 C 
HETATM   27  O1  UNL     1     -24.087 -41.047   5.501  1.00  0.00    -0.274 OA
ATOM     28  H1  UNL     1     -23.453 -41.312   2.400  1.00  0.00     0.168 HD
ENDBRANCH  23  24
BRANCH  23  29
HETATM   29  C4  UNL     1     -20.748 -41.617   3.552  1.00  0.00     0.067 C 
BRANCH  29  30
HETATM   30  C5  UNL     1     -20.224 -41.979   4.890  1.00  0.00    -0.017 C 
HETATM   31  C6  UNL     1     -19.551 -40.866   5.649  1.00  0.00     0.010 C 
HETATM   32  C7  UNL     1     -21.093 -42.846   5.752  1.00  0.00     0.010 C 
ENDBRANCH  29  30
ENDBRANCH  23  29
ENDBRANCH   1  23
TORSDOF 6
ENDMDL
MODEL 4
REMARK VINA RESULT: -8.316829095      1.175      1.492
REMARK  6 active torsions:
REMARK  status: ('A' for Active; 'I' for Inactive)
REMARK       I    between atoms: C2_2  and  N1_4 
REMARK    1  A    between atoms: N1_4  and  C3_6 
REMARK    2  A    between atoms: C3_6  and  C4_7 
REMARK    3  A    between atoms: C3_6  and  C8_11 
REMARK    4  A    between atoms: C4_7  and  C5_8 
REMARK       I    between atoms: C8_11  and  N2_13 
REMARK    5  A    between atoms: C13_18  and  C14_19 
REMARK       I    between atoms: C14_19  and  N3_21 
REMARK    6  A    between atoms: N3_21  and  C15_23 
ROOT
HETATM    1  C8  UNL     1     -18.331 -37.748   0.548  1.00  0.00     0.267 C 
HETATM    2  O2  UNL     1     -18.321 -38.985   0.665  1.00  0.00    -0.266 OA
HETATM    3  N2  UNL     1     -18.536 -36.964   1.737  1.00  0.00    -0.334 N 
HETATM    4  C9  UNL     1     -19.199 -35.666   1.592  1.00  0.00     0.127 C 
HETATM    5  C10 UNL     1     -20.052 -35.336   2.817  1.00  0.00     0.020 C 
HETATM    6  C11 UNL     1     -19.262 -35.450   4.075  1.00  0.00     0.004 C 
HETATM    7  C12 UNL     1     -17.841 -35.870   3.769  1.00  0.00     0.035 C 
HETATM    8  C13 UNL     1     -17.950 -37.231   2.972  1.00  0.00     0.179 C 
ENDROOT
BRANCH   8   9
HETATM    9  C14 UNL     1     -18.421 -38.165   3.992  1.00  0.00     0.241 C 
HETATM   10  O3  UNL     1     -18.038 -38.303   5.167  1.00  0.00    -0.271 OA
HETATM   11  N3  UNL     1     -19.477 -39.057   3.550  1.00  0.00    -0.354 N 
ATOM     12  H3  UNL     1     -19.830 -38.918   2.603  1.00  0.00     0.162 HD
BRANCH  11  13
HETATM   13  C15 UNL     1     -20.065 -40.098   4.304  1.00  0.00     0.092 C 
HETATM   14  C16 UNL     1     -20.440 -41.289   3.428  1.00  0.00     0.009 C 
HETATM   15  C17 UNL     1     -21.661 -40.936   2.597  1.00  0.00     0.011 C 
HETATM   16  C21 UNL     1     -20.789 -42.468   4.293  1.00  0.00     0.011 C 
HETATM   17  C18 UNL     1     -22.825 -40.618   3.528  1.00  0.00    -0.013 C 
HETATM   18  C19 UNL     1     -23.102 -41.775   4.421  1.00  0.00     0.009 C 
HETATM   19  C24 UNL     1     -22.462 -39.379   4.329  1.00  0.00     0.011 C 
HETATM   20  C20 UNL     1     -21.888 -42.096   5.280  1.00  0.00    -0.013 C 
HETATM   21  C22 UNL     1     -21.528 -40.891   6.079  1.00  0.00     0.011 C 
HETATM   22  C23 UNL     1     -21.258 -39.707   5.147  1.00  0.00     0.009 C 
ENDBRANCH  11  13
ENDBRANCH   8   9
BRANCH   1  23
HETATM   23  C3  UNL     1     -18.126 -37.123  -0.796  1.00  0.00     0.080 C 
BRANCH  23  24
HETATM   24  N1  UNL     1     -17.206 -36.098  -1.000  1.00  0.00    -0.326 N 
HETATM   25  C2  UNL     1     -17.144 -35.037  -1.934  1.00  0.00     0.218 C 
HETATM   26  C1  UNL     1     -15.968 -34.103  -1.843  1.00  0.00     0.117 C 
HETATM   27  O1  UNL     1     -18.002 -34.857  -2.799  1.00  0.00    -0.274 OA
ATOM     28  H1  UNL     1     -16.423 -36.115  -0.347  1.00  0.00     0.168 HD
ENDBRANCH  23  24
BRANCH  23  29
HETATM   29  C4  UNL     1     -18.319 -38.183  -1.824  1.00  0.00     0.067 C 
BRANCH  29  30
HETATM   30  C5  UNL     1     -19.615 -38.231  -2.541  1.00  0.00    -0.017 C 
HETATM   31  C6  UNL     1     -19.539 -38.051  -4.035  1.00  0.00     0.010 C 
HETATM   32  C7  UNL     1     -20.591 -39.289  -2.118  1.00  0.00     0.010 C 
ENDBRANCH  29  30
ENDBRANCH  23  29
ENDBRANCH   1  23
TORSDOF 6
ENDMDL
MODEL 5
REMARK VINA RESULT: -8.249989231      1.957      7.381
REMARK  6 active torsions:
REMARK  status: ('A' for Active; 'I' for Inactive)
REMARK       I    between atoms: C2_2  and  N1_4 
REMARK    1  A    between atoms: N1_4  and  C3_6 
REMARK    2  A    between atoms: C3_6  and  C4_7 
REMARK    3  A    between atoms: C3_6  and  C8_11 
REMARK    4  A    between atoms: C4_7  and  C5_8 
REMARK       I    between atoms: C8_11  and  N2_13 
REMARK    5  A    between atoms: C13_18  and  C14_19 
REMARK       I    between atoms: C14_19  and  N3_21 
REMARK    6  A    between atoms: N3_21  and  C15_23 
ROOT
HETATM    1  C8  UNL     1     -19.397 -38.576   1.735  1.00  0.00     0.267 C 
HETATM    2  O2  UNL     1     -19.677 -38.161   0.598  1.00  0.00    -0.266 OA
HETATM    3  N2  UNL     1     -18.314 -37.935   2.433  1.00  0.00    -0.334 N 
HETATM    4  C9  UNL     1     -17.543 -38.742   3.382  1.00  0.00     0.127 C 
HETATM    5  C10 UNL     1     -16.077 -38.309   3.419  1.00  0.00     0.020 C 
HETATM    6  C11 UNL     1     -15.951 -36.844   3.661  1.00  0.00     0.004 C 
HETATM    7  C12 UNL     1     -17.318 -36.210   3.791  1.00  0.00     0.035 C 
HETATM    8  C13 UNL     1     -18.090 -36.560   2.457  1.00  0.00     0.179 C 
ENDROOT
BRANCH   8   9
HETATM    9  C14 UNL     1     -17.384 -35.762   1.457  1.00  0.00     0.241 C 
HETATM   10  O3  UNL     1     -16.291 -35.177   1.549  1.00  0.00    -0.271 OA
HETATM   11  N3  UNL     1     -18.077 -35.637   0.188  1.00  0.00    -0.354 N 
ATOM     12  H3  UNL     1     -18.952 -36.153   0.088  1.00  0.00     0.162 HD
BRANCH  11  13
HETATM   13  C15 UNL     1     -17.658 -34.870  -0.923  1.00  0.00     0.092 C 
HETATM   14  C16 UNL     1     -18.510 -35.150  -2.158  1.00  0.00     0.009 C 
HETATM   15  C17 UNL     1     -18.151 -36.516  -2.715  1.00  0.00     0.011 C 
HETATM   16  C21 UNL     1     -18.225 -34.123  -3.217  1.00  0.00     0.011 C 
HETATM   17  C18 UNL     1     -16.680 -36.522  -3.115  1.00  0.00    -0.013 C 
HETATM   18  C19 UNL     1     -16.412 -35.449  -4.111  1.00  0.00     0.009 C 
HETATM   19  C24 UNL     1     -15.850 -36.325  -1.858  1.00  0.00     0.011 C 
HETATM   20  C20 UNL     1     -16.735 -34.081  -3.529  1.00  0.00    -0.013 C 
HETATM   21  C22 UNL     1     -15.919 -33.871  -2.301  1.00  0.00     0.011 C 
HETATM   22  C23 UNL     1     -16.196 -34.989  -1.292  1.00  0.00     0.009 C 
ENDBRANCH  11  13
ENDBRANCH   8   9
BRANCH   1  23
HETATM   23  C3  UNL     1     -20.181 -39.700   2.335  1.00  0.00     0.080 C 
BRANCH  23  24
HETATM   24  N1  UNL     1     -19.892 -40.208   3.598  1.00  0.00    -0.326 N 
HETATM   25  C2  UNL     1     -19.808 -41.527   4.105  1.00  0.00     0.218 C 
HETATM   26  C1  UNL     1     -19.460 -41.687   5.560  1.00  0.00     0.117 C 
HETATM   27  O1  UNL     1     -20.005 -42.523   3.410  1.00  0.00    -0.274 OA
ATOM     28  H1  UNL     1     -19.703 -39.488   4.296  1.00  0.00     0.168 HD
ENDBRANCH  23  24
BRANCH  23  29
HETATM   29  C4  UNL     1     -21.592 -39.562   1.878  1.00  0.00     0.067 C 
BRANCH  29  30
HETATM   30  C5  UNL     1     -22.189 -40.681   1.113  1.00  0.00    -0.017 C 
HETATM   31  C6  UNL     1     -23.667 -40.893   1.315  1.00  0.00     0.010 C 
HETATM   32  C7  UNL     1     -21.756 -40.840  -0.314  1.00  0.00     0.010 C 
ENDBRANCH  29  30
ENDBRANCH  23  29
ENDBRANCH   1  23
TORSDOF 6
ENDMDL
