MODEL 1
REMARK VINA RESULT: -7.226146108      0.000      0.000
REMARK  6 active torsions:
REMARK  status: ('A' for Active; 'I' for Inactive)
REMARK    1  A    between atoms: N1_2  and  C2_4 
REMARK    2  A    between atoms: C2_4  and  C3_5 
REMARK    3  A    between atoms: C2_4  and  C9_11 
REMARK    4  A    between atoms: C9_11  and  O1_12 
REMARK    5  A    between atoms: C9_11  and  C10_14 
REMARK    6  A    between atoms: C9_11  and  C14_19 
ROOT
HETATM    1  C9  UNL     1      19.893  86.275  45.022  1.00  0.00     0.158 C 
ENDROOT
BRANCH   1   2
HETATM    2  C2  UNL     1      18.705  86.994  44.512  1.00  0.00     0.153 C 
BRANCH   2   3
HETATM    3  N1  UNL     1      17.954  87.805  45.375  1.00  0.00    -0.414 N 
HETATM    4  C1  UNL     1      16.687  87.452  45.829  1.00  0.00     0.140 C 
ATOM      5  H1  UNL     1      18.353  88.692  45.682  1.00  0.00     0.153 HD
ENDBRANCH   2   3
BRANCH   2   6
HETATM    6  C3  UNL     1      18.922  87.709  43.218  1.00  0.00    -0.033 A 
HETATM    7  C4  UNL     1      17.967  87.636  42.217  1.00  0.00     0.009 A 
HETATM    8  C5  UNL     1      18.168  88.325  41.045  1.00  0.00     0.001 A 
HETATM    9  C6  UNL     1      19.309  89.087  40.849  1.00  0.00     0.000 A 
HETATM   10  C7  UNL     1      20.269  89.178  41.819  1.00  0.00     0.001 A 
HETATM   11  C8  UNL     1      20.062  88.483  43.000  1.00  0.00     0.009 A 
ENDBRANCH   2   6
ENDBRANCH   1   2
BRANCH   1  12
HETATM   12  O1  UNL     1      20.943  86.358  44.054  1.00  0.00    -0.378 OA
ATOM     13  H1  UNL     1      21.770  86.486  44.502  1.00  0.00     0.211 HD
ENDBRANCH   1  12
BRANCH   1  14
HETATM   14  C10 UNL     1      20.480  86.773  46.275  1.00  0.00     0.092 A 
HETATM   15  C11 UNL     1      21.847  86.931  46.481  1.00  0.00     0.038 A 
HETATM   16  C12 UNL     1      22.006  87.416  47.775  1.00  0.00     0.027 A 
HETATM   17  C13 UNL     1      20.730  87.529  48.287  1.00  0.00     0.142 A 
HETATM   18  O2  UNL     1      19.866  87.139  47.367  1.00  0.00    -0.324 OA
ENDBRANCH   1  14
BRANCH   1  19
HETATM   19  C14 UNL     1      19.639  84.754  45.089  1.00  0.00     0.188 A 
HETATM   20  C15 UNL     1      18.563  84.297  46.089  1.00  0.00     0.203 A 
HETATM   21  O3  UNL     1      18.401  84.286  44.731  1.00  0.00    -0.378 OA
ENDBRANCH   1  19
TORSDOF 6
ENDMDL
MODEL 2
REMARK VINA RESULT: -7.201362381      0.163      1.110
REMARK  6 active torsions:
REMARK  status: ('A' for Active; 'I' for Inactive)
REMARK    1  A    between atoms: N1_2  and  C2_4 
REMARK    2  A    between atoms: C2_4  and  C3_5 
REMARK    3  A    between atoms: C2_4  and  C9_11 
REMARK    4  A    between atoms: C9_11  and  O1_12 
REMARK    5  A    between atoms: C9_11  and  C10_14 
REMARK    6  A    between atoms: C9_11  and  C14_19 
ROOT
HETATM    1  C9  UNL     1      19.758  86.340  45.072  1.00  0.00     0.158 C 
ENDROOT
BRANCH   1   2
HETATM    2  C2  UNL     1      18.565  87.069  44.587  1.00  0.00     0.153 C 
BRANCH   2   3
HETATM    3  N1  UNL     1      17.843  87.892  45.462  1.00  0.00    -0.414 N 
HETATM    4  C1  UNL     1      16.595  87.544  45.970  1.00  0.00     0.140 C 
ATOM      5  H1  UNL     1      18.251  88.785  45.739  1.00  0.00     0.153 HD
ENDBRANCH   2   3
BRANCH   2   6
HETATM    6  C3  UNL     1      18.757  87.774  43.283  1.00  0.00    -0.033 A 
HETATM    7  C4  UNL     1      19.888  88.545  43.072  1.00  0.00     0.009 A 
HETATM    8  C5  UNL     1      20.063  89.162  41.856  1.00  0.00     0.001 A 
HETATM    9  C6  UNL     1      19.129  89.024  40.841  1.00  0.00     0.000 A 
HETATM   10  C7  UNL     1      18.003  88.267  41.021  1.00  0.00     0.001 A 
HETATM   11  C8  UNL     1      17.830  87.647  42.248  1.00  0.00     0.009 A 
ENDBRANCH   2   6
ENDBRANCH   1   2
BRANCH   1  12
HETATM   12  O1  UNL     1      20.793  86.429  44.089  1.00  0.00    -0.378 OA
ATOM     13  H1  UNL     1      21.632  86.502  44.527  1.00  0.00     0.211 HD
ENDBRANCH   1  12
BRANCH   1  14
HETATM   14  C10 UNL     1      20.365  86.824  46.321  1.00  0.00     0.092 A 
HETATM   15  C11 UNL     1      21.732  87.010  46.495  1.00  0.00     0.038 A 
HETATM   16  C12 UNL     1      21.913  87.470  47.796  1.00  0.00     0.027 A 
HETATM   17  C13 UNL     1      20.649  87.539  48.343  1.00  0.00     0.142 A 
HETATM   18  O2  UNL     1      19.771  87.149  47.436  1.00  0.00    -0.324 OA
ENDBRANCH   1  14
BRANCH   1  19
HETATM   19  C14 UNL     1      19.498  84.819  45.128  1.00  0.00     0.188 A 
HETATM   20  C15 UNL     1      18.430  84.358  46.133  1.00  0.00     0.203 A 
HETATM   21  O3  UNL     1      18.255  84.359  44.776  1.00  0.00    -0.378 OA
ENDBRANCH   1  19
TORSDOF 6
ENDMDL
MODEL 3
REMARK VINA RESULT: -7.020000966      1.761      3.755
REMARK  6 active torsions:
REMARK  status: ('A' for Active; 'I' for Inactive)
REMARK    1  A    between atoms: N1_2  and  C2_4 
REMARK    2  A    between atoms: C2_4  and  C3_5 
REMARK    3  A    between atoms: C2_4  and  C9_11 
REMARK    4  A    between atoms: C9_11  and  O1_12 
REMARK    5  A    between atoms: C9_11  and  C10_14 
REMARK    6  A    between atoms: C9_11  and  C14_19 
ROOT
HETATM    1  C9  UNL     1      18.408  87.149  45.470  1.00  0.00     0.158 C 
ENDROOT
BRANCH   1   2
HETATM    2  C2  UNL     1      19.535  87.132  44.512  1.00  0.00     0.153 C 
BRANCH   2   3
HETATM    3  N1  UNL     1      20.302  85.969  44.353  1.00  0.00    -0.414 N 
HETATM    4  C1  UNL     1      21.669  85.925  44.608  1.00  0.00     0.140 C 
ATOM      5  H1  UNL     1      19.837  85.119  44.035  1.00  0.00     0.153 HD
ENDBRANCH   2   3
BRANCH   2   6
HETATM    6  C3  UNL     1      19.216  87.708  43.170  1.00  0.00    -0.033 A 
HETATM    7  C4  UNL     1      20.190  88.390  42.459  1.00  0.00     0.009 A 
HETATM    8  C5  UNL     1      19.888  88.887  41.214  1.00  0.00     0.001 A 
HETATM    9  C6  UNL     1      18.628  88.717  40.661  1.00  0.00     0.000 A 
HETATM   10  C7  UNL     1      17.647  88.047  41.340  1.00  0.00     0.001 A 
HETATM   11  C8  UNL     1      17.956  87.547  42.595  1.00  0.00     0.009 A 
ENDBRANCH   2   6
ENDBRANCH   1   2
BRANCH   1  12
HETATM   12  O1  UNL     1      17.597  88.300  45.219  1.00  0.00    -0.378 OA
ATOM     13  H1  UNL     1      16.896  88.332  45.860  1.00  0.00     0.211 HD
ENDBRANCH   1  12
BRANCH   1  14
HETATM   14  C10 UNL     1      17.485  86.005  45.425  1.00  0.00     0.092 A 
HETATM   15  C11 UNL     1      16.166  86.056  45.863  1.00  0.00     0.038 A 
HETATM   16  C12 UNL     1      15.625  84.791  45.661  1.00  0.00     0.027 A 
HETATM   17  C13 UNL     1      16.641  84.038  45.111  1.00  0.00     0.142 A 
HETATM   18  O2  UNL     1      17.716  84.796  44.991  1.00  0.00    -0.324 OA
ENDBRANCH   1  14
BRANCH   1  19
HETATM   19  C14 UNL     1      18.902  87.413  46.909  1.00  0.00     0.188 A 
HETATM   20  C15 UNL     1      19.344  86.172  47.704  1.00  0.00     0.203 A 
HETATM   21  O3  UNL     1      20.206  87.115  47.213  1.00  0.00    -0.378 OA
ENDBRANCH   1  19
TORSDOF 6
ENDMDL
MODEL 4
REMARK VINA RESULT: -6.986689048      1.172      1.314
REMARK  6 active torsions:
REMARK  status: ('A' for Active; 'I' for Inactive)
REMARK    1  A    between atoms: N1_2  and  C2_4 
REMARK    2  A    between atoms: C2_4  and  C3_5 
REMARK    3  A    between atoms: C2_4  and  C9_11 
REMARK    4  A    between atoms: C9_11  and  O1_12 
REMARK    5  A    between atoms: C9_11  and  C10_14 
REMARK    6  A    between atoms: C9_11  and  C14_19 
ROOT
HETATM    1  C9  UNL     1      19.034  86.052  45.448  1.00  0.00     0.158 C 
ENDROOT
BRANCH   1   2
HETATM    2  C2  UNL     1      18.275  87.271  45.090  1.00  0.00     0.153 C 
BRANCH   2   3
HETATM    3  N1  UNL     1      18.258  88.367  45.964  1.00  0.00    -0.414 N 
HETATM    4  C1  UNL     1      17.705  88.307  47.240  1.00  0.00     0.140 C 
ATOM      5  H1  UNL     1      18.669  89.247  45.651  1.00  0.00     0.153 HD
ENDBRANCH   2   3
BRANCH   2   6
HETATM    6  C3  UNL     1      18.496  87.750  43.692  1.00  0.00    -0.033 A 
HETATM    7  C4  UNL     1      17.512  87.568  42.734  1.00  0.00     0.009 A 
HETATM    8  C5  UNL     1      17.719  88.042  41.460  1.00  0.00     0.001 A 
HETATM    9  C6  UNL     1      18.893  88.697  41.122  1.00  0.00     0.000 A 
HETATM   10  C7  UNL     1      19.881  88.892  42.048  1.00  0.00     0.001 A 
HETATM   11  C8  UNL     1      19.669  88.413  43.331  1.00  0.00     0.009 A 
ENDBRANCH   2   6
ENDBRANCH   1   2
BRANCH   1  12
HETATM   12  O1  UNL     1      19.597  85.485  44.261  1.00  0.00    -0.378 OA
ATOM     13  H1  UNL     1      19.707  84.550  44.385  1.00  0.00     0.211 HD
ENDBRANCH   1  12
BRANCH   1  14
HETATM   14  C10 UNL     1      20.167  86.226  46.370  1.00  0.00     0.092 A 
HETATM   15  C11 UNL     1      20.449  85.361  47.422  1.00  0.00     0.038 A 
HETATM   16  C12 UNL     1      21.583  85.856  48.057  1.00  0.00     0.027 A 
HETATM   17  C13 UNL     1      21.931  86.994  47.359  1.00  0.00     0.142 A 
HETATM   18  O2  UNL     1      21.068  87.170  46.375  1.00  0.00    -0.324 OA
ENDBRANCH   1  14
BRANCH   1  19
HETATM   19  C14 UNL     1      18.092  84.926  45.925  1.00  0.00     0.188 A 
HETATM   20  C15 UNL     1      16.673  84.944  45.331  1.00  0.00     0.203 A 
HETATM   21  O3  UNL     1      17.633  84.027  44.997  1.00  0.00    -0.378 OA
ENDBRANCH   1  19
TORSDOF 6
ENDMDL
MODEL 5
REMARK VINA RESULT: -6.971869763      2.040      4.222
REMARK  6 active torsions:
REMARK  status: ('A' for Active; 'I' for Inactive)
REMARK    1  A    between atoms: N1_2  and  C2_4 
REMARK    2  A    between atoms: C2_4  and  C3_5 
REMARK    3  A    between atoms: C2_4  and  C9_11 
REMARK    4  A    between atoms: C9_11  and  O1_12 
REMARK    5  A    between atoms: C9_11  and  C10_14 
REMARK    6  A    between atoms: C9_11  and  C14_19 
ROOT
HETATM    1  C9  UNL     1      17.337  86.787  45.477  1.00  0.00     0.158 C 
ENDROOT
BRANCH   1   2
HETATM    2  C2  UNL     1      18.657  86.664  44.820  1.00  0.00     0.153 C 
BRANCH   2   3
HETATM    3  N1  UNL     1      19.261  85.406  44.692  1.00  0.00    -0.414 N 
HETATM    4  C1  UNL     1      20.353  85.011  45.459  1.00  0.00     0.140 C 
ATOM      5  H1  UNL     1      18.884  84.751  44.006  1.00  0.00     0.153 HD
ENDBRANCH   2   3
BRANCH   2   6
HETATM    6  C3  UNL     1      18.779  87.411  43.531  1.00  0.00    -0.033 A 
HETATM    7  C4  UNL     1      19.968  88.043  43.206  1.00  0.00     0.009 A 
HETATM    8  C5  UNL     1      20.073  88.699  42.002  1.00  0.00     0.001 A 
HETATM    9  C6  UNL     1      19.010  88.737  41.113  1.00  0.00     0.000 A 
HETATM   10  C7  UNL     1      17.825  88.121  41.406  1.00  0.00     0.001 A 
HETATM   11  C8  UNL     1      17.723  87.460  42.620  1.00  0.00     0.009 A 
ENDBRANCH   2   6
ENDBRANCH   1   2
BRANCH   1  12
HETATM   12  O1  UNL     1      16.594  87.832  44.843  1.00  0.00    -0.378 OA
ATOM     13  H1  UNL     1      17.186  88.366  44.327  1.00  0.00     0.211 HD
ENDBRANCH   1  12
BRANCH   1  14
HETATM   14  C10 UNL     1      16.463  85.605  45.431  1.00  0.00     0.092 A 
HETATM   15  C11 UNL     1      15.568  85.264  46.439  1.00  0.00     0.038 A 
HETATM   16  C12 UNL     1      14.932  84.095  46.034  1.00  0.00     0.027 A 
HETATM   17  C13 UNL     1      15.473  83.787  44.803  1.00  0.00     0.142 A 
HETATM   18  O2  UNL     1      16.369  84.706  44.490  1.00  0.00    -0.324 OA
ENDBRANCH   1  14
BRANCH   1  19
HETATM   19  C14 UNL     1      17.478  87.323  46.918  1.00  0.00     0.188 A 
HETATM   20  C15 UNL     1      18.883  87.805  47.320  1.00  0.00     0.203 A 
HETATM   21  O3  UNL     1      17.823  88.639  47.090  1.00  0.00    -0.378 OA
ENDBRANCH   1  19
TORSDOF 6
ENDMDL
