MODEL 1
REMARK VINA RESULT: -7.888916259      0.000      0.000
REMARK  5 active torsions:
REMARK  status: ('A' for Active; 'I' for Inactive)
REMARK    1  A    between atoms: C2_2  and  C10_23 
REMARK    2  A    between atoms: N1_3  and  N2_5 
REMARK    3  A    between atoms: N2_5  and  N3_7 
REMARK       I    between atoms: C3_9  and  N5_11 
REMARK    4  A    between atoms: N5_11  and  N6_13 
REMARK    5  A    between atoms: N7_15  and  C4_17 
ROOT
HETATM    1  N3  UNL     1      18.828  87.556  43.047  1.00  0.00    -0.258 N 
ATOM      2  H3  UNL     1      17.819  87.696  43.088  1.00  0.00     0.191 HD
HETATM    3  C3  UNL     1      19.490  88.116  42.101  1.00  0.00     0.224 C 
HETATM    4  N4  UNL     1      20.878  87.937  42.027  1.00  0.00    -0.061 NA
HETATM    5  N5  UNL     1      18.752  88.906  41.158  1.00  0.00    -0.258 N 
ATOM      6  H5  UNL     1      18.988  89.893  41.050  1.00  0.00     0.191 HD
ENDROOT
BRANCH   1   7
HETATM    7  N2  UNL     1      19.428  86.774  44.010  1.00  0.00    -0.240 N 
ATOM      8  H2  UNL     1      19.093  85.819  44.133  1.00  0.00     0.208 HD
BRANCH   7   9
HETATM    9  N1  UNL     1      20.468  87.219  44.825  1.00  0.00    -0.294 N 
HETATM   10  C2  UNL     1      21.244  86.356  45.343  1.00  0.00     0.005 C 
HETATM   11  C1  UNL     1      21.056  84.921  45.091  1.00  0.00     0.065 C 
ATOM     12  H1  UNL     1      20.603  88.214  45.001  1.00  0.00     0.187 HD
BRANCH  10  13
HETATM   13  C10 UNL     1      22.347  86.816  46.206  1.00  0.00     0.032 A 
HETATM   14  C11 UNL     1      22.870  85.985  47.311  1.00  0.00     0.011 A 
HETATM   15  C12 UNL     1      22.037  87.249  47.602  1.00  0.00     0.011 A 
ENDBRANCH  10  13
ENDBRANCH   7   9
ENDBRANCH   1   7
BRANCH   5  16
HETATM   16  N6  UNL     1      17.724  88.372  40.386  1.00  0.00    -0.240 N 
HETATM   17  N7  UNL     1      17.672  88.495  39.112  1.00  0.00    -0.286 N 
ATOM     18  H7  UNL     1      16.898  88.086  38.588  1.00  0.00     0.188 HD
ATOM     19  H6  UNL     1      16.979  87.857  40.856  1.00  0.00     0.208 HD
BRANCH  17  20
HETATM   20  C4  UNL     1      18.698  89.206  38.435  1.00  0.00     0.049 A 
HETATM   21  C5  UNL     1      18.357  90.314  37.673  1.00  0.00     0.031 A 
HETATM   22  C6  UNL     1      19.310  91.040  36.996  1.00  0.00     0.002 A 
HETATM   23  C7  UNL     1      20.613  90.630  37.101  1.00  0.00     0.000 A 
HETATM   24  C8  UNL     1      20.986  89.539  37.847  1.00  0.00     0.002 A 
HETATM   25  C9  UNL     1      20.013  88.815  38.525  1.00  0.00     0.031 A 
ENDBRANCH  17  20
ENDBRANCH   5  16
TORSDOF 5
ENDMDL
MODEL 2
REMARK VINA RESULT: -7.731264416      2.097      7.468
REMARK  5 active torsions:
REMARK  status: ('A' for Active; 'I' for Inactive)
REMARK    1  A    between atoms: C2_2  and  C10_23 
REMARK    2  A    between atoms: N1_3  and  N2_5 
REMARK    3  A    between atoms: N2_5  and  N3_7 
REMARK       I    between atoms: C3_9  and  N5_11 
REMARK    4  A    between atoms: N5_11  and  N6_13 
REMARK    5  A    between atoms: N7_15  and  C4_17 
ROOT
HETATM    1  N3  UNL     1      21.495  88.411  41.298  1.00  0.00    -0.258 N 
ATOM      2  H3  UNL     1      22.325  87.820  41.262  1.00  0.00     0.191 HD
HETATM    3  C3  UNL     1      20.959  88.651  42.440  1.00  0.00     0.224 C 
HETATM    4  N4  UNL     1      19.818  89.462  42.511  1.00  0.00    -0.061 NA
HETATM    5  N5  UNL     1      21.573  88.062  43.594  1.00  0.00    -0.258 N 
ATOM      6  H5  UNL     1      21.914  88.673  44.336  1.00  0.00     0.191 HD
ENDROOT
BRANCH   1   7
HETATM    7  N2  UNL     1      20.994  88.921  40.120  1.00  0.00    -0.240 N 
ATOM      8  H2  UNL     1      21.608  89.493  39.541  1.00  0.00     0.208 HD
BRANCH   7   9
HETATM    9  N1  UNL     1      19.691  88.697  39.678  1.00  0.00    -0.294 N 
HETATM   10  C2  UNL     1      19.354  89.140  38.536  1.00  0.00     0.005 C 
HETATM   11  C1  UNL     1      20.312  89.870  37.694  1.00  0.00     0.065 C 
ATOM     12  H1  UNL     1      19.023  88.190  40.259  1.00  0.00     0.187 HD
BRANCH  10  13
HETATM   13  C10 UNL     1      17.978  88.909  38.059  1.00  0.00     0.032 A 
HETATM   14  C11 UNL     1      17.011  90.016  37.902  1.00  0.00     0.011 A 
HETATM   15  C12 UNL     1      16.853  88.987  39.039  1.00  0.00     0.011 A 
ENDBRANCH  10  13
ENDBRANCH   7   9
ENDBRANCH   1   7
BRANCH   5  16
HETATM   16  N6  UNL     1      21.720  86.685  43.734  1.00  0.00    -0.240 N 
HETATM   17  N7  UNL     1      20.870  85.952  44.353  1.00  0.00    -0.286 N 
ATOM     18  H7  UNL     1      21.020  84.946  44.431  1.00  0.00     0.188 HD
ATOM     19  H6  UNL     1      22.540  86.238  43.325  1.00  0.00     0.208 HD
BRANCH  17  20
HETATM   20  C4  UNL     1      19.720  86.551  44.931  1.00  0.00     0.049 A 
HETATM   21  C5  UNL     1      18.529  86.543  44.219  1.00  0.00     0.031 A 
HETATM   22  C6  UNL     1      17.383  87.109  44.729  1.00  0.00     0.002 A 
HETATM   23  C7  UNL     1      17.459  87.684  45.971  1.00  0.00     0.000 A 
HETATM   24  C8  UNL     1      18.620  87.709  46.703  1.00  0.00     0.002 A 
HETATM   25  C9  UNL     1      19.769  87.135  46.175  1.00  0.00     0.031 A 
ENDBRANCH  17  20
ENDBRANCH   5  16
TORSDOF 5
ENDMDL
MODEL 3
REMARK VINA RESULT: -7.713034570      2.155      2.366
REMARK  5 active torsions:
REMARK  status: ('A' for Active; 'I' for Inactive)
REMARK    1  A    between atoms: C2_2  and  C10_23 
REMARK    2  A    between atoms: N1_3  and  N2_5 
REMARK    3  A    between atoms: N2_5  and  N3_7 
REMARK       I    between atoms: C3_9  and  N5_11 
REMARK    4  A    between atoms: N5_11  and  N6_13 
REMARK    5  A    between atoms: N7_15  and  C4_17 
ROOT
HETATM    1  N3  UNL     1      17.910  87.840  43.001  1.00  0.00    -0.258 N 
ATOM      2  H3  UNL     1      16.967  88.187  42.824  1.00  0.00     0.191 HD
HETATM    3  C3  UNL     1      18.833  88.101  42.148  1.00  0.00     0.224 C 
HETATM    4  N4  UNL     1      20.135  87.634  42.372  1.00  0.00    -0.061 NA
HETATM    5  N5  UNL     1      18.466  88.870  40.994  1.00  0.00    -0.258 N 
ATOM      6  H5  UNL     1      18.936  89.759  40.824  1.00  0.00     0.191 HD
ENDROOT
BRANCH   1   7
HETATM    7  N2  UNL     1      18.143  87.110  44.146  1.00  0.00    -0.240 N 
ATOM      8  H2  UNL     1      17.972  86.105  44.122  1.00  0.00     0.208 HD
BRANCH   7   9
HETATM    9  N1  UNL     1      18.600  87.673  45.337  1.00  0.00    -0.294 N 
HETATM   10  C2  UNL     1      17.796  87.753  46.318  1.00  0.00     0.005 C 
HETATM   11  C1  UNL     1      16.415  87.263  46.206  1.00  0.00     0.065 C 
ATOM     12  H1  UNL     1      19.558  88.013  45.420  1.00  0.00     0.187 HD
BRANCH  10  13
HETATM   13  C10 UNL     1      18.269  88.346  47.582  1.00  0.00     0.032 A 
HETATM   14  C11 UNL     1      19.448  87.814  48.299  1.00  0.00     0.011 A 
HETATM   15  C12 UNL     1      18.027  87.608  48.859  1.00  0.00     0.011 A 
ENDBRANCH  10  13
ENDBRANCH   7   9
ENDBRANCH   1   7
BRANCH   5  16
HETATM   16  N6  UNL     1      17.488  88.443  40.098  1.00  0.00    -0.240 N 
HETATM   17  N7  UNL     1      17.586  88.602  38.831  1.00  0.00    -0.286 N 
ATOM     18  H7  UNL     1      16.845  88.272  38.214  1.00  0.00     0.188 HD
ATOM     19  H6  UNL     1      16.657  87.982  40.469  1.00  0.00     0.208 HD
BRANCH  17  20
HETATM   20  C4  UNL     1      18.734  89.240  38.293  1.00  0.00     0.049 A 
HETATM   21  C5  UNL     1      18.570  90.384  37.526  1.00  0.00     0.031 A 
HETATM   22  C6  UNL     1      19.647  91.043  36.979  1.00  0.00     0.002 A 
HETATM   23  C7  UNL     1      20.894  90.529  37.219  1.00  0.00     0.000 A 
HETATM   24  C8  UNL     1      21.094  89.399  37.973  1.00  0.00     0.002 A 
HETATM   25  C9  UNL     1      19.997  88.743  38.519  1.00  0.00     0.031 A 
ENDBRANCH  17  20
ENDBRANCH   5  16
TORSDOF 5
ENDMDL
MODEL 4
REMARK VINA RESULT: -7.631942664      0.886      1.966
REMARK  5 active torsions:
REMARK  status: ('A' for Active; 'I' for Inactive)
REMARK    1  A    between atoms: C2_2  and  C10_23 
REMARK    2  A    between atoms: N1_3  and  N2_5 
REMARK    3  A    between atoms: N2_5  and  N3_7 
REMARK       I    between atoms: C3_9  and  N5_11 
REMARK    4  A    between atoms: N5_11  and  N6_13 
REMARK    5  A    between atoms: N7_15  and  C4_17 
ROOT
HETATM    1  N3  UNL     1      18.872  88.085  43.349  1.00  0.00    -0.258 N 
ATOM      2  H3  UNL     1      17.897  88.384  43.322  1.00  0.00     0.191 HD
HETATM    3  C3  UNL     1      19.613  88.309  42.324  1.00  0.00     0.224 C 
HETATM    4  N4  UNL     1      20.955  87.905  42.341  1.00  0.00    -0.061 NA
HETATM    5  N5  UNL     1      19.008  88.969  41.204  1.00  0.00    -0.258 N 
ATOM      6  H5  UNL     1      19.397  89.857  40.887  1.00  0.00     0.191 HD
ENDROOT
BRANCH   1   7
HETATM    7  N2  UNL     1      19.341  87.458  44.482  1.00  0.00    -0.240 N 
ATOM      8  H2  UNL     1      19.640  88.037  45.266  1.00  0.00     0.208 HD
BRANCH   7   9
HETATM    9  N1  UNL     1      19.429  86.073  44.614  1.00  0.00    -0.294 N 
HETATM   10  C2  UNL     1      20.484  85.578  45.121  1.00  0.00     0.005 C 
HETATM   11  C1  UNL     1      21.588  86.441  45.562  1.00  0.00     0.065 C 
ATOM     12  H1  UNL     1      18.664  85.470  44.310  1.00  0.00     0.187 HD
BRANCH  10  13
HETATM   13  C10 UNL     1      20.587  84.114  45.265  1.00  0.00     0.032 A 
HETATM   14  C11 UNL     1      21.364  83.492  46.359  1.00  0.00     0.011 A 
HETATM   15  C12 UNL     1      21.872  83.444  44.904  1.00  0.00     0.011 A 
ENDBRANCH  10  13
ENDBRANCH   7   9
ENDBRANCH   1   7
BRANCH   5  16
HETATM   16  N6  UNL     1      17.908  88.438  40.535  1.00  0.00    -0.240 N 
HETATM   17  N7  UNL     1      17.738  88.553  39.271  1.00  0.00    -0.286 N 
ATOM     18  H7  UNL     1      16.916  88.148  38.824  1.00  0.00     0.188 HD
ATOM     19  H6  UNL     1      17.206  87.935  41.077  1.00  0.00     0.208 HD
BRANCH  17  20
HETATM   20  C4  UNL     1      18.703  89.249  38.496  1.00  0.00     0.049 A 
HETATM   21  C5  UNL     1      20.032  88.858  38.568  1.00  0.00     0.031 A 
HETATM   22  C6  UNL     1      21.009  89.496  37.839  1.00  0.00     0.002 A 
HETATM   23  C7  UNL     1      20.623  90.537  37.036  1.00  0.00     0.000 A 
HETATM   24  C8  UNL     1      19.317  90.951  36.940  1.00  0.00     0.002 A 
HETATM   25  C9  UNL     1      18.341  90.297  37.682  1.00  0.00     0.031 A 
ENDBRANCH  17  20
ENDBRANCH   5  16
TORSDOF 5
ENDMDL
MODEL 5
REMARK VINA RESULT: -7.600267456      2.167      3.574
REMARK  5 active torsions:
REMARK  status: ('A' for Active; 'I' for Inactive)
REMARK    1  A    between atoms: C2_2  and  C10_23 
REMARK    2  A    between atoms: N1_3  and  N2_5 
REMARK    3  A    between atoms: N2_5  and  N3_7 
REMARK       I    between atoms: C3_9  and  N5_11 
REMARK    4  A    between atoms: N5_11  and  N6_13 
REMARK    5  A    between atoms: N7_15  and  C4_17 
ROOT
HETATM    1  N3  UNL     1      22.081  86.952  44.673  1.00  0.00    -0.258 N 
ATOM      2  H3  UNL     1      22.973  87.340  44.365  1.00  0.00     0.191 HD
HETATM    3  C3  UNL     1      21.084  86.984  43.866  1.00  0.00     0.224 C 
HETATM    4  N4  UNL     1      19.849  86.456  44.271  1.00  0.00    -0.061 NA
HETATM    5  N5  UNL     1      21.298  87.571  42.575  1.00  0.00    -0.258 N 
ATOM      6  H5  UNL     1      21.140  87.003  41.743  1.00  0.00     0.191 HD
ENDROOT
BRANCH   1   7
HETATM    7  N2  UNL     1      21.995  86.415  45.939  1.00  0.00    -0.240 N 
ATOM      8  H2  UNL     1      22.691  85.724  46.219  1.00  0.00     0.208 HD
BRANCH   7   9
HETATM    9  N1  UNL     1      21.007  86.765  46.858  1.00  0.00    -0.294 N 
HETATM   10  C2  UNL     1      21.365  87.145  48.018  1.00  0.00     0.005 C 
HETATM   11  C1  UNL     1      22.785  87.216  48.386  1.00  0.00     0.065 C 
ATOM     12  H1  UNL     1      20.020  86.718  46.606  1.00  0.00     0.187 HD
BRANCH  10  13
HETATM   13  C10 UNL     1      20.328  87.518  48.997  1.00  0.00     0.032 A 
HETATM   14  C11 UNL     1      19.189  88.388  48.633  1.00  0.00     0.011 A 
HETATM   15  C12 UNL     1      20.320  88.909  49.543  1.00  0.00     0.011 A 
ENDBRANCH  10  13
ENDBRANCH   7   9
ENDBRANCH   1   7
BRANCH   5  16
HETATM   16  N6  UNL     1      21.715  88.891  42.420  1.00  0.00    -0.240 N 
HETATM   17  N7  UNL     1      21.115  89.727  41.659  1.00  0.00    -0.286 N 
ATOM     18  H7  UNL     1      21.457  90.684  41.577  1.00  0.00     0.188 HD
ATOM     19  H6  UNL     1      22.536  89.205  42.938  1.00  0.00     0.208 HD
BRANCH  17  20
HETATM   20  C4  UNL     1      19.969  89.312  40.929  1.00  0.00     0.049 A 
HETATM   21  C5  UNL     1      18.903  88.751  41.616  1.00  0.00     0.031 A 
HETATM   22  C6  UNL     1      17.768  88.331  40.960  1.00  0.00     0.002 A 
HETATM   23  C7  UNL     1      17.727  88.487  39.599  1.00  0.00     0.000 A 
HETATM   24  C8  UNL     1      18.764  89.039  38.888  1.00  0.00     0.002 A 
HETATM   25  C9  UNL     1      19.904  89.458  39.563  1.00  0.00     0.031 A 
ENDBRANCH  17  20
ENDBRANCH   5  16
TORSDOF 5
ENDMDL
