MODEL 1
REMARK VINA RESULT: -8.503232329      0.000      0.000
REMARK  5 active torsions:
REMARK  status: ('A' for Active; 'I' for Inactive)
REMARK    1  A    between atoms: C2_2  and  O1_3 
REMARK    2  A    between atoms: O1_3  and  C3_4 
REMARK    3  A    between atoms: C5_10  and  N3_11 
REMARK    4  A    between atoms: N3_11  and  C6_13 
REMARK    5  A    between atoms: C8_16  and  C9_17 
ROOT
HETATM    1  N3  UNL     1      18.847  86.424  44.671  1.00  0.00    -0.366 N 
ATOM      2  H3  UNL     1      19.208  85.513  44.385  1.00  0.00     0.161 HD
ENDROOT
BRANCH   1   3
HETATM    3  C5  UNL     1      17.642  86.503  45.417  1.00  0.00     0.155 A 
HETATM    4  C3  UNL     1      16.547  85.643  45.292  1.00  0.00     0.192 A 
HETATM    5  N1  UNL     1      15.615  86.054  46.167  1.00  0.00    -0.330 N 
HETATM    6  C4  UNL     1      16.056  87.127  46.841  1.00  0.00     0.184 A 
ATOM      7  H1  UNL     1      14.705  85.614  46.301  1.00  0.00     0.168 HD
HETATM    8  N2  UNL     1      17.281  87.377  46.370  1.00  0.00    -0.335 N 
ATOM      9  H2  UNL     1      17.872  88.143  46.695  1.00  0.00     0.168 HD
BRANCH   4  10
HETATM   10  O1  UNL     1      16.511  84.575  44.396  1.00  0.00    -0.303 OA
BRANCH  10  11
HETATM   11  C2  UNL     1      15.719  83.475  44.660  1.00  0.00     0.134 C 
HETATM   12  C1  UNL     1      14.627  83.281  43.908  1.00  0.00     0.038 C 
ENDBRANCH  10  11
ENDBRANCH   4  10
ENDBRANCH   1   3
BRANCH   1  13
HETATM   13  C6  UNL     1      19.560  87.612  44.316  1.00  0.00     0.109 C 
HETATM   14  C7  UNL     1      20.927  87.305  43.766  1.00  0.00     0.193 C 
HETATM   15  O2  UNL     1      20.832  87.560  42.420  1.00  0.00    -0.379 OA
HETATM   16  C8  UNL     1      20.026  88.680  42.291  1.00  0.00     0.156 C 
HETATM   17  C15 UNL     1      18.870  88.388  43.224  1.00  0.00     0.064 C 
BRANCH  16  18
HETATM   18  C9  UNL     1      19.563  88.855  40.890  1.00  0.00    -0.029 A 
HETATM   19  C10 UNL     1      18.250  88.587  40.548  1.00  0.00     0.010 A 
HETATM   20  C11 UNL     1      17.772  88.733  39.268  1.00  0.00     0.001 A 
HETATM   21  C12 UNL     1      18.670  89.167  38.304  1.00  0.00     0.000 A 
HETATM   22  C13 UNL     1      19.988  89.449  38.583  1.00  0.00     0.001 A 
HETATM   23  C14 UNL     1      20.411  89.283  39.895  1.00  0.00     0.010 A 
ENDBRANCH  16  18
ENDBRANCH   1  13
TORSDOF 5
ENDMDL
MODEL 2
REMARK VINA RESULT: -8.500088784      0.064      1.073
REMARK  5 active torsions:
REMARK  status: ('A' for Active; 'I' for Inactive)
REMARK    1  A    between atoms: C2_2  and  O1_3 
REMARK    2  A    between atoms: O1_3  and  C3_4 
REMARK    3  A    between atoms: C5_10  and  N3_11 
REMARK    4  A    between atoms: N3_11  and  C6_13 
REMARK    5  A    between atoms: C8_16  and  C9_17 
ROOT
HETATM    1  N3  UNL     1      18.876  86.422  44.701  1.00  0.00    -0.366 N 
ATOM      2  H3  UNL     1      19.227  85.500  44.440  1.00  0.00     0.161 HD
ENDROOT
BRANCH   1   3
HETATM    3  C5  UNL     1      17.663  86.534  45.431  1.00  0.00     0.155 A 
HETATM    4  C3  UNL     1      16.552  85.698  45.299  1.00  0.00     0.192 A 
HETATM    5  N1  UNL     1      15.618  86.137  46.160  1.00  0.00    -0.330 N 
HETATM    6  C4  UNL     1      16.074  87.204  46.832  1.00  0.00     0.184 A 
ATOM      7  H1  UNL     1      14.696  85.718  46.285  1.00  0.00     0.168 HD
HETATM    8  N2  UNL     1      17.311  87.424  46.374  1.00  0.00    -0.335 N 
ATOM      9  H2  UNL     1      17.915  88.178  46.701  1.00  0.00     0.168 HD
BRANCH   4  10
HETATM   10  O1  UNL     1      16.502  84.625  44.410  1.00  0.00    -0.303 OA
BRANCH  10  11
HETATM   11  C2  UNL     1      15.672  83.551  44.666  1.00  0.00     0.134 C 
HETATM   12  C1  UNL     1      14.573  83.402  43.913  1.00  0.00     0.038 C 
ENDBRANCH  10  11
ENDBRANCH   4  10
ENDBRANCH   1   3
BRANCH   1  13
HETATM   13  C6  UNL     1      19.609  87.592  44.328  1.00  0.00     0.109 C 
HETATM   14  C7  UNL     1      20.959  87.252  43.756  1.00  0.00     0.193 C 
HETATM   15  O2  UNL     1      20.847  87.503  42.411  1.00  0.00    -0.379 OA
HETATM   16  C8  UNL     1      20.064  88.641  42.291  1.00  0.00     0.156 C 
HETATM   17  C15 UNL     1      18.917  88.379  43.245  1.00  0.00     0.064 C 
BRANCH  16  18
HETATM   18  C9  UNL     1      19.580  88.821  40.897  1.00  0.00    -0.029 A 
HETATM   19  C10 UNL     1      20.445  89.244  39.905  1.00  0.00     0.010 A 
HETATM   20  C11 UNL     1      20.048  89.426  38.602  1.00  0.00     0.001 A 
HETATM   21  C12 UNL     1      18.718  89.166  38.305  1.00  0.00     0.000 A 
HETATM   22  C13 UNL     1      17.811  88.743  39.248  1.00  0.00     0.001 A 
HETATM   23  C14 UNL     1      18.272  88.577  40.547  1.00  0.00     0.010 A 
ENDBRANCH  16  18
ENDBRANCH   1  13
TORSDOF 5
ENDMDL
MODEL 3
REMARK VINA RESULT: -8.197086967      3.231      7.104
REMARK  5 active torsions:
REMARK  status: ('A' for Active; 'I' for Inactive)
REMARK    1  A    between atoms: C2_2  and  O1_3 
REMARK    2  A    between atoms: O1_3  and  C3_4 
REMARK    3  A    between atoms: C5_10  and  N3_11 
REMARK    4  A    between atoms: N3_11  and  C6_13 
REMARK    5  A    between atoms: C8_16  and  C9_17 
ROOT
HETATM    1  N3  UNL     1      19.750  89.399  40.770  1.00  0.00    -0.366 N 
ATOM      2  H3  UNL     1      19.279  90.166  41.250  1.00  0.00     0.161 HD
ENDROOT
BRANCH   1   3
HETATM    3  C5  UNL     1      20.391  89.634  39.525  1.00  0.00     0.155 A 
HETATM    4  C3  UNL     1      19.782  90.154  38.380  1.00  0.00     0.192 A 
HETATM    5  N1  UNL     1      20.723  90.219  37.423  1.00  0.00    -0.330 N 
HETATM    6  C4  UNL     1      21.895  89.770  37.896  1.00  0.00     0.184 A 
ATOM      7  H1  UNL     1      20.568  90.561  36.474  1.00  0.00     0.168 HD
HETATM    8  N2  UNL     1      21.668  89.424  39.167  1.00  0.00    -0.335 N 
ATOM      9  H2  UNL     1      22.380  89.044  39.790  1.00  0.00     0.168 HD
BRANCH   4  10
HETATM   10  O1  UNL     1      18.436  90.514  38.325  1.00  0.00    -0.303 OA
BRANCH  10  11
HETATM   11  C2  UNL     1      17.500  89.623  37.839  1.00  0.00     0.134 C 
HETATM   12  C1  UNL     1      16.816  88.875  38.717  1.00  0.00     0.038 C 
ENDBRANCH  10  11
ENDBRANCH   4  10
ENDBRANCH   1   3
BRANCH   1  13
HETATM   13  C6  UNL     1      19.760  88.095  41.357  1.00  0.00     0.109 C 
HETATM   14  C7  UNL     1      20.921  87.909  42.296  1.00  0.00     0.193 C 
HETATM   15  O2  UNL     1      20.366  87.923  43.552  1.00  0.00    -0.379 OA
HETATM   16  C8  UNL     1      19.156  87.253  43.450  1.00  0.00     0.156 C 
HETATM   17  C15 UNL     1      18.537  87.837  42.198  1.00  0.00     0.064 C 
BRANCH  16  18
HETATM   18  C9  UNL     1      18.301  87.494  44.642  1.00  0.00    -0.029 A 
HETATM   19  C10 UNL     1      18.844  88.034  45.794  1.00  0.00     0.010 A 
HETATM   20  C11 UNL     1      18.097  88.276  46.923  1.00  0.00     0.001 A 
HETATM   21  C12 UNL     1      16.749  87.953  46.869  1.00  0.00     0.000 A 
HETATM   22  C13 UNL     1      16.154  87.414  45.753  1.00  0.00     0.001 A 
HETATM   23  C14 UNL     1      16.960  87.192  44.644  1.00  0.00     0.010 A 
ENDBRANCH  16  18
ENDBRANCH   1  13
TORSDOF 5
ENDMDL
MODEL 4
REMARK VINA RESULT: -8.138003579      1.311      1.726
REMARK  5 active torsions:
REMARK  status: ('A' for Active; 'I' for Inactive)
REMARK    1  A    between atoms: C2_2  and  O1_3 
REMARK    2  A    between atoms: O1_3  and  C3_4 
REMARK    3  A    between atoms: C5_10  and  N3_11 
REMARK    4  A    between atoms: N3_11  and  C6_13 
REMARK    5  A    between atoms: C8_16  and  C9_17 
ROOT
HETATM    1  N3  UNL     1      17.212  85.469  44.613  1.00  0.00    -0.366 N 
ATOM      2  H3  UNL     1      17.538  84.772  43.943  1.00  0.00     0.161 HD
ENDROOT
BRANCH   1   3
HETATM    3  C5  UNL     1      16.119  85.168  45.468  1.00  0.00     0.155 A 
HETATM    4  C3  UNL     1      15.080  84.278  45.182  1.00  0.00     0.192 A 
HETATM    5  N1  UNL     1      14.252  84.278  46.239  1.00  0.00    -0.330 N 
HETATM    6  C4  UNL     1      14.706  85.117  47.182  1.00  0.00     0.184 A 
ATOM      7  H1  UNL     1      13.402  83.719  46.315  1.00  0.00     0.168 HD
HETATM    8  N2  UNL     1      15.834  85.642  46.692  1.00  0.00    -0.335 N 
ATOM      9  H2  UNL     1      16.409  86.322  47.188  1.00  0.00     0.168 HD
BRANCH   4  10
HETATM   10  O1  UNL     1      14.995  83.559  43.989  1.00  0.00    -0.303 OA
BRANCH  10  11
HETATM   11  C2  UNL     1      13.960  82.666  43.791  1.00  0.00     0.134 C 
HETATM   12  C1  UNL     1      14.096  81.736  42.835  1.00  0.00     0.038 C 
ENDBRANCH  10  11
ENDBRANCH   4  10
ENDBRANCH   1   3
BRANCH   1  13
HETATM   13  C6  UNL     1      17.859  86.742  44.684  1.00  0.00     0.109 C 
HETATM   14  C7  UNL     1      19.358  86.614  44.652  1.00  0.00     0.193 C 
HETATM   15  O2  UNL     1      19.725  87.057  43.405  1.00  0.00    -0.379 OA
HETATM   16  C8  UNL     1      18.892  88.126  43.111  1.00  0.00     0.156 C 
HETATM   17  C15 UNL     1      17.521  87.621  43.507  1.00  0.00     0.064 C 
BRANCH  16  18
HETATM   18  C9  UNL     1      18.947  88.473  41.666  1.00  0.00    -0.029 A 
HETATM   19  C10 UNL     1      17.819  88.353  40.875  1.00  0.00     0.010 A 
HETATM   20  C11 UNL     1      17.817  88.661  39.535  1.00  0.00     0.001 A 
HETATM   21  C12 UNL     1      19.012  89.105  38.987  1.00  0.00     0.000 A 
HETATM   22  C13 UNL     1      20.166  89.245  39.724  1.00  0.00     0.001 A 
HETATM   23  C14 UNL     1      20.105  88.919  41.072  1.00  0.00     0.010 A 
ENDBRANCH  16  18
ENDBRANCH   1  13
TORSDOF 5
ENDMDL
MODEL 5
REMARK VINA RESULT: -8.128009793      1.480      2.522
REMARK  5 active torsions:
REMARK  status: ('A' for Active; 'I' for Inactive)
REMARK    1  A    between atoms: C2_2  and  O1_3 
REMARK    2  A    between atoms: O1_3  and  C3_4 
REMARK    3  A    between atoms: C5_10  and  N3_11 
REMARK    4  A    between atoms: N3_11  and  C6_13 
REMARK    5  A    between atoms: C8_16  and  C9_17 
ROOT
HETATM    1  N3  UNL     1      19.153  85.841  44.680  1.00  0.00    -0.366 N 
ATOM      2  H3  UNL     1      19.748  85.058  44.406  1.00  0.00     0.161 HD
ENDROOT
BRANCH   1   3
HETATM    3  C5  UNL     1      17.896  85.590  45.291  1.00  0.00     0.155 A 
HETATM    4  C3  UNL     1      17.613  85.711  46.654  1.00  0.00     0.192 A 
HETATM    5  N1  UNL     1      16.321  85.386  46.823  1.00  0.00    -0.330 N 
HETATM    6  C4  UNL     1      15.767  85.064  45.645  1.00  0.00     0.184 A 
ATOM      7  H1  UNL     1      15.832  85.384  47.719  1.00  0.00     0.168 HD
HETATM    8  N2  UNL     1      16.739  85.196  44.736  1.00  0.00    -0.335 N 
ATOM      9  H2  UNL     1      16.615  85.018  43.739  1.00  0.00     0.168 HD
BRANCH   4  10
HETATM   10  O1  UNL     1      18.559  86.105  47.600  1.00  0.00    -0.303 OA
BRANCH  10  11
HETATM   11  C2  UNL     1      18.364  87.258  48.336  1.00  0.00     0.134 C 
HETATM   12  C1  UNL     1      18.346  88.432  47.689  1.00  0.00     0.038 C 
ENDBRANCH  10  11
ENDBRANCH   4  10
ENDBRANCH   1   3
BRANCH   1  13
HETATM   13  C6  UNL     1      19.592  87.182  44.446  1.00  0.00     0.109 C 
HETATM   14  C7  UNL     1      20.989  87.228  43.889  1.00  0.00     0.193 C 
HETATM   15  O2  UNL     1      20.832  87.581  42.571  1.00  0.00    -0.379 OA
HETATM   16  C8  UNL     1      19.803  88.509  42.536  1.00  0.00     0.156 C 
HETATM   17  C15 UNL     1      18.743  87.890  43.422  1.00  0.00     0.064 C 
BRANCH  16  18
HETATM   18  C9  UNL     1      19.303  88.711  41.150  1.00  0.00    -0.029 A 
HETATM   19  C10 UNL     1      17.986  88.434  40.834  1.00  0.00     0.010 A 
HETATM   20  C11 UNL     1      17.475  88.602  39.570  1.00  0.00     0.001 A 
HETATM   21  C12 UNL     1      18.344  89.071  38.595  1.00  0.00     0.000 A 
HETATM   22  C13 UNL     1      19.663  89.364  38.849  1.00  0.00     0.001 A 
HETATM   23  C14 UNL     1      20.121  89.173  40.146  1.00  0.00     0.010 A 
ENDBRANCH  16  18
ENDBRANCH   1  13
TORSDOF 5
ENDMDL
