MODEL 1
REMARK VINA RESULT: -7.496478653      0.000      0.000
REMARK  5 active torsions:
REMARK  status: ('A' for Active; 'I' for Inactive)
REMARK    1  A    between atoms: C3_4  and  C4_5 
REMARK    2  A    between atoms: C4_5  and  N1_6 
REMARK    3  A    between atoms: N1_6  and  C5_8 
REMARK    4  A    between atoms: C7_13  and  C8_14 
REMARK    5  A    between atoms: C8_14  and  C9_15 
ROOT
HETATM    1  C5  UNL     1      19.654  89.097  41.564  1.00  0.00     0.108 C 
HETATM    2  C6  UNL     1      18.397  88.435  41.125  1.00  0.00     0.257 C 
HETATM    3  N2  UNL     1      17.948  87.619  42.234  1.00  0.00    -0.069 N 
ATOM      4  H21 UNL     1      17.593  86.709  41.939  1.00  0.00     0.277 HD
ATOM      5  H22 UNL     1      17.088  87.968  42.660  1.00  0.00     0.277 HD
HETATM    6  C7  UNL     1      19.025  87.518  43.165  1.00  0.00     0.192 C 
HETATM    7  C13 UNL     1      20.264  88.077  42.490  1.00  0.00     0.060 C 
ENDROOT
BRANCH   1   8
HETATM    8  N1  UNL     1      20.510  89.587  40.565  1.00  0.00    -0.390 N 
ATOM      9  H1  UNL     1      21.034  90.448  40.718  1.00  0.00     0.159 HD
BRANCH   8  10
HETATM   10  C4  UNL     1      20.644  88.887  39.355  1.00  0.00     0.120 C 
BRANCH  10  11
HETATM   11  C3  UNL     1      19.984  89.677  38.274  1.00  0.00     0.089 A 
HETATM   12  O1  UNL     1      18.681  89.700  38.119  1.00  0.00    -0.321 OA
HETATM   13  C2  UNL     1      18.357  90.474  37.091  1.00  0.00     0.142 A 
HETATM   14  C1  UNL     1      19.518  90.989  36.538  1.00  0.00     0.027 A 
HETATM   15  C14 UNL     1      20.546  90.474  37.299  1.00  0.00     0.040 A 
ENDBRANCH  10  11
ENDBRANCH   8  10
ENDBRANCH   1   8
BRANCH   6  16
HETATM   16  C8  UNL     1      18.842  88.278  44.436  1.00  0.00     0.072 C 
BRANCH  16  17
HETATM   17  C9  UNL     1      18.015  87.511  45.453  1.00  0.00    -0.049 A 
HETATM   18  C10 UNL     1      16.685  87.335  45.326  1.00  0.00     0.014 A 
HETATM   19  C11 UNL     1      16.055  86.623  46.308  1.00  0.00     0.050 A 
HETATM   20  S1  UNL     1      17.323  86.222  47.371  1.00  0.00    -0.113 SA
HETATM   21  C12 UNL     1      18.619  86.964  46.549  1.00  0.00     0.056 A 
ENDBRANCH  16  17
ENDBRANCH   6  16
TORSDOF 5
ENDMDL
MODEL 2
REMARK VINA RESULT: -7.445695894      3.840      7.556
REMARK  5 active torsions:
REMARK  status: ('A' for Active; 'I' for Inactive)
REMARK    1  A    between atoms: C3_4  and  C4_5 
REMARK    2  A    between atoms: C4_5  and  N1_6 
REMARK    3  A    between atoms: N1_6  and  C5_8 
REMARK    4  A    between atoms: C7_13  and  C8_14 
REMARK    5  A    between atoms: C8_14  and  C9_15 
ROOT
HETATM    1  C5  UNL     1      17.669  87.706  44.664  1.00  0.00     0.108 C 
HETATM    2  C6  UNL     1      18.881  86.934  45.047  1.00  0.00     0.257 C 
HETATM    3  N2  UNL     1      19.769  86.960  43.902  1.00  0.00    -0.069 N 
ATOM      4  H21 UNL     1      20.223  86.062  43.733  1.00  0.00     0.277 HD
ATOM      5  H22 UNL     1      20.613  87.509  44.068  1.00  0.00     0.277 HD
HETATM    6  C7  UNL     1      19.018  87.422  42.780  1.00  0.00     0.192 C 
HETATM    7  C13 UNL     1      17.556  87.440  43.185  1.00  0.00     0.060 C 
ENDROOT
BRANCH   1   8
HETATM    8  N1  UNL     1      16.498  87.479  45.404  1.00  0.00    -0.390 N 
ATOM      9  H1  UNL     1      15.671  88.055  45.242  1.00  0.00     0.159 HD
BRANCH   8  10
HETATM   10  C4  UNL     1      16.466  86.459  46.368  1.00  0.00     0.120 C 
BRANCH  10  11
HETATM   11  C3  UNL     1      15.732  85.290  45.801  1.00  0.00     0.089 A 
HETATM   12  O1  UNL     1      14.545  84.933  46.232  1.00  0.00    -0.321 OA
HETATM   13  C2  UNL     1      14.118  83.869  45.564  1.00  0.00     0.142 A 
HETATM   14  C1  UNL     1      15.084  83.507  44.639  1.00  0.00     0.027 A 
HETATM   15  C14 UNL     1      16.105  84.418  44.800  1.00  0.00     0.040 A 
ENDBRANCH  10  11
ENDBRANCH   8  10
ENDBRANCH   1   8
BRANCH   6  16
HETATM   16  C8  UNL     1      19.356  88.798  42.310  1.00  0.00     0.072 C 
BRANCH  16  17
HETATM   17  C9  UNL     1      19.369  88.903  40.795  1.00  0.00    -0.049 A 
HETATM   18  C10 UNL     1      18.269  88.705  40.042  1.00  0.00     0.014 A 
HETATM   19  C11 UNL     1      18.411  88.831  38.688  1.00  0.00     0.050 A 
HETATM   20  S1  UNL     1      20.059  89.218  38.505  1.00  0.00    -0.113 SA
HETATM   21  C12 UNL     1      20.530  89.211  40.144  1.00  0.00     0.056 A 
ENDBRANCH  16  17
ENDBRANCH   6  16
TORSDOF 5
ENDMDL
MODEL 3
REMARK VINA RESULT: -7.399652357      1.818      2.417
REMARK  5 active torsions:
REMARK  status: ('A' for Active; 'I' for Inactive)
REMARK    1  A    between atoms: C3_4  and  C4_5 
REMARK    2  A    between atoms: C4_5  and  N1_6 
REMARK    3  A    between atoms: N1_6  and  C5_8 
REMARK    4  A    between atoms: C7_13  and  C8_14 
REMARK    5  A    between atoms: C8_14  and  C9_15 
ROOT
HETATM    1  C5  UNL     1      19.715  89.008  42.039  1.00  0.00     0.108 C 
HETATM    2  C6  UNL     1      18.414  88.329  41.804  1.00  0.00     0.257 C 
HETATM    3  N2  UNL     1      18.294  87.299  42.816  1.00  0.00    -0.069 N 
ATOM      4  H21 UNL     1      17.910  86.427  42.451  1.00  0.00     0.277 HD
ATOM      5  H22 UNL     1      17.560  87.496  43.496  1.00  0.00     0.277 HD
HETATM    6  C7  UNL     1      19.577  87.130  43.418  1.00  0.00     0.192 C 
HETATM    7  C13 UNL     1      20.579  87.899  42.578  1.00  0.00     0.060 C 
ENDROOT
BRANCH   1   8
HETATM    8  N1  UNL     1      20.268  89.733  40.971  1.00  0.00    -0.390 N 
ATOM      9  H1  UNL     1      20.350  90.748  41.030  1.00  0.00     0.159 HD
BRANCH   8  10
HETATM   10  C4  UNL     1      20.707  89.057  39.821  1.00  0.00     0.120 C 
BRANCH  10  11
HETATM   11  C3  UNL     1      20.058  89.675  38.628  1.00  0.00     0.089 A 
HETATM   12  O1  UNL     1      18.753  89.737  38.494  1.00  0.00    -0.321 OA
HETATM   13  C2  UNL     1      18.440  90.332  37.351  1.00  0.00     0.142 A 
HETATM   14  C1  UNL     1      19.609  90.681  36.695  1.00  0.00     0.027 A 
HETATM   15  C14 UNL     1      20.630  90.258  37.517  1.00  0.00     0.040 A 
ENDBRANCH  10  11
ENDBRANCH   8  10
ENDBRANCH   1   8
BRANCH   6  16
HETATM   16  C8  UNL     1      19.697  87.642  44.815  1.00  0.00     0.072 C 
BRANCH  16  17
HETATM   17  C9  UNL     1      20.605  86.775  45.670  1.00  0.00    -0.049 A 
HETATM   18  C10 UNL     1      21.912  87.045  45.849  1.00  0.00     0.014 A 
HETATM   19  C11 UNL     1      22.622  86.188  46.645  1.00  0.00     0.050 A 
HETATM   20  S1  UNL     1      21.456  85.040  47.115  1.00  0.00    -0.113 SA
HETATM   21  C12 UNL     1      20.100  85.670  46.295  1.00  0.00     0.056 A 
ENDBRANCH  16  17
ENDBRANCH   6  16
TORSDOF 5
ENDMDL
MODEL 4
REMARK VINA RESULT: -7.383999993      4.344      7.881
REMARK  5 active torsions:
REMARK  status: ('A' for Active; 'I' for Inactive)
REMARK    1  A    between atoms: C3_4  and  C4_5 
REMARK    2  A    between atoms: C4_5  and  N1_6 
REMARK    3  A    between atoms: N1_6  and  C5_8 
REMARK    4  A    between atoms: C7_13  and  C8_14 
REMARK    5  A    between atoms: C8_14  and  C9_15 
ROOT
HETATM    1  C5  UNL     1      20.845  87.788  42.606  1.00  0.00     0.108 C 
HETATM    2  C6  UNL     1      19.364  87.681  42.669  1.00  0.00     0.257 C 
HETATM    3  N2  UNL     1      18.844  88.457  41.562  1.00  0.00    -0.069 N 
ATOM      4  H21 UNL     1      18.020  89.003  41.814  1.00  0.00     0.277 HD
ATOM      5  H22 UNL     1      18.408  87.878  40.843  1.00  0.00     0.277 HD
HETATM    6  C7  UNL     1      19.909  89.261  41.057  1.00  0.00     0.192 C 
HETATM    7  C13 UNL     1      21.057  89.169  42.043  1.00  0.00     0.060 C 
ENDROOT
BRANCH   1   8
HETATM    8  N1  UNL     1      21.565  87.503  43.778  1.00  0.00    -0.390 N 
ATOM      9  H1  UNL     1      22.103  88.236  44.239  1.00  0.00     0.159 HD
BRANCH   8  10
HETATM   10  C4  UNL     1      21.542  86.205  44.314  1.00  0.00     0.120 C 
BRANCH  10  11
HETATM   11  C3  UNL     1      22.069  86.256  45.708  1.00  0.00     0.089 A 
HETATM   12  O1  UNL     1      22.881  85.341  46.184  1.00  0.00    -0.321 OA
HETATM   13  C2  UNL     1      23.198  85.621  47.441  1.00  0.00     0.142 A 
HETATM   14  C1  UNL     1      22.554  86.790  47.813  1.00  0.00     0.027 A 
HETATM   15  C14 UNL     1      21.840  87.184  46.702  1.00  0.00     0.040 A 
ENDBRANCH  10  11
ENDBRANCH   8  10
ENDBRANCH   1   8
BRANCH   6  16
HETATM   16  C8  UNL     1      20.444  88.847  39.726  1.00  0.00     0.072 C 
BRANCH  16  17
HETATM   17  C9  UNL     1      19.756  89.565  38.579  1.00  0.00    -0.049 A 
HETATM   18  C10 UNL     1      18.430  89.479  38.357  1.00  0.00     0.014 A 
HETATM   19  C11 UNL     1      17.931  90.176  37.291  1.00  0.00     0.050 A 
HETATM   20  S1  UNL     1      19.312  90.924  36.635  1.00  0.00    -0.113 SA
HETATM   21  C12 UNL     1      20.488  90.338  37.722  1.00  0.00     0.056 A 
ENDBRANCH  16  17
ENDBRANCH   6  16
TORSDOF 5
ENDMDL
MODEL 5
REMARK VINA RESULT: -7.377845558      1.222      1.513
REMARK  5 active torsions:
REMARK  status: ('A' for Active; 'I' for Inactive)
REMARK    1  A    between atoms: C3_4  and  C4_5 
REMARK    2  A    between atoms: C4_5  and  N1_6 
REMARK    3  A    between atoms: N1_6  and  C5_8 
REMARK    4  A    between atoms: C7_13  and  C8_14 
REMARK    5  A    between atoms: C8_14  and  C9_15 
ROOT
HETATM    1  C5  UNL     1      20.352  88.427  41.517  1.00  0.00     0.108 C 
HETATM    2  C6  UNL     1      21.250  87.808  42.527  1.00  0.00     0.257 C 
HETATM    3  N2  UNL     1      20.418  87.450  43.657  1.00  0.00    -0.069 N 
ATOM      4  H21 UNL     1      20.860  87.651  44.555  1.00  0.00     0.277 HD
ATOM      5  H22 UNL     1      20.325  86.441  43.777  1.00  0.00     0.277 HD
HETATM    6  C7  UNL     1      19.161  88.107  43.498  1.00  0.00     0.192 C 
HETATM    7  C13 UNL     1      19.309  89.106  42.366  1.00  0.00     0.060 C 
ENDROOT
BRANCH   1   8
HETATM    8  N1  UNL     1      20.945  89.238  40.536  1.00  0.00    -0.390 N 
ATOM      9  H1  UNL     1      21.272  90.174  40.775  1.00  0.00     0.159 HD
BRANCH   8  10
HETATM   10  C4  UNL     1      21.087  88.758  39.224  1.00  0.00     0.120 C 
BRANCH  10  11
HETATM   11  C3  UNL     1      20.176  89.533  38.332  1.00  0.00     0.089 A 
HETATM   12  O1  UNL     1      18.869  89.458  38.430  1.00  0.00    -0.321 OA
HETATM   13  C2  UNL     1      18.298  90.242  37.525  1.00  0.00     0.142 A 
HETATM   14  C1  UNL     1      19.289  90.870  36.789  1.00  0.00     0.027 A 
HETATM   15  C14 UNL     1      20.479  90.410  37.312  1.00  0.00     0.040 A 
ENDBRANCH  10  11
ENDBRANCH   8  10
ENDBRANCH   1   8
BRANCH   6  16
HETATM   16  C8  UNL     1      18.016  87.217  43.146  1.00  0.00     0.072 C 
BRANCH  16  17
HETATM   17  C9  UNL     1      17.268  86.727  44.374  1.00  0.00    -0.049 A 
HETATM   18  C10 UNL     1      16.685  87.564  45.253  1.00  0.00     0.014 A 
HETATM   19  C11 UNL     1      16.039  86.998  46.317  1.00  0.00     0.050 A 
HETATM   20  S1  UNL     1      16.261  85.329  46.063  1.00  0.00    -0.113 SA
HETATM   21  C12 UNL     1      17.165  85.386  44.618  1.00  0.00     0.056 A 
ENDBRANCH  16  17
ENDBRANCH   6  16
TORSDOF 5
ENDMDL
