MODEL 1
REMARK VINA RESULT: -6.531405490      0.000      0.000
REMARK  7 active torsions:
REMARK  status: ('A' for Active; 'I' for Inactive)
REMARK    1  A    between atoms: C7_7  and  C8_8 
REMARK    2  A    between atoms: N1_9  and  C9_11 
REMARK    3  A    between atoms: C9_11  and  C10_12 
REMARK    4  A    between atoms: C9_11  and  C11_15 
REMARK    5  A    between atoms: C10_12  and  O1_13 
REMARK    6  A    between atoms: C11_15  and  C12_16 
REMARK    7  A    between atoms: C12_16  and  O2_17 
ROOT
HETATM    1  C8  UNL     1      18.934  88.247  41.072  1.00  0.00     0.062 C 
HETATM    2  N1  UNL     1      18.256  88.291  42.156  1.00  0.00    -0.395 N 
ATOM      3  H1  UNL     1      17.640  89.086  42.325  1.00  0.00     0.159 HD
ENDROOT
BRANCH   1   4
HETATM    4  C7  UNL     1      18.834  89.341  40.060  1.00  0.00     0.042 C 
HETATM    5  C5  UNL     1      18.260  88.856  38.781  1.00  0.00    -0.009 C 
HETATM    6  C4  UNL     1      18.790  89.410  37.530  1.00  0.00     0.005 C 
HETATM    7  C6  UNL     1      16.726  88.974  38.812  1.00  0.00     0.011 C 
HETATM    8  C3  UNL     1      20.076  90.136  37.588  1.00  0.00     0.006 C 
HETATM    9  C2  UNL     1      20.939  89.792  38.764  1.00  0.00    -0.003 C 
HETATM   10  C1  UNL     1      21.525  88.423  38.718  1.00  0.00     0.011 C 
HETATM   11  C13 UNL     1      20.123  90.048  39.996  1.00  0.00     0.071 C 
HETATM   12  S1  UNL     1      21.154  89.613  41.432  1.00  0.00    -0.091 SA
ENDBRANCH   1   4
BRANCH   2  13
HETATM   13  C9  UNL     1      18.342  87.236  43.151  1.00  0.00     0.106 C 
BRANCH  13  14
HETATM   14  C10 UNL     1      19.486  87.644  44.042  1.00  0.00     0.189 C 
BRANCH  14  15
HETATM   15  O1  UNL     1      20.554  86.815  43.861  1.00  0.00    -0.399 OA
ATOM     16  H1  UNL     1      21.354  87.232  44.160  1.00  0.00     0.209 HD
ENDBRANCH  14  15
ENDBRANCH  13  14
BRANCH  13  17
HETATM   17  C11 UNL     1      17.021  87.186  43.862  1.00  0.00     0.053 C 
BRANCH  17  18
HETATM   18  C12 UNL     1      17.071  87.304  45.350  1.00  0.00     0.166 C 
BRANCH  18  19
HETATM   19  O2  UNL     1      15.763  87.729  45.733  1.00  0.00    -0.401 OA
ATOM     20  H2  UNL     1      15.751  87.669  46.681  1.00  0.00     0.209 HD
ENDBRANCH  18  19
ENDBRANCH  17  18
ENDBRANCH  13  17
ENDBRANCH   2  13
TORSDOF 7
ENDMDL
MODEL 2
REMARK VINA RESULT: -5.993080127      2.852      3.836
REMARK  7 active torsions:
REMARK  status: ('A' for Active; 'I' for Inactive)
REMARK    1  A    between atoms: C7_7  and  C8_8 
REMARK    2  A    between atoms: N1_9  and  C9_11 
REMARK    3  A    between atoms: C9_11  and  C10_12 
REMARK    4  A    between atoms: C9_11  and  C11_15 
REMARK    5  A    between atoms: C10_12  and  O1_13 
REMARK    6  A    between atoms: C11_15  and  C12_16 
REMARK    7  A    between atoms: C12_16  and  O2_17 
ROOT
HETATM    1  C8  UNL     1      17.873  86.589  43.940  1.00  0.00     0.062 C 
HETATM    2  N1  UNL     1      16.694  86.403  44.400  1.00  0.00    -0.395 N 
ATOM      3  H1  UNL     1      16.019  87.166  44.359  1.00  0.00     0.159 HD
ENDROOT
BRANCH   1   4
HETATM    4  C7  UNL     1      18.268  87.901  43.348  1.00  0.00     0.042 C 
HETATM    5  C5  UNL     1      18.433  87.814  41.877  1.00  0.00    -0.009 C 
HETATM    6  C4  UNL     1      19.507  88.597  41.254  1.00  0.00     0.005 C 
HETATM    7  C6  UNL     1      17.091  88.095  41.178  1.00  0.00     0.011 C 
HETATM    8  C3  UNL     1      20.566  89.136  42.131  1.00  0.00     0.006 C 
HETATM    9  C2  UNL     1      20.726  88.417  43.437  1.00  0.00    -0.003 C 
HETATM   10  C1  UNL     1      21.293  87.044  43.319  1.00  0.00     0.011 C 
HETATM   11  C13 UNL     1      19.392  88.453  44.123  1.00  0.00     0.071 C 
HETATM   12  S1  UNL     1      19.568  87.564  45.701  1.00  0.00    -0.091 SA
ENDBRANCH   1   4
BRANCH   2  13
HETATM   13  C9  UNL     1      16.294  85.132  44.979  1.00  0.00     0.106 C 
BRANCH  13  14
HETATM   14  C10 UNL     1      17.585  84.388  45.198  1.00  0.00     0.189 C 
BRANCH  14  15
HETATM   15  O1  UNL     1      17.523  83.144  44.643  1.00  0.00    -0.399 OA
ATOM     16  H1  UNL     1      16.891  83.126  43.934  1.00  0.00     0.209 HD
ENDBRANCH  14  15
ENDBRANCH  13  14
BRANCH  13  17
HETATM   17  C11 UNL     1      15.557  85.434  46.251  1.00  0.00     0.053 C 
BRANCH  17  18
HETATM   18  C12 UNL     1      16.231  86.374  47.195  1.00  0.00     0.166 C 
BRANCH  18  19
HETATM   19  O2  UNL     1      15.859  87.678  46.750  1.00  0.00    -0.401 OA
ATOM     20  H2  UNL     1      15.117  87.541  46.173  1.00  0.00     0.209 HD
ENDBRANCH  18  19
ENDBRANCH  17  18
ENDBRANCH  13  17
ENDBRANCH   2  13
TORSDOF 7
ENDMDL
MODEL 3
REMARK VINA RESULT: -5.986372952      4.095      6.129
REMARK  7 active torsions:
REMARK  status: ('A' for Active; 'I' for Inactive)
REMARK    1  A    between atoms: C7_7  and  C8_8 
REMARK    2  A    between atoms: N1_9  and  C9_11 
REMARK    3  A    between atoms: C9_11  and  C10_12 
REMARK    4  A    between atoms: C9_11  and  C11_15 
REMARK    5  A    between atoms: C10_12  and  O1_13 
REMARK    6  A    between atoms: C11_15  and  C12_16 
REMARK    7  A    between atoms: C12_16  and  O2_17 
ROOT
HETATM    1  C8  UNL     1      20.778  86.882  45.293  1.00  0.00     0.062 C 
HETATM    2  N1  UNL     1      21.929  86.339  45.418  1.00  0.00    -0.395 N 
ATOM      3  H1  UNL     1      22.307  85.793  44.643  1.00  0.00     0.159 HD
ENDROOT
BRANCH   1   4
HETATM    4  C7  UNL     1      19.988  86.728  44.035  1.00  0.00     0.042 C 
HETATM    5  C5  UNL     1      19.864  88.011  43.302  1.00  0.00    -0.009 C 
HETATM    6  C4  UNL     1      18.599  88.295  42.615  1.00  0.00     0.005 C 
HETATM    7  C6  UNL     1      21.049  88.185  42.337  1.00  0.00     0.011 C 
HETATM    8  C3  UNL     1      17.421  87.478  42.971  1.00  0.00     0.006 C 
HETATM    9  C2  UNL     1      17.493  86.828  44.320  1.00  0.00    -0.003 C 
HETATM   10  C1  UNL     1      17.392  87.773  45.467  1.00  0.00     0.011 C 
HETATM   11  C13 UNL     1      18.745  86.001  44.340  1.00  0.00     0.071 C 
HETATM   12  S1  UNL     1      18.856  85.221  45.982  1.00  0.00    -0.091 SA
ENDBRANCH   1   4
BRANCH   2  13
HETATM   13  C9  UNL     1      22.709  86.479  46.634  1.00  0.00     0.106 C 
BRANCH  13  14
HETATM   14  C10 UNL     1      21.763  87.103  47.626  1.00  0.00     0.189 C 
BRANCH  14  15
HETATM   15  O1  UNL     1      22.422  87.987  48.429  1.00  0.00    -0.399 OA
ATOM     16  H1  UNL     1      22.559  88.811  47.977  1.00  0.00     0.209 HD
ENDBRANCH  14  15
ENDBRANCH  13  14
BRANCH  13  17
HETATM   17  C11 UNL     1      23.167  85.106  47.032  1.00  0.00     0.053 C 
BRANCH  17  18
HETATM   18  C12 UNL     1      22.336  83.967  46.539  1.00  0.00     0.166 C 
BRANCH  18  19
HETATM   19  O2  UNL     1      23.094  83.384  45.480  1.00  0.00    -0.401 OA
ATOM     20  H2  UNL     1      23.537  84.113  45.062  1.00  0.00     0.209 HD
ENDBRANCH  18  19
ENDBRANCH  17  18
ENDBRANCH  13  17
ENDBRANCH   2  13
TORSDOF 7
ENDMDL
MODEL 4
REMARK VINA RESULT: -5.954225963      3.554      5.879
REMARK  7 active torsions:
REMARK  status: ('A' for Active; 'I' for Inactive)
REMARK    1  A    between atoms: C7_7  and  C8_8 
REMARK    2  A    between atoms: N1_9  and  C9_11 
REMARK    3  A    between atoms: C9_11  and  C10_12 
REMARK    4  A    between atoms: C9_11  and  C11_15 
REMARK    5  A    between atoms: C10_12  and  O1_13 
REMARK    6  A    between atoms: C11_15  and  C12_16 
REMARK    7  A    between atoms: C12_16  and  O2_17 
ROOT
HETATM    1  C8  UNL     1      18.663  89.080  39.627  1.00  0.00     0.062 C 
HETATM    2  N1  UNL     1      18.360  88.567  38.496  1.00  0.00    -0.395 N 
ATOM      3  H1  UNL     1      18.447  87.559  38.368  1.00  0.00     0.159 HD
ENDROOT
BRANCH   1   4
HETATM    4  C7  UNL     1      19.140  88.225  40.755  1.00  0.00     0.042 C 
HETATM    5  C5  UNL     1      18.373  88.475  41.999  1.00  0.00    -0.009 C 
HETATM    6  C4  UNL     1      19.093  88.433  43.276  1.00  0.00     0.005 C 
HETATM    7  C6  UNL     1      17.137  87.559  42.050  1.00  0.00     0.011 C 
HETATM    8  C3  UNL     1      20.569  88.498  43.239  1.00  0.00     0.006 C 
HETATM    9  C2  UNL     1      21.139  89.110  41.995  1.00  0.00    -0.003 C 
HETATM   10  C1  UNL     1      20.907  90.576  41.867  1.00  0.00     0.011 C 
HETATM   11  C13 UNL     1      20.607  88.320  40.835  1.00  0.00     0.071 C 
HETATM   12  S1  UNL     1      21.276  89.067  39.316  1.00  0.00    -0.091 SA
ENDBRANCH   1   4
BRANCH   2  13
HETATM   13  C9  UNL     1      17.894  89.384  37.389  1.00  0.00     0.106 C 
BRANCH  13  14
HETATM   14  C10 UNL     1      16.391  89.316  37.469  1.00  0.00     0.189 C 
BRANCH  14  15
HETATM   15  O1  UNL     1      15.933  88.155  36.919  1.00  0.00    -0.399 OA
ATOM     16  H1  UNL     1      15.761  88.270  35.992  1.00  0.00     0.209 HD
ENDBRANCH  14  15
ENDBRANCH  13  14
BRANCH  13  17
HETATM   17  C11 UNL     1      18.438  90.767  37.596  1.00  0.00     0.053 C 
BRANCH  17  18
HETATM   18  C12 UNL     1      19.383  91.266  36.553  1.00  0.00     0.166 C 
BRANCH  18  19
HETATM   19  O2  UNL     1      18.785  92.459  36.049  1.00  0.00    -0.401 OA
ATOM     20  H2  UNL     1      18.263  92.797  36.767  1.00  0.00     0.209 HD
ENDBRANCH  18  19
ENDBRANCH  17  18
ENDBRANCH  13  17
ENDBRANCH   2  13
TORSDOF 7
ENDMDL
MODEL 5
REMARK VINA RESULT: -5.947822616      1.154      1.235
REMARK  7 active torsions:
REMARK  status: ('A' for Active; 'I' for Inactive)
REMARK    1  A    between atoms: C7_7  and  C8_8 
REMARK    2  A    between atoms: N1_9  and  C9_11 
REMARK    3  A    between atoms: C9_11  and  C10_12 
REMARK    4  A    between atoms: C9_11  and  C11_15 
REMARK    5  A    between atoms: C10_12  and  O1_13 
REMARK    6  A    between atoms: C11_15  and  C12_16 
REMARK    7  A    between atoms: C12_16  and  O2_17 
ROOT
HETATM    1  C8  UNL     1      19.591  87.963  41.742  1.00  0.00     0.062 C 
HETATM    2  N1  UNL     1      19.104  87.749  42.905  1.00  0.00    -0.395 N 
ATOM      3  H1  UNL     1      18.343  88.339  43.241  1.00  0.00     0.159 HD
ENDROOT
BRANCH   1   4
HETATM    4  C7  UNL     1      19.059  89.058  40.877  1.00  0.00     0.042 C 
HETATM    5  C5  UNL     1      18.241  88.529  39.759  1.00  0.00    -0.009 C 
HETATM    6  C4  UNL     1      18.326  89.206  38.459  1.00  0.00     0.005 C 
HETATM    7  C6  UNL     1      16.772  88.393  40.197  1.00  0.00     0.011 C 
HETATM    8  C3  UNL     1      19.456  90.131  38.235  1.00  0.00     0.006 C 
HETATM    9  C2  UNL     1      20.646  89.894  39.116  1.00  0.00    -0.003 C 
HETATM   10  C1  UNL     1      21.396  88.642  38.814  1.00  0.00     0.011 C 
HETATM   11  C13 UNL     1      20.163  89.970  40.535  1.00  0.00     0.071 C 
HETATM   12  S1  UNL     1      21.595  89.662  41.614  1.00  0.00    -0.091 SA
ENDBRANCH   1   4
BRANCH   2  13
HETATM   13  C9  UNL     1      19.609  86.688  43.758  1.00  0.00     0.106 C 
BRANCH  13  14
HETATM   14  C10 UNL     1      20.916  87.215  44.291  1.00  0.00     0.189 C 
BRANCH  14  15
HETATM   15  O1  UNL     1      21.943  86.382  43.954  1.00  0.00    -0.399 OA
ATOM     16  H1  UNL     1      21.613  85.522  43.724  1.00  0.00     0.209 HD
ENDBRANCH  14  15
ENDBRANCH  13  14
BRANCH  13  17
HETATM   17  C11 UNL     1      18.584  86.450  44.828  1.00  0.00     0.053 C 
BRANCH  17  18
HETATM   18  C12 UNL     1      17.510  87.479  44.951  1.00  0.00     0.166 C 
BRANCH  18  19
HETATM   19  O2  UNL     1      18.006  88.423  45.900  1.00  0.00    -0.401 OA
ATOM     20  H2  UNL     1      17.440  89.181  45.814  1.00  0.00     0.209 HD
ENDBRANCH  18  19
ENDBRANCH  17  18
ENDBRANCH  13  17
ENDBRANCH   2  13
TORSDOF 7
ENDMDL
