MODEL 1
REMARK VINA RESULT: -2.786834854      0.000      0.000
REMARK  2 active torsions:
REMARK  status: ('A' for Active; 'I' for Inactive)
REMARK    1  A    between atoms: C4_7  and  C5_8 
REMARK    2  A    between atoms: C5_8  and  N3_9 
ROOT
HETATM    1  C1  UNL     1      19.496  34.759   5.104  1.00  0.00     0.157 C 
HETATM    2  N1  UNL     1      20.463  34.161   6.036  1.00  0.00    -0.348 N 
HETATM    3  C2  UNL     1      20.270  33.889   7.338  1.00  0.00     0.108 A 
HETATM    4  C3  UNL     1      21.432  33.337   7.827  1.00  0.00     0.106 A 
HETATM    5  N2  UNL     1      22.306  33.286   6.809  1.00  0.00    -0.353 N 
ATOM      6  H2  UNL     1      23.258  32.926   6.859  1.00  0.00     0.166 HD
HETATM    7  C4  UNL     1      21.715  33.789   5.716  1.00  0.00     0.108 A 
ENDROOT
BRANCH   7   8
HETATM    8  C5  UNL     1      22.322  33.920   4.380  1.00  0.00     0.305 C 
BRANCH   8   9
HETATM    9  N3  UNL     1      22.456  32.625   3.717  1.00  0.00    -0.073 N 
ATOM     10  H33 UNL     1      23.234  32.623   3.059  1.00  0.00     0.274 HD
ATOM     11  H32 UNL     1      22.792  31.909   4.362  1.00  0.00     0.274 HD
ATOM     12  H31 UNL     1      21.586  32.339   3.267  1.00  0.00     0.274 HD
ENDBRANCH   8   9
ENDBRANCH   7   8
TORSDOF 2
ENDMDL
MODEL 2
REMARK VINA RESULT: -2.523775555      1.526      2.886
REMARK  2 active torsions:
REMARK  status: ('A' for Active; 'I' for Inactive)
REMARK    1  A    between atoms: C4_7  and  C5_8 
REMARK    2  A    between atoms: C5_8  and  N3_9 
ROOT
HETATM    1  C1  UNL     1      20.415  34.655   8.608  1.00  0.00     0.157 C 
HETATM    2  N1  UNL     1      20.878  34.281   7.264  1.00  0.00    -0.348 N 
HETATM    3  C2  UNL     1      20.643  34.938   6.116  1.00  0.00     0.108 A 
HETATM    4  C3  UNL     1      21.259  34.242   5.101  1.00  0.00     0.106 A 
HETATM    5  N2  UNL     1      21.855  33.175   5.657  1.00  0.00    -0.353 N 
ATOM      6  H2  UNL     1      22.393  32.467   5.159  1.00  0.00     0.166 HD
HETATM    7  C4  UNL     1      21.623  33.199   6.977  1.00  0.00     0.108 A 
ENDROOT
BRANCH   7   8
HETATM    8  C5  UNL     1      22.096  32.212   7.962  1.00  0.00     0.305 C 
BRANCH   8   9
HETATM    9  N3  UNL     1      21.328  30.971   7.897  1.00  0.00    -0.073 N 
ATOM     10  H33 UNL     1      21.706  30.266   8.529  1.00  0.00     0.274 HD
ATOM     11  H32 UNL     1      20.405  31.082   8.318  1.00  0.00     0.274 HD
ATOM     12  H31 UNL     1      21.261  30.617   6.943  1.00  0.00     0.274 HD
ENDBRANCH   8   9
ENDBRANCH   7   8
TORSDOF 2
ENDMDL
MODEL 3
REMARK VINA RESULT: -2.030335297      1.192      2.305
REMARK  2 active torsions:
REMARK  status: ('A' for Active; 'I' for Inactive)
REMARK    1  A    between atoms: C4_7  and  C5_8 
REMARK    2  A    between atoms: C5_8  and  N3_9 
ROOT
HETATM    1  C1  UNL     1      23.037  33.120   7.928  1.00  0.00     0.157 C 
HETATM    2  N1  UNL     1      21.621  33.346   7.603  1.00  0.00    -0.348 N 
HETATM    3  C2  UNL     1      20.564  33.138   8.406  1.00  0.00     0.108 A 
HETATM    4  C3  UNL     1      19.431  33.479   7.703  1.00  0.00     0.106 A 
HETATM    5  N2  UNL     1      19.827  33.885   6.486  1.00  0.00    -0.353 N 
ATOM      6  H2  UNL     1      19.214  34.202   5.735  1.00  0.00     0.166 HD
HETATM    7  C4  UNL     1      21.163  33.805   6.425  1.00  0.00     0.108 A 
ENDROOT
BRANCH   7   8
HETATM    8  C5  UNL     1      22.005  34.155   5.268  1.00  0.00     0.305 C 
BRANCH   8   9
HETATM    9  N3  UNL     1      22.216  33.010   4.386  1.00  0.00    -0.073 N 
ATOM     10  H33 UNL     1      21.404  32.393   4.378  1.00  0.00     0.274 HD
ATOM     11  H32 UNL     1      22.212  33.291   3.405  1.00  0.00     0.274 HD
ATOM     12  H31 UNL     1      23.068  32.502   4.623  1.00  0.00     0.274 HD
ENDBRANCH   8   9
ENDBRANCH   7   8
TORSDOF 2
ENDMDL
MODEL 4
REMARK VINA RESULT: -1.683541197      1.553      3.674
REMARK  2 active torsions:
REMARK  status: ('A' for Active; 'I' for Inactive)
REMARK    1  A    between atoms: C4_7  and  C5_8 
REMARK    2  A    between atoms: C5_8  and  N3_9 
ROOT
HETATM    1  C1  UNL     1      22.649  32.922   8.110  1.00  0.00     0.157 C 
HETATM    2  N1  UNL     1      21.772  33.466   7.063  1.00  0.00    -0.348 N 
HETATM    3  C2  UNL     1      22.119  33.795   5.807  1.00  0.00     0.108 A 
HETATM    4  C3  UNL     1      20.992  34.262   5.170  1.00  0.00     0.106 A 
HETATM    5  N2  UNL     1      19.985  34.206   6.055  1.00  0.00    -0.353 N 
ATOM      6  H2  UNL     1      19.020  34.486   5.879  1.00  0.00     0.166 HD
HETATM    7  C4  UNL     1      20.460  33.720   7.210  1.00  0.00     0.108 A 
ENDROOT
BRANCH   7   8
HETATM    8  C5  UNL     1      19.688  33.496   8.445  1.00  0.00     0.305 C 
BRANCH   8   9
HETATM    9  N3  UNL     1      19.013  32.200   8.434  1.00  0.00    -0.073 N 
ATOM     10  H33 UNL     1      19.624  31.460   8.778  1.00  0.00     0.274 HD
ATOM     11  H32 UNL     1      18.287  32.153   9.149  1.00  0.00     0.274 HD
ATOM     12  H31 UNL     1      18.641  31.976   7.511  1.00  0.00     0.274 HD
ENDBRANCH   8   9
ENDBRANCH   7   8
TORSDOF 2
ENDMDL
MODEL 5
REMARK VINA RESULT: -1.588977453      1.584      2.359
REMARK  2 active torsions:
REMARK  status: ('A' for Active; 'I' for Inactive)
REMARK    1  A    between atoms: C4_7  and  C5_8 
REMARK    2  A    between atoms: C5_8  and  N3_9 
ROOT
HETATM    1  C1  UNL     1      19.287  32.765   8.227  1.00  0.00     0.157 C 
HETATM    2  N1  UNL     1      20.753  32.835   8.131  1.00  0.00    -0.348 N 
HETATM    3  C2  UNL     1      21.646  32.178   8.890  1.00  0.00     0.108 A 
HETATM    4  C3  UNL     1      22.903  32.536   8.460  1.00  0.00     0.106 A 
HETATM    5  N2  UNL     1      22.745  33.404   7.449  1.00  0.00    -0.353 N 
ATOM      6  H2  UNL     1      23.496  33.850   6.923  1.00  0.00     0.166 HD
HETATM    7  C4  UNL     1      21.433  33.587   7.248  1.00  0.00     0.108 A 
ENDROOT
BRANCH   7   8
HETATM    8  C5  UNL     1      20.821  34.463   6.233  1.00  0.00     0.305 C 
BRANCH   8   9
HETATM    9  N3  UNL     1      21.272  34.126   4.885  1.00  0.00    -0.073 N 
ATOM     10  H33 UNL     1      22.244  34.400   4.739  1.00  0.00     0.274 HD
ATOM     11  H32 UNL     1      21.372  33.118   4.766  1.00  0.00     0.274 HD
ATOM     12  H31 UNL     1      20.662  34.526   4.171  1.00  0.00     0.274 HD
ENDBRANCH   8   9
ENDBRANCH   7   8
TORSDOF 2
ENDMDL
