MODEL 1
REMARK VINA RESULT: -2.346099499      0.000      0.000
REMARK  2 active torsions:
REMARK  status: ('A' for Active; 'I' for Inactive)
REMARK    1  A    between atoms: C4_7  and  C5_8 
REMARK    2  A    between atoms: C5_8  and  N3_9 
ROOT
HETATM    1  C1  UNL     1      19.666  33.733   8.416  1.00  0.00     0.157 C 
HETATM    2  N1  UNL     1      20.430  33.837   7.166  1.00  0.00    -0.348 N 
HETATM    3  C2  UNL     1      20.038  34.337   5.996  1.00  0.00     0.182 A 
HETATM    4  N2  UNL     1      21.039  34.245   5.105  1.00  0.00    -0.360 N 
ATOM      5  H2  UNL     1      21.010  34.553   4.133  1.00  0.00     0.166 HD
HETATM    6  C3  UNL     1      22.086  33.675   5.726  1.00  0.00     0.115 A 
HETATM    7  C4  UNL     1      21.697  33.420   7.021  1.00  0.00     0.053 A 
ENDROOT
BRANCH   7   8
HETATM    8  C5  UNL     1      22.534  32.797   8.068  1.00  0.00     0.288 C 
BRANCH   8   9
HETATM    9  N3  UNL     1      22.028  31.468   8.433  1.00  0.00    -0.074 N 
ATOM     10  H33 UNL     1      21.880  31.387   9.439  1.00  0.00     0.274 HD
ATOM     11  H32 UNL     1      21.066  31.336   8.122  1.00  0.00     0.274 HD
ATOM     12  H31 UNL     1      22.639  30.730   8.083  1.00  0.00     0.274 HD
ENDBRANCH   8   9
ENDBRANCH   7   8
TORSDOF 2
ENDMDL
MODEL 2
REMARK VINA RESULT: -2.308492971      1.256      2.810
REMARK  2 active torsions:
REMARK  status: ('A' for Active; 'I' for Inactive)
REMARK    1  A    between atoms: C4_7  and  C5_8 
REMARK    2  A    between atoms: C5_8  and  N3_9 
ROOT
HETATM    1  C1  UNL     1      19.354  34.658   5.230  1.00  0.00     0.157 C 
HETATM    2  N1  UNL     1      20.329  34.134   6.196  1.00  0.00    -0.348 N 
HETATM    3  C2  UNL     1      20.149  33.856   7.485  1.00  0.00     0.182 A 
HETATM    4  N2  UNL     1      21.294  33.396   8.014  1.00  0.00    -0.360 N 
ATOM      5  H2  UNL     1      21.438  33.107   8.982  1.00  0.00     0.166 HD
HETATM    6  C3  UNL     1      22.217  33.384   7.037  1.00  0.00     0.115 A 
HETATM    7  C4  UNL     1      21.606  33.850   5.897  1.00  0.00     0.053 A 
ENDROOT
BRANCH   7   8
HETATM    8  C5  UNL     1      22.247  34.006   4.574  1.00  0.00     0.288 C 
BRANCH   8   9
HETATM    9  N3  UNL     1      22.386  32.713   3.894  1.00  0.00    -0.074 N 
ATOM     10  H33 UNL     1      21.625  32.079   4.136  1.00  0.00     0.274 HD
ATOM     11  H32 UNL     1      22.210  32.795   2.893  1.00  0.00     0.274 HD
ATOM     12  H31 UNL     1      23.297  32.293   4.080  1.00  0.00     0.274 HD
ENDBRANCH   8   9
ENDBRANCH   7   8
TORSDOF 2
ENDMDL
MODEL 3
REMARK VINA RESULT: -2.224098784      1.237      2.859
REMARK  2 active torsions:
REMARK  status: ('A' for Active; 'I' for Inactive)
REMARK    1  A    between atoms: C4_7  and  C5_8 
REMARK    2  A    between atoms: C5_8  and  N3_9 
ROOT
HETATM    1  C1  UNL     1      23.013  33.031   7.905  1.00  0.00     0.157 C 
HETATM    2  N1  UNL     1      21.621  33.341   7.551  1.00  0.00    -0.348 N 
HETATM    3  C2  UNL     1      20.528  33.206   8.298  1.00  0.00     0.182 A 
HETATM    4  N2  UNL     1      19.451  33.602   7.601  1.00  0.00    -0.360 N 
ATOM      5  H2  UNL     1      18.486  33.604   7.932  1.00  0.00     0.166 HD
HETATM    6  C3  UNL     1      19.873  33.994   6.387  1.00  0.00     0.115 A 
HETATM    7  C4  UNL     1      21.238  33.827   6.360  1.00  0.00     0.053 A 
ENDROOT
BRANCH   7   8
HETATM    8  C5  UNL     1      22.125  34.133   5.218  1.00  0.00     0.288 C 
BRANCH   8   9
HETATM    9  N3  UNL     1      22.241  32.983   4.312  1.00  0.00    -0.074 N 
ATOM     10  H33 UNL     1      22.070  32.104   4.799  1.00  0.00     0.274 HD
ATOM     11  H32 UNL     1      21.467  32.949   3.650  1.00  0.00     0.274 HD
ATOM     12  H31 UNL     1      23.143  32.978   3.834  1.00  0.00     0.274 HD
ENDBRANCH   8   9
ENDBRANCH   7   8
TORSDOF 2
ENDMDL
MODEL 4
REMARK VINA RESULT: -1.809857654      1.103      2.270
REMARK  2 active torsions:
REMARK  status: ('A' for Active; 'I' for Inactive)
REMARK    1  A    between atoms: C4_7  and  C5_8 
REMARK    2  A    between atoms: C5_8  and  N3_9 
ROOT
HETATM    1  C1  UNL     1      22.685  32.840   8.044  1.00  0.00     0.157 C 
HETATM    2  N1  UNL     1      21.861  33.435   6.984  1.00  0.00    -0.348 N 
HETATM    3  C2  UNL     1      22.201  33.703   5.724  1.00  0.00     0.182 A 
HETATM    4  N2  UNL     1      21.156  34.246   5.079  1.00  0.00    -0.360 N 
ATOM      5  H2  UNL     1      21.140  34.546   4.104  1.00  0.00     0.166 HD
HETATM    6  C3  UNL     1      20.135  34.323   5.949  1.00  0.00     0.115 A 
HETATM    7  C4  UNL     1      20.584  33.813   7.145  1.00  0.00     0.053 A 
ENDROOT
BRANCH   7   8
HETATM    8  C5  UNL     1      19.793  33.701   8.389  1.00  0.00     0.288 C 
BRANCH   8   9
HETATM    9  N3  UNL     1      19.075  32.422   8.449  1.00  0.00    -0.074 N 
ATOM     10  H33 UNL     1      18.989  31.997   7.526  1.00  0.00     0.274 HD
ATOM     11  H32 UNL     1      19.634  31.700   8.903  1.00  0.00     0.274 HD
ATOM     12  H31 UNL     1      18.166  32.529   8.900  1.00  0.00     0.274 HD
ENDBRANCH   8   9
ENDBRANCH   7   8
TORSDOF 2
ENDMDL
MODEL 5
REMARK VINA RESULT: -1.726835939      0.971      2.189
REMARK  2 active torsions:
REMARK  status: ('A' for Active; 'I' for Inactive)
REMARK    1  A    between atoms: C4_7  and  C5_8 
REMARK    2  A    between atoms: C5_8  and  N3_9 
ROOT
HETATM    1  C1  UNL     1      22.687  33.502   4.618  1.00  0.00     0.157 C 
HETATM    2  N1  UNL     1      21.515  33.810   5.449  1.00  0.00    -0.348 N 
HETATM    3  C2  UNL     1      20.362  34.363   5.079  1.00  0.00     0.182 A 
HETATM    4  N2  UNL     1      19.551  34.473   6.143  1.00  0.00    -0.360 N 
ATOM      5  H2  UNL     1      18.608  34.862   6.144  1.00  0.00     0.166 HD
HETATM    6  C3  UNL     1      20.206  33.979   7.208  1.00  0.00     0.115 A 
HETATM    7  C4  UNL     1      21.441  33.564   6.766  1.00  0.00     0.053 A 
ENDROOT
BRANCH   7   8
HETATM    8  C5  UNL     1      22.497  32.953   7.599  1.00  0.00     0.288 C 
BRANCH   8   9
HETATM    9  N3  UNL     1      21.986  31.795   8.343  1.00  0.00    -0.074 N 
ATOM     10  H33 UNL     1      22.707  31.087   8.475  1.00  0.00     0.274 HD
ATOM     11  H32 UNL     1      21.811  32.025   9.320  1.00  0.00     0.274 HD
ATOM     12  H31 UNL     1      21.155  31.406   7.896  1.00  0.00     0.274 HD
ENDBRANCH   8   9
ENDBRANCH   7   8
TORSDOF 2
ENDMDL
