MODEL 1
REMARK VINA RESULT: -3.534246241      0.000      0.000
REMARK  2 active torsions:
REMARK  status: ('A' for Active; 'I' for Inactive)
REMARK    1  A    between atoms: N1_1  and  C1_5 
REMARK    2  A    between atoms: C1_5  and  N2_6 
ROOT
HETATM    1  N2  UNL     1      21.565  33.886   5.770  1.00  0.00    -0.343 N 
HETATM    2  C2  UNL     1      20.361  34.357   6.158  1.00  0.00     0.092 A 
HETATM    3  C3  UNL     1      19.892  34.144   7.439  1.00  0.00     0.017 A 
HETATM    4  C4  UNL     1      20.629  33.443   8.372  1.00  0.00     0.003 A 
HETATM    5  C5  UNL     1      21.860  32.964   7.966  1.00  0.00     0.017 A 
HETATM    6  C6  UNL     1      22.280  33.208   6.672  1.00  0.00     0.092 A 
ENDROOT
BRANCH   1   7
HETATM    7  C1  UNL     1      22.072  34.107   4.418  1.00  0.00     0.358 C 
BRANCH   7   8
HETATM    8  N1  UNL     1      22.446  32.823   3.868  1.00  0.00    -0.063 N 
ATOM      9  H13 UNL     1      22.940  32.904   2.979  1.00  0.00     0.276 HD
ATOM     10  H12 UNL     1      23.190  32.369   4.397  1.00  0.00     0.276 HD
ATOM     11  H11 UNL     1      21.604  32.252   3.801  1.00  0.00     0.276 HD
ENDBRANCH   7   8
ENDBRANCH   1   7
TORSDOF 2
ENDMDL
MODEL 2
REMARK VINA RESULT: -3.395934506      0.044      1.644
REMARK  2 active torsions:
REMARK  status: ('A' for Active; 'I' for Inactive)
REMARK    1  A    between atoms: N1_1  and  C1_5 
REMARK    2  A    between atoms: C1_5  and  N2_6 
ROOT
HETATM    1  N2  UNL     1      21.547  33.875   5.774  1.00  0.00    -0.343 N 
HETATM    2  C2  UNL     1      22.289  33.170   6.654  1.00  0.00     0.092 A 
HETATM    3  C3  UNL     1      21.843  32.943   7.940  1.00  0.00     0.017 A 
HETATM    4  C4  UNL     1      20.627  33.425   8.380  1.00  0.00     0.003 A 
HETATM    5  C5  UNL     1      19.873  34.145   7.473  1.00  0.00     0.017 A 
HETATM    6  C6  UNL     1      20.369  34.342   6.198  1.00  0.00     0.092 A 
ENDROOT
BRANCH   1   7
HETATM    7  C1  UNL     1      22.008  34.121   4.410  1.00  0.00     0.358 C 
BRANCH   7   8
HETATM    8  N1  UNL     1      22.486  32.867   3.869  1.00  0.00    -0.063 N 
ATOM      9  H13 UNL     1      22.075  32.056   4.332  1.00  0.00     0.276 HD
ATOM     10  H12 UNL     1      22.132  32.682   2.931  1.00  0.00     0.276 HD
ATOM     11  H11 UNL     1      23.504  32.874   3.913  1.00  0.00     0.276 HD
ENDBRANCH   7   8
ENDBRANCH   1   7
TORSDOF 2
ENDMDL
MODEL 3
REMARK VINA RESULT: -2.852848651      1.545      2.955
REMARK  2 active torsions:
REMARK  status: ('A' for Active; 'I' for Inactive)
REMARK    1  A    between atoms: N1_1  and  C1_5 
REMARK    2  A    between atoms: C1_5  and  N2_6 
ROOT
HETATM    1  N2  UNL     1      21.685  33.407   7.202  1.00  0.00    -0.343 N 
HETATM    2  C2  UNL     1      20.457  33.952   7.332  1.00  0.00     0.092 A 
HETATM    3  C3  UNL     1      19.818  34.533   6.256  1.00  0.00     0.017 A 
HETATM    4  C4  UNL     1      20.404  34.583   5.008  1.00  0.00     0.003 A 
HETATM    5  C5  UNL     1      21.662  34.022   4.883  1.00  0.00     0.017 A 
HETATM    6  C6  UNL     1      22.254  33.453   5.995  1.00  0.00     0.092 A 
ENDROOT
BRANCH   1   7
HETATM    7  C1  UNL     1      22.370  32.787   8.334  1.00  0.00     0.358 C 
BRANCH   7   8
HETATM    8  N1  UNL     1      21.873  31.436   8.470  1.00  0.00    -0.063 N 
ATOM      9  H13 UNL     1      22.618  30.755   8.620  1.00  0.00     0.276 HD
ATOM     10  H12 UNL     1      21.372  31.285   9.344  1.00  0.00     0.276 HD
ATOM     11  H11 UNL     1      21.306  31.226   7.649  1.00  0.00     0.276 HD
ENDBRANCH   7   8
ENDBRANCH   1   7
TORSDOF 2
ENDMDL
MODEL 4
REMARK VINA RESULT: -2.751941987      1.507      3.275
REMARK  2 active torsions:
REMARK  status: ('A' for Active; 'I' for Inactive)
REMARK    1  A    between atoms: N1_1  and  C1_5 
REMARK    2  A    between atoms: C1_5  and  N2_6 
ROOT
HETATM    1  N2  UNL     1      21.518  33.412   7.044  1.00  0.00    -0.343 N 
HETATM    2  C2  UNL     1      22.236  33.438   5.901  1.00  0.00     0.092 A 
HETATM    3  C3  UNL     1      21.743  34.045   4.764  1.00  0.00     0.017 A 
HETATM    4  C4  UNL     1      20.501  34.646   4.746  1.00  0.00     0.003 A 
HETATM    5  C5  UNL     1      19.772  34.615   5.920  1.00  0.00     0.017 A 
HETATM    6  C6  UNL     1      20.317  33.994   7.029  1.00  0.00     0.092 A 
ENDROOT
BRANCH   1   7
HETATM    7  C1  UNL     1      22.031  32.774   8.254  1.00  0.00     0.358 C 
BRANCH   7   8
HETATM    8  N1  UNL     1      21.592  31.396   8.251  1.00  0.00    -0.063 N 
ATOM      9  H13 UNL     1      21.405  31.040   9.189  1.00  0.00     0.276 HD
ATOM     10  H12 UNL     1      20.652  31.283   7.873  1.00  0.00     0.276 HD
ATOM     11  H11 UNL     1      22.288  30.846   7.750  1.00  0.00     0.276 HD
ENDBRANCH   7   8
ENDBRANCH   1   7
TORSDOF 2
ENDMDL
MODEL 5
REMARK VINA RESULT: -1.816794678      0.770      1.844
REMARK  2 active torsions:
REMARK  status: ('A' for Active; 'I' for Inactive)
REMARK    1  A    between atoms: N1_1  and  C1_5 
REMARK    2  A    between atoms: C1_5  and  N2_6 
ROOT
HETATM    1  N2  UNL     1      21.762  33.812   5.176  1.00  0.00    -0.343 N 
HETATM    2  C2  UNL     1      22.173  33.570   6.439  1.00  0.00     0.092 A 
HETATM    3  C3  UNL     1      21.305  33.691   7.505  1.00  0.00     0.017 A 
HETATM    4  C4  UNL     1      19.988  34.064   7.327  1.00  0.00     0.003 A 
HETATM    5  C5  UNL     1      19.576  34.309   6.031  1.00  0.00     0.017 A 
HETATM    6  C6  UNL     1      20.488  34.172   5.002  1.00  0.00     0.092 A 
ENDROOT
BRANCH   1   7
HETATM    7  C1  UNL     1      22.671  33.686   4.039  1.00  0.00     0.358 C 
BRANCH   7   8
HETATM    8  N1  UNL     1      22.554  32.340   3.523  1.00  0.00    -0.063 N 
ATOM      9  H13 UNL     1      23.253  31.706   3.911  1.00  0.00     0.276 HD
ATOM     10  H12 UNL     1      21.725  31.856   3.866  1.00  0.00     0.276 HD
ATOM     11  H11 UNL     1      22.588  32.390   2.505  1.00  0.00     0.276 HD
ENDBRANCH   7   8
ENDBRANCH   1   7
TORSDOF 2
ENDMDL
