MODEL 1
REMARK VINA RESULT: -1.708828603      0.000      0.000
REMARK  1 active torsions:
REMARK  status: ('A' for Active; 'I' for Inactive)
REMARK    1  A    between atoms: N3_10  and  C5_11 
ROOT
HETATM    1  C1  UNL     1      22.331  33.796   5.298  1.00  0.00     0.047 C 
HETATM    2  C2  UNL     1      21.414  33.752   6.243  1.00  0.00     0.070 A 
HETATM    3  C3  UNL     1      19.996  34.069   6.086  1.00  0.00     0.126 A 
HETATM    4  N1  UNL     1      19.433  34.456   4.973  1.00  0.00    -0.384 N 
ATOM      5  H11 UNL     1      18.443  34.677   4.863  1.00  0.00     0.157 HD
ATOM      6  H12 UNL     1      19.844  34.603   4.051  1.00  0.00     0.157 HD
HETATM    7  N2  UNL     1      19.428  33.866   7.360  1.00  0.00    -0.337 N 
ATOM      8  H2  UNL     1      18.448  33.997   7.613  1.00  0.00     0.168 HD
HETATM    9  C4  UNL     1      20.473  33.447   8.231  1.00  0.00     0.185 A 
HETATM   10  N3  UNL     1      21.601  33.375   7.626  1.00  0.00    -0.341 N 
ENDROOT
BRANCH  10  11
HETATM   11  C5  UNL     1      22.902  32.991   8.119  1.00  0.00     0.125 C 
HETATM   12  C6  UNL     1      22.838  31.932   9.182  1.00  0.00     0.027 C 
ENDBRANCH  10  11
TORSDOF 1
ENDMDL
MODEL 2
REMARK VINA RESULT: -1.224565031      1.353      3.119
REMARK  1 active torsions:
REMARK  status: ('A' for Active; 'I' for Inactive)
REMARK    1  A    between atoms: N3_10  and  C5_11 
ROOT
HETATM    1  C1  UNL     1      22.645  33.122   7.202  1.00  0.00     0.047 C 
HETATM    2  C2  UNL     1      21.549  33.535   6.597  1.00  0.00     0.070 A 
HETATM    3  C3  UNL     1      20.219  33.633   7.193  1.00  0.00     0.126 A 
HETATM    4  N1  UNL     1      19.922  33.310   8.423  1.00  0.00    -0.384 N 
ATOM      5  H11 UNL     1      18.994  33.379   8.840  1.00  0.00     0.157 HD
ATOM      6  H12 UNL     1      20.523  32.950   9.165  1.00  0.00     0.157 HD
HETATM    7  N2  UNL     1      19.389  34.130   6.167  1.00  0.00    -0.337 N 
ATOM      8  H2  UNL     1      18.389  34.321   6.238  1.00  0.00     0.168 HD
HETATM    9  C4  UNL     1      20.202  34.317   5.014  1.00  0.00     0.185 A 
HETATM   10  N3  UNL     1      21.423  33.988   5.230  1.00  0.00    -0.341 N 
ENDROOT
BRANCH  10  11
HETATM   11  C5  UNL     1      22.569  34.024   4.353  1.00  0.00     0.125 C 
HETATM   12  C6  UNL     1      22.632  32.847   3.422  1.00  0.00     0.027 C 
ENDBRANCH  10  11
TORSDOF 1
ENDMDL
MODEL 3
REMARK VINA RESULT: -1.018620628      0.974      2.006
REMARK  1 active torsions:
REMARK  status: ('A' for Active; 'I' for Inactive)
REMARK    1  A    between atoms: N3_10  and  C5_11 
ROOT
HETATM    1  C1  UNL     1      19.806  33.831   8.170  1.00  0.00     0.047 C 
HETATM    2  C2  UNL     1      20.646  33.783   7.156  1.00  0.00     0.070 A 
HETATM    3  C3  UNL     1      20.325  34.059   5.757  1.00  0.00     0.126 A 
HETATM    4  N1  UNL     1      19.144  34.386   5.307  1.00  0.00    -0.384 N 
ATOM      5  H11 UNL     1      18.921  34.579   4.331  1.00  0.00     0.157 HD
ATOM      6  H12 UNL     1      18.266  34.507   5.812  1.00  0.00     0.157 HD
HETATM    7  N2  UNL     1      21.540  33.891   5.059  1.00  0.00    -0.337 N 
ATOM      8  H2  UNL     1      21.681  34.006   4.056  1.00  0.00     0.168 HD
HETATM    9  C4  UNL     1      22.533  33.530   6.013  1.00  0.00     0.185 A 
HETATM   10  N3  UNL     1      22.054  33.463   7.202  1.00  0.00    -0.341 N 
ENDROOT
BRANCH  10  11
HETATM   11  C5  UNL     1      22.700  33.143   8.451  1.00  0.00     0.125 C 
HETATM   12  C6  UNL     1      22.456  31.728   8.893  1.00  0.00     0.027 C 
ENDBRANCH  10  11
TORSDOF 1
ENDMDL
MODEL 4
REMARK VINA RESULT: -0.868894068      1.609      3.273
REMARK  1 active torsions:
REMARK  status: ('A' for Active; 'I' for Inactive)
REMARK    1  A    between atoms: N3_10  and  C5_11 
ROOT
HETATM    1  C1  UNL     1      19.547  34.518   5.634  1.00  0.00     0.047 C 
HETATM    2  C2  UNL     1      20.601  33.967   6.202  1.00  0.00     0.070 A 
HETATM    3  C3  UNL     1      20.668  33.434   7.560  1.00  0.00     0.126 A 
HETATM    4  N1  UNL     1      19.684  33.436   8.418  1.00  0.00    -0.384 N 
ATOM      5  H11 UNL     1      19.731  33.064   9.366  1.00  0.00     0.157 HD
ATOM      6  H12 UNL     1      18.732  33.789   8.316  1.00  0.00     0.157 HD
HETATM    7  N2  UNL     1      21.985  32.947   7.702  1.00  0.00    -0.337 N 
ATOM      8  H2  UNL     1      22.380  32.505   8.532  1.00  0.00     0.168 HD
HETATM    9  C4  UNL     1      22.662  33.187   6.473  1.00  0.00     0.185 A 
HETATM   10  N3  UNL     1      21.904  33.761   5.612  1.00  0.00    -0.341 N 
ENDROOT
BRANCH  10  11
HETATM   11  C5  UNL     1      22.177  34.174   4.257  1.00  0.00     0.125 C 
HETATM   12  C6  UNL     1      22.705  33.061   3.399  1.00  0.00     0.027 C 
ENDBRANCH  10  11
TORSDOF 1
ENDMDL
MODEL 5
REMARK VINA RESULT: -0.616568899      1.476      2.651
REMARK  1 active torsions:
REMARK  status: ('A' for Active; 'I' for Inactive)
REMARK    1  A    between atoms: N3_10  and  C5_11 
ROOT
HETATM    1  C1  UNL     1      22.648  32.915   7.244  1.00  0.00     0.047 C 
HETATM    2  C2  UNL     1      21.730  33.491   6.494  1.00  0.00     0.070 A 
HETATM    3  C3  UNL     1      21.840  33.782   5.066  1.00  0.00     0.126 A 
HETATM    4  N1  UNL     1      22.882  33.519   4.324  1.00  0.00    -0.384 N 
ATOM      5  H11 UNL     1      22.959  33.722   3.328  1.00  0.00     0.157 HD
ATOM      6  H12 UNL     1      23.770  33.084   4.578  1.00  0.00     0.157 HD
HETATM    7  N2  UNL     1      20.614  34.383   4.715  1.00  0.00    -0.337 N 
ATOM      8  H2  UNL     1      20.347  34.715   3.788  1.00  0.00     0.168 HD
HETATM    9  C4  UNL     1      19.816  34.442   5.893  1.00  0.00     0.185 A 
HETATM   10  N3  UNL     1      20.422  33.946   6.908  1.00  0.00    -0.341 N 
ENDROOT
BRANCH  10  11
HETATM   11  C5  UNL     1      19.987  33.800   8.276  1.00  0.00     0.125 C 
HETATM   12  C6  UNL     1      19.248  32.516   8.522  1.00  0.00     0.027 C 
ENDBRANCH  10  11
TORSDOF 1
ENDMDL
