MODEL 1
REMARK VINA RESULT: -1.081507051      0.000      0.000
REMARK  1 active torsions:
REMARK  status: ('A' for Active; 'I' for Inactive)
REMARK    1  A    between atoms: C4_5  and  N2_6 
ROOT
HETATM    1  C1  UNL     1      23.100  31.822   9.670  1.00  0.00     0.156 C 
HETATM    2  N1  UNL     1      22.299  32.461   8.633  1.00  0.00    -0.357 N 
HETATM    3  C2  UNL     1      21.874  33.732   8.754  1.00  0.00     0.095 A 
HETATM    4  C3  UNL     1      21.115  34.321   7.758  1.00  0.00     0.065 A 
HETATM    5  C4  UNL     1      20.772  33.626   6.616  1.00  0.00     0.100 A 
HETATM    6  N3  UNL     1      21.214  32.357   6.530  1.00  0.00    -0.339 N 
ATOM      7  H3  UNL     1      20.986  31.803   5.704  1.00  0.00     0.168 HD
HETATM    8  C5  UNL     1      21.952  31.804   7.512  1.00  0.00     0.183 A 
ENDROOT
BRANCH   5   9
HETATM    9  N2  UNL     1      20.054  34.168   5.664  1.00  0.00    -0.385 N 
ATOM     10  H22 UNL     1      19.435  33.610   5.077  1.00  0.00     0.157 HD
ATOM     11  H21 UNL     1      20.082  35.169   5.473  1.00  0.00     0.157 HD
ENDBRANCH   5   9
TORSDOF 1
ENDMDL
MODEL 2
REMARK VINA RESULT: -0.728895162      8.297      8.972
REMARK  1 active torsions:
REMARK  status: ('A' for Active; 'I' for Inactive)
REMARK    1  A    between atoms: C4_5  and  N2_6 
ROOT
HETATM    1  C1  UNL     1      18.347  37.306  12.919  1.00  0.00     0.156 C 
HETATM    2  N1  UNL     1      17.210  36.475  13.296  1.00  0.00    -0.357 N 
HETATM    3  C2  UNL     1      16.598  35.674  12.406  1.00  0.00     0.095 A 
HETATM    4  C3  UNL     1      15.520  34.892  12.783  1.00  0.00     0.065 A 
HETATM    5  C4  UNL     1      15.043  34.911  14.079  1.00  0.00     0.100 A 
HETATM    6  N3  UNL     1      15.679  35.726  14.941  1.00  0.00    -0.339 N 
ATOM      7  H3  UNL     1      15.362  35.775  15.910  1.00  0.00     0.168 HD
HETATM    8  C5  UNL     1      16.727  36.478  14.552  1.00  0.00     0.183 A 
ENDROOT
BRANCH   5   9
HETATM    9  N2  UNL     1      14.024  34.178  14.452  1.00  0.00    -0.385 N 
ATOM     10  H22 UNL     1      14.087  33.162  14.506  1.00  0.00     0.157 HD
ATOM     11  H21 UNL     1      13.126  34.592  14.705  1.00  0.00     0.157 HD
ENDBRANCH   5   9
TORSDOF 1
ENDMDL
MODEL 3
REMARK VINA RESULT: -0.656040840      8.452      9.063
REMARK  1 active torsions:
REMARK  status: ('A' for Active; 'I' for Inactive)
REMARK    1  A    between atoms: C4_5  and  N2_6 
ROOT
HETATM    1  C1  UNL     1      14.027  34.512  15.162  1.00  0.00     0.156 C 
HETATM    2  N1  UNL     1      15.085  35.193  14.425  1.00  0.00    -0.357 N 
HETATM    3  C2  UNL     1      15.358  34.888  13.144  1.00  0.00     0.095 A 
HETATM    4  C3  UNL     1      16.367  35.545  12.461  1.00  0.00     0.065 A 
HETATM    5  C4  UNL     1      17.119  36.530  13.072  1.00  0.00     0.100 A 
HETATM    6  N3  UNL     1      16.816  36.807  14.354  1.00  0.00    -0.339 N 
ATOM      7  H3  UNL     1      17.345  37.527  14.848  1.00  0.00     0.168 HD
HETATM    8  C5  UNL     1      15.831  36.154  14.999  1.00  0.00     0.183 A 
ENDROOT
BRANCH   5   9
HETATM    9  N2  UNL     1      18.076  37.161  12.440  1.00  0.00    -0.385 N 
ATOM     10  H22 UNL     1      18.290  36.968  11.462  1.00  0.00     0.157 HD
ATOM     11  H21 UNL     1      18.646  37.872  12.897  1.00  0.00     0.157 HD
ENDBRANCH   5   9
TORSDOF 1
ENDMDL
MODEL 4
REMARK VINA RESULT: 0.148705586      1.181      3.265
REMARK  1 active torsions:
REMARK  status: ('A' for Active; 'I' for Inactive)
REMARK    1  A    between atoms: C4_5  and  N2_6 
ROOT
HETATM    1  C1  UNL     1      19.987  34.291   5.900  1.00  0.00     0.156 C 
HETATM    2  N1  UNL     1      20.792  33.598   6.899  1.00  0.00    -0.357 N 
HETATM    3  C2  UNL     1      21.424  34.266   7.881  1.00  0.00     0.095 A 
HETATM    4  C3  UNL     1      22.184  33.590   8.820  1.00  0.00     0.065 A 
HETATM    5  C4  UNL     1      22.316  32.216   8.777  1.00  0.00     0.100 A 
HETATM    6  N3  UNL     1      21.671  31.582   7.780  1.00  0.00    -0.339 N 
ATOM      7  H3  UNL     1      21.739  30.567   7.707  1.00  0.00     0.168 HD
HETATM    8  C5  UNL     1      20.937  32.261   6.877  1.00  0.00     0.183 A 
ENDROOT
BRANCH   5   9
HETATM    9  N2  UNL     1      23.032  31.562   9.657  1.00  0.00    -0.385 N 
ATOM     10  H22 UNL     1      23.063  31.844  10.637  1.00  0.00     0.157 HD
ATOM     11  H21 UNL     1      23.584  30.744   9.402  1.00  0.00     0.157 HD
ENDBRANCH   5   9
TORSDOF 1
ENDMDL
MODEL 5
REMARK VINA RESULT: 0.202436865      8.275      8.841
REMARK  1 active torsions:
REMARK  status: ('A' for Active; 'I' for Inactive)
REMARK    1  A    between atoms: C4_5  and  N2_6 
ROOT
HETATM    1  C1  UNL     1      18.360  37.285  12.871  1.00  0.00     0.156 C 
HETATM    2  N1  UNL     1      17.224  36.478  13.297  1.00  0.00    -0.357 N 
HETATM    3  C2  UNL     1      16.775  36.509  14.565  1.00  0.00     0.095 A 
HETATM    4  C3  UNL     1      15.694  35.735  14.951  1.00  0.00     0.065 A 
HETATM    5  C4  UNL     1      15.047  34.912  14.050  1.00  0.00     0.100 A 
HETATM    6  N3  UNL     1      15.525  34.907  12.792  1.00  0.00    -0.339 N 
ATOM      7  H3  UNL     1      15.080  34.314  12.091  1.00  0.00     0.168 HD
HETATM    8  C5  UNL     1      16.578  35.668  12.439  1.00  0.00     0.183 A 
ENDROOT
BRANCH   5   9
HETATM    9  N2  UNL     1      14.024  34.173  14.399  1.00  0.00    -0.385 N 
ATOM     10  H22 UNL     1      13.552  34.301  15.295  1.00  0.00     0.157 HD
ATOM     11  H21 UNL     1      13.654  33.442  13.792  1.00  0.00     0.157 HD
ENDBRANCH   5   9
TORSDOF 1
ENDMDL
