MODEL 1
REMARK VINA RESULT: -0.775412643      0.000      0.000
REMARK  0 active torsions:
REMARK  status: ('A' for Active; 'I' for Inactive)
ROOT
HETATM    1  C1  UNL     1      20.515  34.143   6.660  1.00  0.00     0.179 C 
HETATM    2  N1  UNL     1      21.138  33.035   7.386  1.00  0.00    -0.282 N 
HETATM    3  N2  UNL     1      20.926  31.742   7.214  1.00  0.00    -0.307 N 
ATOM      4  H2  UNL     1      20.281  31.343   6.532  1.00  0.00     0.186 HD
HETATM    5  C2  UNL     1      21.682  31.027   8.068  1.00  0.00     0.137 A 
HETATM    6  C3  UNL     1      22.424  31.907   8.831  1.00  0.00     0.105 A 
HETATM    7  N3  UNL     1      23.360  31.623   9.859  1.00  0.00    -0.097 NA
HETATM    8  C4  UNL     1      22.055  33.166   8.373  1.00  0.00     0.158 A 
HETATM    9  N4  UNL     1      22.577  34.406   8.883  1.00  0.00    -0.079 NA
ENDROOT
TORSDOF 0
ENDMDL
MODEL 2
REMARK VINA RESULT: -0.100623341      8.036      8.578
REMARK  0 active torsions:
REMARK  status: ('A' for Active; 'I' for Inactive)
ROOT
HETATM    1  C1  UNL     1      18.165  37.184  13.580  1.00  0.00     0.179 C 
HETATM    2  N1  UNL     1      17.075  36.373  13.033  1.00  0.00    -0.282 N 
HETATM    3  N2  UNL     1      16.901  36.005  11.776  1.00  0.00    -0.307 N 
ATOM      4  H2  UNL     1      17.523  36.248  11.006  1.00  0.00     0.186 HD
HETATM    5  C2  UNL     1      15.784  35.263  11.657  1.00  0.00     0.137 A 
HETATM    6  C3  UNL     1      15.208  35.144  12.906  1.00  0.00     0.105 A 
HETATM    7  N3  UNL     1      14.024  34.456  13.278  1.00  0.00    -0.097 NA
HETATM    8  C4  UNL     1      16.050  35.856  13.751  1.00  0.00     0.158 A 
HETATM    9  N4  UNL     1      15.847  36.012  15.167  1.00  0.00    -0.079 NA
ENDROOT
TORSDOF 0
ENDMDL
MODEL 3
REMARK VINA RESULT: -0.025907798      1.295      2.810
REMARK  0 active torsions:
REMARK  status: ('A' for Active; 'I' for Inactive)
ROOT
HETATM    1  C1  UNL     1      23.069  31.394   9.780  1.00  0.00     0.179 C 
HETATM    2  N1  UNL     1      22.224  31.997   8.747  1.00  0.00    -0.282 N 
HETATM    3  N2  UNL     1      21.407  31.375   7.915  1.00  0.00    -0.307 N 
ATOM      4  H2  UNL     1      21.259  30.366   7.889  1.00  0.00     0.186 HD
HETATM    5  C2  UNL     1      20.798  32.263   7.107  1.00  0.00     0.137 A 
HETATM    6  C3  UNL     1      21.247  33.527   7.438  1.00  0.00     0.105 A 
HETATM    7  N3  UNL     1      20.889  34.776   6.866  1.00  0.00    -0.097 NA
HETATM    8  C4  UNL     1      22.145  33.320   8.477  1.00  0.00     0.158 A 
HETATM    9  N4  UNL     1      22.871  34.365   9.149  1.00  0.00    -0.079 NA
ENDROOT
TORSDOF 0
ENDMDL
MODEL 4
REMARK VINA RESULT: -0.006814400      0.944      2.166
REMARK  0 active torsions:
REMARK  status: ('A' for Active; 'I' for Inactive)
ROOT
HETATM    1  C1  UNL     1      19.746  33.440   6.555  1.00  0.00     0.179 C 
HETATM    2  N1  UNL     1      20.863  33.400   7.502  1.00  0.00    -0.282 N 
HETATM    3  N2  UNL     1      21.437  34.424   8.108  1.00  0.00    -0.307 N 
ATOM      4  H2  UNL     1      21.165  35.400   7.988  1.00  0.00     0.186 HD
HETATM    5  C2  UNL     1      22.432  33.997   8.907  1.00  0.00     0.137 A 
HETATM    6  C3  UNL     1      22.503  32.620   8.811  1.00  0.00     0.105 A 
HETATM    7  N3  UNL     1      23.389  31.727   9.467  1.00  0.00    -0.097 NA
HETATM    8  C4  UNL     1      21.497  32.279   7.916  1.00  0.00     0.158 A 
HETATM    9  N4  UNL     1      21.192  30.934   7.504  1.00  0.00    -0.079 NA
ENDROOT
TORSDOF 0
ENDMDL
MODEL 5
REMARK VINA RESULT: 0.524371906      8.668      9.174
REMARK  0 active torsions:
REMARK  status: ('A' for Active; 'I' for Inactive)
ROOT
HETATM    1  C1  UNL     1      17.184  36.407  11.804  1.00  0.00     0.179 C 
HETATM    2  N1  UNL     1      16.491  36.163  13.071  1.00  0.00    -0.282 N 
HETATM    3  N2  UNL     1      16.712  36.751  14.233  1.00  0.00    -0.307 N 
ATOM      4  H2  UNL     1      17.415  37.471  14.398  1.00  0.00     0.186 HD
HETATM    5  C2  UNL     1      15.877  36.264  15.170  1.00  0.00     0.137 A 
HETATM    6  C3  UNL     1      15.072  35.311  14.578  1.00  0.00     0.105 A 
HETATM    7  N3  UNL     1      14.042  34.528  15.163  1.00  0.00    -0.097 NA
HETATM    8  C4  UNL     1      15.487  35.273  13.253  1.00  0.00     0.158 A 
HETATM    9  N4  UNL     1      14.926  34.414  12.244  1.00  0.00    -0.079 NA
ENDROOT
TORSDOF 0
ENDMDL
