MODEL 1
REMARK VINA RESULT: -1.914769116      0.000      0.000
REMARK  2 active torsions:
REMARK  status: ('A' for Active; 'I' for Inactive)
REMARK    1  A    between atoms: C2_2  and  N1_3 
REMARK    2  A    between atoms: C4_6  and  N3_7 
ROOT
HETATM    1  N1  UNL     1      20.872  32.955   7.717  1.00  0.00     0.055 N 
HETATM    2  C3  UNL     1      19.496  32.714   8.186  1.00  0.00     0.302 C 
HETATM    3  N2  UNL     1      21.241  34.275   7.774  1.00  0.00     0.021 NA
HETATM    4  C4  UNL     1      21.105  33.567   6.484  1.00  0.00     0.524 A 
ENDROOT
BRANCH   4   5
HETATM    5  N3  UNL     1      20.154  34.138   5.632  1.00  0.00    -0.032 N 
ATOM      6  H33 UNL     1      20.681  34.590   4.885  1.00  0.00     0.278 HD
ATOM      7  H32 UNL     1      19.696  33.358   5.159  1.00  0.00     0.278 HD
ATOM      8  H31 UNL     1      19.411  34.788   5.887  1.00  0.00     0.278 HD
ENDBRANCH   4   5
BRANCH   1   9
HETATM    9  C2  UNL     1      21.762  31.910   8.151  1.00  0.00     0.260 C 
HETATM   10  C1  UNL     1      22.962  32.435   8.897  1.00  0.00     0.036 C 
ENDBRANCH   1   9
TORSDOF 2
ENDMDL
MODEL 2
REMARK VINA RESULT: -1.789725369      1.130      1.280
REMARK  2 active torsions:
REMARK  status: ('A' for Active; 'I' for Inactive)
REMARK    1  A    between atoms: C2_2  and  N1_3 
REMARK    2  A    between atoms: C4_6  and  N3_7 
ROOT
HETATM    1  N1  UNL     1      21.360  32.937   7.926  1.00  0.00     0.055 N 
HETATM    2  C3  UNL     1      21.300  31.548   7.437  1.00  0.00     0.302 C 
HETATM    3  N2  UNL     1      20.135  33.436   8.291  1.00  0.00     0.021 NA
HETATM    4  C4  UNL     1      20.881  33.987   7.140  1.00  0.00     0.524 A 
ENDROOT
BRANCH   4   5
HETATM    5  N3  UNL     1      20.191  33.888   5.928  1.00  0.00    -0.032 N 
ATOM      6  H33 UNL     1      19.464  33.188   6.075  1.00  0.00     0.278 HD
ATOM      7  H32 UNL     1      19.666  34.757   5.832  1.00  0.00     0.278 HD
ATOM      8  H31 UNL     1      20.586  33.694   5.009  1.00  0.00     0.278 HD
ENDBRANCH   4   5
BRANCH   1   9
HETATM    9  C2  UNL     1      22.529  33.155   8.737  1.00  0.00     0.260 C 
HETATM   10  C1  UNL     1      23.052  31.887   9.363  1.00  0.00     0.036 C 
ENDBRANCH   1   9
TORSDOF 2
ENDMDL
MODEL 3
REMARK VINA RESULT: -1.589868013      1.363      3.012
REMARK  2 active torsions:
REMARK  status: ('A' for Active; 'I' for Inactive)
REMARK    1  A    between atoms: C2_2  and  N1_3 
REMARK    2  A    between atoms: C4_6  and  N3_7 
ROOT
HETATM    1  N1  UNL     1      21.052  32.997   7.754  1.00  0.00     0.055 N 
HETATM    2  C3  UNL     1      19.837  32.383   8.316  1.00  0.00     0.302 C 
HETATM    3  N2  UNL     1      21.812  32.122   7.020  1.00  0.00     0.021 NA
HETATM    4  C4  UNL     1      22.308  32.701   8.286  1.00  0.00     0.524 A 
ENDROOT
BRANCH   4   5
HETATM    5  N3  UNL     1      22.608  31.742   9.258  1.00  0.00    -0.032 N 
ATOM      6  H33 UNL     1      22.786  32.260  10.119  1.00  0.00     0.278 HD
ATOM      7  H32 UNL     1      21.734  31.254   9.451  1.00  0.00     0.278 HD
ATOM      8  H31 UNL     1      23.328  31.021   9.210  1.00  0.00     0.278 HD
ENDBRANCH   4   5
BRANCH   1   9
HETATM    9  C2  UNL     1      20.794  34.335   7.290  1.00  0.00     0.260 C 
HETATM   10  C1  UNL     1      20.386  34.384   5.840  1.00  0.00     0.036 C 
ENDBRANCH   1   9
TORSDOF 2
ENDMDL
MODEL 4
REMARK VINA RESULT: -1.480107450      1.481      3.000
REMARK  2 active torsions:
REMARK  status: ('A' for Active; 'I' for Inactive)
REMARK    1  A    between atoms: C2_2  and  N1_3 
REMARK    2  A    between atoms: C4_6  and  N3_7 
ROOT
HETATM    1  N1  UNL     1      21.115  33.596   7.769  1.00  0.00     0.055 N 
HETATM    2  C3  UNL     1      22.195  33.919   8.718  1.00  0.00     0.302 C 
HETATM    3  N2  UNL     1      20.059  32.942   8.352  1.00  0.00     0.021 NA
HETATM    4  C4  UNL     1      20.914  32.281   7.343  1.00  0.00     0.524 A 
ENDROOT
BRANCH   4   5
HETATM    5  N3  UNL     1      21.552  31.132   7.820  1.00  0.00    -0.032 N 
ATOM      6  H33 UNL     1      21.658  30.515   7.016  1.00  0.00     0.278 HD
ATOM      7  H32 UNL     1      22.510  31.411   8.032  1.00  0.00     0.278 HD
ATOM      8  H31 UNL     1      21.254  30.539   8.594  1.00  0.00     0.278 HD
ENDBRANCH   4   5
BRANCH   1   9
HETATM    9  C2  UNL     1      20.907  34.668   6.831  1.00  0.00     0.260 C 
HETATM   10  C1  UNL     1      20.234  34.213   5.561  1.00  0.00     0.036 C 
ENDBRANCH   1   9
TORSDOF 2
ENDMDL
MODEL 5
REMARK VINA RESULT: -1.115566653      7.567      8.319
REMARK  2 active torsions:
REMARK  status: ('A' for Active; 'I' for Inactive)
REMARK    1  A    between atoms: C2_2  and  N1_3 
REMARK    2  A    between atoms: C4_6  and  N3_7 
ROOT
HETATM    1  N1  UNL     1      16.199  35.621  13.246  1.00  0.00     0.055 N 
HETATM    2  C3  UNL     1      15.977  35.686  11.791  1.00  0.00     0.302 C 
HETATM    3  N2  UNL     1      16.429  34.347  13.702  1.00  0.00     0.021 NA
HETATM    4  C4  UNL     1      15.217  35.101  14.091  1.00  0.00     0.524 A 
ENDROOT
BRANCH   4   5
HETATM    5  N3  UNL     1      14.026  34.473  13.715  1.00  0.00    -0.032 N 
ATOM      6  H33 UNL     1      14.064  34.383  12.700  1.00  0.00     0.278 HD
ATOM      7  H32 UNL     1      14.101  33.509  14.042  1.00  0.00     0.278 HD
ATOM      8  H31 UNL     1      13.077  34.772  13.936  1.00  0.00     0.278 HD
ENDBRANCH   4   5
BRANCH   1   9
HETATM    9  C2  UNL     1      16.989  36.734  13.703  1.00  0.00     0.260 C 
HETATM   10  C1  UNL     1      18.339  36.806  13.037  1.00  0.00     0.036 C 
ENDBRANCH   1   9
TORSDOF 2
ENDMDL
