MODEL 1
REMARK VINA RESULT: -7.988992978      0.000      0.000
REMARK  8 active torsions:
REMARK  status: ('A' for Active; 'I' for Inactive)
REMARK    1  A    between atoms: C2_3  and  O1_4 
REMARK    2  A    between atoms: C3_6  and  O2_7 
REMARK    3  A    between atoms: C4_9  and  N2_10 
REMARK    4  A    between atoms: N2_10  and  S1_12 
REMARK    5  A    between atoms: S1_12  and  O5_15 
REMARK    6  A    between atoms: O5_15  and  N3_16 
REMARK    7  A    between atoms: C7_24  and  N6_25 
REMARK    8  A    between atoms: N6_25  and  N7_26 
ROOT
HETATM    1  S1  UNL     1     -15.926  -6.917  22.026  1.00  0.00     0.384 S 
HETATM    2  O3  UNL     1     -15.507  -5.685  22.817  1.00  0.00    -0.174 OA
HETATM    3  O4  UNL     1     -16.022  -6.635  20.560  1.00  0.00    -0.174 OA
ENDROOT
BRANCH   1   4
HETATM    4  N2  UNL     1     -14.793  -8.160  22.399  1.00  0.00    -0.243 N 
ATOM      5  H2  UNL     1     -14.394  -8.733  21.655  1.00  0.00     0.182 HD
BRANCH   4   6
HETATM    6  C4  UNL     1     -14.455  -8.358  23.621  1.00  0.00     0.158 A 
HETATM    7  C3  UNL     1     -13.193  -8.924  23.837  1.00  0.00     0.162 A 
HETATM    8  C2  UNL     1     -12.784  -9.156  25.127  1.00  0.00     0.183 A 
HETATM    9  N1  UNL     1     -13.566  -8.853  26.170  1.00  0.00    -0.282 N 
HETATM   10  C1  UNL     1     -13.151  -9.090  27.551  1.00  0.00     0.163 C 
HETATM   11  C8  UNL     1     -14.768  -8.312  25.950  1.00  0.00     0.329 A 
HETATM   12  N8  UNL     1     -15.193  -8.075  24.694  1.00  0.00    -0.291 N 
HETATM   13  O6  UNL     1     -15.519  -8.020  26.939  1.00  0.00    -0.246 OA
ATOM     14  H8  UNL     1     -16.115  -7.662  24.559  1.00  0.00     0.172 HD
BRANCH   7  15
HETATM   15  O2  UNL     1     -12.384  -9.237  22.737  1.00  0.00    -0.354 OA
ATOM     16  H2  UNL     1     -11.644  -8.697  22.488  1.00  0.00     0.218 HD
ENDBRANCH   7  15
BRANCH   8  17
HETATM   17  O1  UNL     1     -11.532  -9.717  25.337  1.00  0.00    -0.344 OA
ATOM     18  H1  UNL     1     -10.807  -9.488  24.768  1.00  0.00     0.219 HD
ENDBRANCH   8  17
ENDBRANCH   4   6
ENDBRANCH   1   4
BRANCH   1  19
HETATM   19  O5  UNL     1     -17.467  -7.388  22.525  1.00  0.00    -0.127 OA
BRANCH  19  20
HETATM   20  N3  UNL     1     -18.261  -6.348  22.797  1.00  0.00    -0.185 N 
HETATM   21  C5  UNL     1     -18.715  -5.353  21.889  1.00  0.00     0.198 C 
HETATM   22  N4  UNL     1     -18.574  -5.387  20.607  1.00  0.00    -0.370 N 
HETATM   23  N5  UNL     1     -19.347  -4.326  22.652  1.00  0.00    -0.357 N 
ATOM     24  H42 UNL     1     -18.122  -6.121  20.061  1.00  0.00     0.159 HD
ATOM     25  H41 UNL     1     -18.899  -4.673  19.954  1.00  0.00     0.159 HD
HETATM   26  C6  UNL     1     -18.943  -4.531  24.041  1.00  0.00     0.169 C 
ATOM     27  H5  UNL     1     -19.960  -3.593  22.297  1.00  0.00     0.162 HD
HETATM   28  C7  UNL     1     -18.828  -6.027  24.109  1.00  0.00     0.249 C 
BRANCH  28  29
HETATM   29  N6  UNL     1     -17.879  -6.472  25.110  1.00  0.00    -0.118 NA
BRANCH  29  30
HETATM   30  N7  UNL     1     -17.049  -5.462  25.550  1.00  0.00    -0.346 N 
ATOM     31  H72 UNL     1     -17.131  -4.499  25.222  1.00  0.00     0.172 HD
ATOM     32  H71 UNL     1     -16.357  -5.783  26.228  1.00  0.00     0.172 HD
ENDBRANCH  29  30
ENDBRANCH  28  29
ENDBRANCH  19  20
ENDBRANCH   1  19
TORSDOF 8
ENDMDL
MODEL 2
REMARK VINA RESULT: -7.958189214      2.015      3.138
REMARK  8 active torsions:
REMARK  status: ('A' for Active; 'I' for Inactive)
REMARK    1  A    between atoms: C2_3  and  O1_4 
REMARK    2  A    between atoms: C3_6  and  O2_7 
REMARK    3  A    between atoms: C4_9  and  N2_10 
REMARK    4  A    between atoms: N2_10  and  S1_12 
REMARK    5  A    between atoms: S1_12  and  O5_15 
REMARK    6  A    between atoms: O5_15  and  N3_16 
REMARK    7  A    between atoms: C7_24  and  N6_25 
REMARK    8  A    between atoms: N6_25  and  N7_26 
ROOT
HETATM    1  S1  UNL     1     -14.956  -6.793  21.838  1.00  0.00     0.384 S 
HETATM    2  O3  UNL     1     -16.001  -6.088  22.691  1.00  0.00    -0.174 OA
HETATM    3  O4  UNL     1     -13.674  -6.025  21.776  1.00  0.00    -0.174 OA
ENDROOT
BRANCH   1   4
HETATM    4  N2  UNL     1     -14.762  -8.375  22.491  1.00  0.00    -0.243 N 
ATOM      5  H2  UNL     1     -14.941  -9.196  21.914  1.00  0.00     0.182 HD
BRANCH   4   6
HETATM    6  C4  UNL     1     -14.389  -8.510  23.711  1.00  0.00     0.158 A 
HETATM    7  C3  UNL     1     -13.098  -9.011  23.919  1.00  0.00     0.162 A 
HETATM    8  C2  UNL     1     -12.652  -9.174  25.208  1.00  0.00     0.183 A 
HETATM    9  N1  UNL     1     -13.423  -8.866  26.256  1.00  0.00    -0.282 N 
HETATM   10  C1  UNL     1     -12.969  -9.031  27.635  1.00  0.00     0.163 C 
HETATM   11  C8  UNL     1     -14.653  -8.388  26.044  1.00  0.00     0.329 A 
HETATM   12  N8  UNL     1     -15.115  -8.219  24.790  1.00  0.00    -0.291 N 
HETATM   13  O6  UNL     1     -15.395  -8.092  27.039  1.00  0.00    -0.246 OA
ATOM     14  H8  UNL     1     -16.059  -7.853  24.661  1.00  0.00     0.172 HD
BRANCH   7  15
HETATM   15  O2  UNL     1     -12.300  -9.330  22.814  1.00  0.00    -0.354 OA
ATOM     16  H2  UNL     1     -12.404  -8.893  21.976  1.00  0.00     0.218 HD
ENDBRANCH   7  15
BRANCH   8  17
HETATM   17  O1  UNL     1     -11.371  -9.670  25.410  1.00  0.00    -0.344 OA
ATOM     18  H1  UNL     1     -11.088 -10.455  24.955  1.00  0.00     0.219 HD
ENDBRANCH   8  17
ENDBRANCH   4   6
ENDBRANCH   1   4
BRANCH   1  19
HETATM   19  O5  UNL     1     -15.526  -6.901  20.254  1.00  0.00    -0.127 OA
BRANCH  19  20
HETATM   20  N3  UNL     1     -16.777  -7.368  20.187  1.00  0.00    -0.185 N 
HETATM   21  C5  UNL     1     -17.181  -8.724  20.053  1.00  0.00     0.198 C 
HETATM   22  N4  UNL     1     -16.406  -9.751  20.148  1.00  0.00    -0.370 N 
HETATM   23  N5  UNL     1     -18.585  -8.734  19.798  1.00  0.00    -0.357 N 
ATOM     24  H42 UNL     1     -15.403  -9.744  20.330  1.00  0.00     0.159 HD
ATOM     25  H41 UNL     1     -16.696 -10.725  20.052  1.00  0.00     0.159 HD
HETATM   26  C6  UNL     1     -18.948  -7.372  19.414  1.00  0.00     0.169 C 
ATOM     27  H5  UNL     1     -19.212  -9.535  19.871  1.00  0.00     0.162 HD
HETATM   28  C7  UNL     1     -17.995  -6.556  20.240  1.00  0.00     0.249 C 
BRANCH  28  29
HETATM   29  N6  UNL     1     -17.686  -5.274  19.638  1.00  0.00    -0.118 NA
BRANCH  29  30
HETATM   30  N7  UNL     1     -17.242  -5.386  18.337  1.00  0.00    -0.346 N 
ATOM     31  H72 UNL     1     -17.438  -6.200  17.755  1.00  0.00     0.172 HD
ATOM     32  H71 UNL     1     -16.704  -4.574  18.030  1.00  0.00     0.172 HD
ENDBRANCH  29  30
ENDBRANCH  28  29
ENDBRANCH  19  20
ENDBRANCH   1  19
TORSDOF 8
ENDMDL
MODEL 3
REMARK VINA RESULT: -7.906742272      2.533      6.477
REMARK  8 active torsions:
REMARK  status: ('A' for Active; 'I' for Inactive)
REMARK    1  A    between atoms: C2_3  and  O1_4 
REMARK    2  A    between atoms: C3_6  and  O2_7 
REMARK    3  A    between atoms: C4_9  and  N2_10 
REMARK    4  A    between atoms: N2_10  and  S1_12 
REMARK    5  A    between atoms: S1_12  and  O5_15 
REMARK    6  A    between atoms: O5_15  and  N3_16 
REMARK    7  A    between atoms: C7_24  and  N6_25 
REMARK    8  A    between atoms: N6_25  and  N7_26 
ROOT
HETATM    1  S1  UNL     1     -15.000  -7.501  22.135  1.00  0.00     0.384 S 
HETATM    2  O3  UNL     1     -14.729  -8.390  20.930  1.00  0.00    -0.174 OA
HETATM    3  O4  UNL     1     -13.829  -6.627  22.460  1.00  0.00    -0.174 OA
ENDROOT
BRANCH   1   4
HETATM    4  N2  UNL     1     -16.429  -6.606  21.785  1.00  0.00    -0.243 N 
ATOM      5  H2  UNL     1     -16.477  -5.609  21.995  1.00  0.00     0.182 HD
BRANCH   4   6
HETATM    6  C4  UNL     1     -17.433  -7.205  21.256  1.00  0.00     0.158 A 
HETATM    7  C3  UNL     1     -18.005  -6.595  20.133  1.00  0.00     0.162 A 
HETATM    8  C2  UNL     1     -19.083  -7.198  19.531  1.00  0.00     0.183 A 
HETATM    9  N1  UNL     1     -19.588  -8.346  19.995  1.00  0.00    -0.282 N 
HETATM   10  C1  UNL     1     -20.733  -9.004  19.370  1.00  0.00     0.163 C 
HETATM   11  C8  UNL     1     -19.032  -8.918  21.068  1.00  0.00     0.329 A 
HETATM   12  N8  UNL     1     -17.975  -8.347  21.678  1.00  0.00    -0.291 N 
HETATM   13  O6  UNL     1     -19.509 -10.013  21.517  1.00  0.00    -0.246 OA
ATOM     14  H8  UNL     1     -17.574  -8.808  22.494  1.00  0.00     0.172 HD
BRANCH   7  15
HETATM   15  O2  UNL     1     -17.467  -5.394  19.656  1.00  0.00    -0.354 OA
ATOM     16  H2  UNL     1     -16.929  -4.833  20.202  1.00  0.00     0.218 HD
ENDBRANCH   7  15
BRANCH   8  17
HETATM   17  O1  UNL     1     -19.647  -6.591  18.417  1.00  0.00    -0.344 OA
ATOM     18  H1  UNL     1     -19.179  -5.898  17.965  1.00  0.00     0.219 HD
ENDBRANCH   8  17
ENDBRANCH   4   6
ENDBRANCH   1   4
BRANCH   1  19
HETATM   19  O5  UNL     1     -15.259  -8.476  23.486  1.00  0.00    -0.127 OA
BRANCH  19  20
HETATM   20  N3  UNL     1     -14.186  -8.556  24.279  1.00  0.00    -0.185 N 
HETATM   21  C5  UNL     1     -12.949  -9.193  23.986  1.00  0.00     0.198 C 
HETATM   22  N4  UNL     1     -12.595  -9.653  22.834  1.00  0.00    -0.370 N 
HETATM   23  N5  UNL     1     -12.184  -9.225  25.190  1.00  0.00    -0.357 N 
ATOM     24  H42 UNL     1     -13.141  -9.629  21.973  1.00  0.00     0.159 HD
ATOM     25  H41 UNL     1     -11.707 -10.110  22.624  1.00  0.00     0.159 HD
HETATM   26  C6  UNL     1     -13.112  -8.941  26.281  1.00  0.00     0.169 C 
ATOM     27  H5  UNL     1     -11.184  -9.410  25.273  1.00  0.00     0.162 HD
HETATM   28  C7  UNL     1     -14.074  -7.992  25.626  1.00  0.00     0.249 C 
BRANCH  28  29
HETATM   29  N6  UNL     1     -15.396  -8.032  26.221  1.00  0.00    -0.118 NA
BRANCH  29  30
HETATM   30  N7  UNL     1     -16.248  -7.081  25.699  1.00  0.00    -0.346 N 
ATOM     31  H72 UNL     1     -16.965  -7.303  25.007  1.00  0.00     0.172 HD
ATOM     32  H71 UNL     1     -16.081  -6.148  26.078  1.00  0.00     0.172 HD
ENDBRANCH  29  30
ENDBRANCH  28  29
ENDBRANCH  19  20
ENDBRANCH   1  19
TORSDOF 8
ENDMDL
MODEL 4
REMARK VINA RESULT: -7.764993079      1.589      2.582
REMARK  8 active torsions:
REMARK  status: ('A' for Active; 'I' for Inactive)
REMARK    1  A    between atoms: C2_3  and  O1_4 
REMARK    2  A    between atoms: C3_6  and  O2_7 
REMARK    3  A    between atoms: C4_9  and  N2_10 
REMARK    4  A    between atoms: N2_10  and  S1_12 
REMARK    5  A    between atoms: S1_12  and  O5_15 
REMARK    6  A    between atoms: O5_15  and  N3_16 
REMARK    7  A    between atoms: C7_24  and  N6_25 
REMARK    8  A    between atoms: N6_25  and  N7_26 
ROOT
HETATM    1  S1  UNL     1     -15.904  -7.215  21.417  1.00  0.00     0.384 S 
HETATM    2  O3  UNL     1     -16.097  -5.889  22.139  1.00  0.00    -0.174 OA
HETATM    3  O4  UNL     1     -15.776  -7.034  19.938  1.00  0.00    -0.174 OA
ENDROOT
BRANCH   1   4
HETATM    4  N2  UNL     1     -14.527  -7.973  22.123  1.00  0.00    -0.243 N 
ATOM      5  H2  UNL     1     -13.742  -8.260  21.539  1.00  0.00     0.182 HD
BRANCH   4   6
HETATM    6  C4  UNL     1     -14.499  -8.172  23.390  1.00  0.00     0.158 A 
HETATM    7  C3  UNL     1     -13.391  -8.869  23.889  1.00  0.00     0.162 A 
HETATM    8  C2  UNL     1     -13.314  -9.108  25.239  1.00  0.00     0.183 A 
HETATM    9  N1  UNL     1     -14.271  -8.691  26.076  1.00  0.00    -0.282 N 
HETATM   10  C1  UNL     1     -14.209  -8.934  27.515  1.00  0.00     0.163 C 
HETATM   11  C8  UNL     1     -15.323  -8.027  25.586  1.00  0.00     0.329 A 
HETATM   12  N8  UNL     1     -15.423  -7.780  24.266  1.00  0.00    -0.291 N 
HETATM   13  O6  UNL     1     -16.240  -7.626  26.379  1.00  0.00    -0.246 OA
ATOM     14  H8  UNL     1     -16.238  -7.271  23.924  1.00  0.00     0.172 HD
BRANCH   7  15
HETATM   15  O2  UNL     1     -12.396  -9.300  23.003  1.00  0.00    -0.354 OA
ATOM     16  H2  UNL     1     -11.848  -8.688  22.527  1.00  0.00     0.218 HD
ENDBRANCH   7  15
BRANCH   8  17
HETATM   17  O1  UNL     1     -12.215  -9.798  25.730  1.00  0.00    -0.344 OA
ATOM     18  H1  UNL     1     -12.050  -9.828  26.665  1.00  0.00     0.219 HD
ENDBRANCH   8  17
ENDBRANCH   4   6
ENDBRANCH   1   4
BRANCH   1  19
HETATM   19  O5  UNL     1     -17.268  -8.176  21.665  1.00  0.00    -0.127 OA
BRANCH  19  20
HETATM   20  N3  UNL     1     -18.401  -7.468  21.684  1.00  0.00    -0.185 N 
HETATM   21  C5  UNL     1     -19.056  -6.926  22.824  1.00  0.00     0.198 C 
HETATM   22  N4  UNL     1     -18.570  -6.881  24.018  1.00  0.00    -0.370 N 
HETATM   23  N5  UNL     1     -20.333  -6.448  22.403  1.00  0.00    -0.357 N 
ATOM     24  H42 UNL     1     -17.657  -7.222  24.319  1.00  0.00     0.159 HD
ATOM     25  H41 UNL     1     -19.040  -6.492  24.836  1.00  0.00     0.159 HD
HETATM   26  C6  UNL     1     -20.586  -7.039  21.091  1.00  0.00     0.169 C 
ATOM     27  H5  UNL     1     -20.947  -5.817  22.916  1.00  0.00     0.162 HD
HETATM   28  C7  UNL     1     -19.202  -7.107  20.512  1.00  0.00     0.249 C 
BRANCH  28  29
HETATM   29  N6  UNL     1     -19.051  -8.173  19.541  1.00  0.00    -0.118 NA
BRANCH  29  30
HETATM   30  N7  UNL     1     -19.550  -9.379  19.986  1.00  0.00    -0.346 N 
ATOM     31  H72 UNL     1     -19.209  -9.840  20.830  1.00  0.00     0.172 HD
ATOM     32  H71 UNL     1     -20.287  -9.750  19.385  1.00  0.00     0.172 HD
ENDBRANCH  29  30
ENDBRANCH  28  29
ENDBRANCH  19  20
ENDBRANCH   1  19
TORSDOF 8
ENDMDL
MODEL 5
REMARK VINA RESULT: -7.736611325      1.379      2.103
REMARK  8 active torsions:
REMARK  status: ('A' for Active; 'I' for Inactive)
REMARK    1  A    between atoms: C2_3  and  O1_4 
REMARK    2  A    between atoms: C3_6  and  O2_7 
REMARK    3  A    between atoms: C4_9  and  N2_10 
REMARK    4  A    between atoms: N2_10  and  S1_12 
REMARK    5  A    between atoms: S1_12  and  O5_15 
REMARK    6  A    between atoms: O5_15  and  N3_16 
REMARK    7  A    between atoms: C7_24  and  N6_25 
REMARK    8  A    between atoms: N6_25  and  N7_26 
ROOT
HETATM    1  S1  UNL     1     -15.669  -7.015  21.802  1.00  0.00     0.384 S 
HETATM    2  O3  UNL     1     -15.145  -5.788  22.537  1.00  0.00    -0.174 OA
HETATM    3  O4  UNL     1     -15.690  -6.811  20.320  1.00  0.00    -0.174 OA
ENDROOT
BRANCH   1   4
HETATM    4  N2  UNL     1     -14.685  -8.344  22.284  1.00  0.00    -0.243 N 
ATOM      5  H2  UNL     1     -14.357  -9.019  21.593  1.00  0.00     0.182 HD
BRANCH   4   6
HETATM    6  C4  UNL     1     -14.369  -8.477  23.520  1.00  0.00     0.158 A 
HETATM    7  C3  UNL     1     -13.108  -9.025  23.788  1.00  0.00     0.162 A 
HETATM    8  C2  UNL     1     -12.723  -9.189  25.096  1.00  0.00     0.183 A 
HETATM    9  N1  UNL     1     -13.524  -8.836  26.107  1.00  0.00    -0.282 N 
HETATM   10  C1  UNL     1     -13.134  -9.001  27.506  1.00  0.00     0.163 C 
HETATM   11  C8  UNL     1     -14.725  -8.313  25.838  1.00  0.00     0.329 A 
HETATM   12  N8  UNL     1     -15.127  -8.143  24.564  1.00  0.00    -0.291 N 
HETATM   13  O6  UNL     1     -15.495  -7.975  26.798  1.00  0.00    -0.246 OA
ATOM     14  H8  UNL     1     -16.049  -7.742  24.391  1.00  0.00     0.172 HD
BRANCH   7  15
HETATM   15  O2  UNL     1     -12.278  -9.391  22.721  1.00  0.00    -0.354 OA
ATOM     16  H2  UNL     1     -12.617  -9.517  21.842  1.00  0.00     0.218 HD
ENDBRANCH   7  15
BRANCH   8  17
HETATM   17  O1  UNL     1     -11.473  -9.732  25.357  1.00  0.00    -0.344 OA
ATOM     18  H1  UNL     1     -10.983  -9.453  26.122  1.00  0.00     0.219 HD
ENDBRANCH   8  17
ENDBRANCH   4   6
ENDBRANCH   1   4
BRANCH   1  19
HETATM   19  O5  UNL     1     -17.265  -7.293  22.270  1.00  0.00    -0.127 OA
BRANCH  19  20
HETATM   20  N3  UNL     1     -18.137  -7.084  21.279  1.00  0.00    -0.185 N 
HETATM   21  C5  UNL     1     -18.428  -7.956  20.195  1.00  0.00     0.198 C 
HETATM   22  N4  UNL     1     -18.023  -9.175  20.081  1.00  0.00    -0.370 N 
HETATM   23  N5  UNL     1     -19.244  -7.237  19.270  1.00  0.00    -0.357 N 
ATOM     24  H42 UNL     1     -17.440  -9.689  20.742  1.00  0.00     0.159 HD
ATOM     25  H41 UNL     1     -18.231  -9.801  19.303  1.00  0.00     0.159 HD
HETATM   26  C6  UNL     1     -19.130  -5.825  19.624  1.00  0.00     0.169 C 
ATOM     27  H5  UNL     1     -19.797  -7.633  18.510  1.00  0.00     0.162 HD
HETATM   28  C7  UNL     1     -18.976  -5.895  21.117  1.00  0.00     0.249 C 
BRANCH  28  29
HETATM   29  N6  UNL     1     -18.240  -4.770  21.659  1.00  0.00    -0.118 NA
BRANCH  29  30
HETATM   30  N7  UNL     1     -18.237  -4.745  23.038  1.00  0.00    -0.346 N 
ATOM     31  H72 UNL     1     -19.075  -4.559  23.588  1.00  0.00     0.172 HD
ATOM     32  H71 UNL     1     -17.316  -4.932  23.436  1.00  0.00     0.172 HD
ENDBRANCH  29  30
ENDBRANCH  28  29
ENDBRANCH  19  20
ENDBRANCH   1  19
TORSDOF 8
ENDMDL
