MODEL 1
REMARK VINA RESULT: -7.931345065      0.000      0.000
REMARK  7 active torsions:
REMARK  status: ('A' for Active; 'I' for Inactive)
REMARK    1  A    between atoms: C2_2  and  C3_3 
REMARK    2  A    between atoms: C2_2  and  C28_34 
REMARK    3  A    between atoms: C4_4  and  C5_5 
REMARK    4  A    between atoms: C6_6  and  C7_7 
REMARK    5  A    between atoms: C10_10  and  C11_11 
REMARK    6  A    between atoms: C11_11  and  C12_12 
REMARK    7  A    between atoms: C19_21  and  O1_22 
ROOT
HETATM    1  C7  UNL     1      -3.362   2.679  20.418  1.00  0.00    -0.018 A 
HETATM    2  C8  UNL     1      -4.750   2.742  20.314  1.00  0.00    -0.038 A 
HETATM    3  C9  UNL     1      -5.380   4.019  19.929  1.00  0.00     0.050 C 
HETATM    4  C10 UNL     1      -5.556   1.684  20.551  1.00  0.00     0.007 A 
HETATM    5  C19 UNL     1      -4.950   0.499  20.910  1.00  0.00     0.086 A 
HETATM    6  C20 UNL     1      -3.537   0.395  21.018  1.00  0.00    -0.000 A 
HETATM    7  C21 UNL     1      -3.125  -0.777  21.348  1.00  0.00     0.027 C 
HETATM    8  C22 UNL     1      -2.709   1.525  20.755  1.00  0.00    -0.009 A 
HETATM    9  C23 UNL     1      -1.477   1.285  20.409  1.00  0.00    -0.041 C 
HETATM   10  C24 UNL     1      -0.590   2.194  19.543  1.00  0.00     0.139 C 
HETATM   11  C25 UNL     1       0.131   1.109  18.700  1.00  0.00     0.223 C 
HETATM   12  O2  UNL     1       0.606   1.287  17.586  1.00  0.00    -0.273 OA
HETATM   13  N2  UNL     1       0.117  -0.076  19.474  1.00  0.00    -0.352 N 
HETATM   14  C26 UNL     1       0.530  -1.396  19.095  1.00  0.00     0.152 C 
HETATM   15  C27 UNL     1      -0.421   0.300  20.799  1.00  0.00     0.161 C 
ENDROOT
BRANCH   4  16
HETATM   16  C11 UNL     1      -7.006   1.766  20.437  1.00  0.00     0.044 C 
BRANCH  16  17
HETATM   17  C12 UNL     1      -7.650   1.661  19.302  1.00  0.00     0.040 A 
HETATM   18  N1  UNL     1      -7.523   0.702  18.349  1.00  0.00    -0.356 N 
HETATM   19  C13 UNL     1      -8.374   0.977  17.349  1.00  0.00     0.029 A 
ATOM     20  H1  UNL     1      -6.887  -0.095  18.387  1.00  0.00     0.166 HD
HETATM   21  C14 UNL     1      -8.492   0.215  16.250  1.00  0.00     0.043 C 
HETATM   22  C15 UNL     1      -9.081   2.125  17.623  1.00  0.00    -0.028 A 
HETATM   23  C16 UNL     1     -10.110   2.729  16.738  1.00  0.00     0.051 C 
HETATM   24  C17 UNL     1      -8.616   2.543  18.852  1.00  0.00    -0.027 A 
HETATM   25  C18 UNL     1      -9.123   3.767  19.530  1.00  0.00     0.051 C 
ENDBRANCH  16  17
ENDBRANCH   4  16
BRANCH   5  26
HETATM   26  O1  UNL     1      -5.790  -0.566  21.155  1.00  0.00    -0.359 OA
ATOM     27  H1  UNL     1      -5.389  -1.427  21.156  1.00  0.00     0.217 HD
ENDBRANCH   5  26
BRANCH   1  28
HETATM   28  C6  UNL     1      -2.740   4.009  20.347  1.00  0.00     0.013 C 
HETATM   29  C5  UNL     1      -2.214   4.734  21.257  1.00  0.00     0.001 C 
BRANCH  29  30
HETATM   30  C4  UNL     1      -1.644   6.063  20.899  1.00  0.00     0.001 C 
HETATM   31  C3  UNL     1      -2.376   6.978  20.363  1.00  0.00     0.016 C 
BRANCH  31  32
HETATM   32  C2  UNL     1      -2.008   8.286  19.962  1.00  0.00     0.019 C 
HETATM   33  C1  UNL     1      -0.688   8.528  19.754  1.00  0.00     0.028 C 
BRANCH  32  34
HETATM   34  C28 UNL     1      -2.854   9.433  19.736  1.00  0.00     0.264 C 
HETATM   35  N3  UNL     1      -4.236   9.387  19.870  1.00  0.00    -0.057 NA
HETATM   36  O3  UNL     1      -2.321  10.544  19.398  1.00  0.00    -0.271 OA
ENDBRANCH  32  34
ENDBRANCH  31  32
ENDBRANCH  29  30
ENDBRANCH   1  28
TORSDOF 7
ENDMDL
MODEL 2
REMARK VINA RESULT: -7.902744390      0.991      1.138
REMARK  7 active torsions:
REMARK  status: ('A' for Active; 'I' for Inactive)
REMARK    1  A    between atoms: C2_2  and  C3_3 
REMARK    2  A    between atoms: C2_2  and  C28_34 
REMARK    3  A    between atoms: C4_4  and  C5_5 
REMARK    4  A    between atoms: C6_6  and  C7_7 
REMARK    5  A    between atoms: C10_10  and  C11_11 
REMARK    6  A    between atoms: C11_11  and  C12_12 
REMARK    7  A    between atoms: C19_21  and  O1_22 
ROOT
HETATM    1  C7  UNL     1      -3.929   2.614  20.506  1.00  0.00    -0.018 A 
HETATM    2  C8  UNL     1      -5.309   2.517  20.341  1.00  0.00    -0.038 A 
HETATM    3  C9  UNL     1      -6.063   3.713  19.919  1.00  0.00     0.050 C 
HETATM    4  C10 UNL     1      -5.997   1.374  20.549  1.00  0.00     0.007 A 
HETATM    5  C19 UNL     1      -5.276   0.267  20.942  1.00  0.00     0.086 A 
HETATM    6  C20 UNL     1      -3.867   0.327  21.114  1.00  0.00    -0.000 A 
HETATM    7  C21 UNL     1      -3.338  -0.789  21.471  1.00  0.00     0.027 C 
HETATM    8  C22 UNL     1      -3.164   1.544  20.880  1.00  0.00    -0.009 A 
HETATM    9  C23 UNL     1      -1.898   1.446  20.591  1.00  0.00    -0.041 C 
HETATM   10  C24 UNL     1      -1.083   2.450  19.759  1.00  0.00     0.139 C 
HETATM   11  C25 UNL     1      -0.205   1.453  18.956  1.00  0.00     0.223 C 
HETATM   12  O2  UNL     1       0.295   1.683  17.863  1.00  0.00    -0.273 OA
HETATM   13  N2  UNL     1      -0.118   0.277  19.737  1.00  0.00    -0.352 N 
HETATM   14  C26 UNL     1       0.461  -0.988  19.386  1.00  0.00     0.152 C 
HETATM   15  C27 UNL     1      -0.754   0.591  21.034  1.00  0.00     0.161 C 
ENDROOT
BRANCH   4  16
HETATM   16  C11 UNL     1      -7.441   1.289  20.370  1.00  0.00     0.044 C 
BRANCH  16  17
HETATM   17  C12 UNL     1      -8.022   1.214  19.199  1.00  0.00     0.040 A 
HETATM   18  N1  UNL     1      -7.713   0.401  18.157  1.00  0.00    -0.356 N 
HETATM   19  C13 UNL     1      -8.564   0.653  17.150  1.00  0.00     0.029 A 
ATOM     20  H1  UNL     1      -6.960  -0.286  18.142  1.00  0.00     0.166 HD
HETATM   21  C14 UNL     1      -8.523   0.012  15.971  1.00  0.00     0.043 C 
HETATM   22  C15 UNL     1      -9.453   1.640  17.510  1.00  0.00    -0.028 A 
HETATM   23  C16 UNL     1     -10.535   2.173  16.644  1.00  0.00     0.051 C 
HETATM   24  C17 UNL     1      -9.101   1.983  18.798  1.00  0.00    -0.027 A 
HETATM   25  C18 UNL     1      -9.818   3.028  19.576  1.00  0.00     0.051 C 
ENDBRANCH  16  17
ENDBRANCH   4  16
BRANCH   5  26
HETATM   26  O1  UNL     1      -5.999  -0.887  21.157  1.00  0.00    -0.359 OA
ATOM     27  H1  UNL     1      -6.729  -0.819  21.761  1.00  0.00     0.217 HD
ENDBRANCH   5  26
BRANCH   1  28
HETATM   28  C6  UNL     1      -3.461   4.007  20.454  1.00  0.00     0.013 C 
HETATM   29  C5  UNL     1      -3.238   4.849  21.387  1.00  0.00     0.001 C 
BRANCH  29  30
HETATM   30  C4  UNL     1      -2.756   6.216  21.045  1.00  0.00     0.001 C 
HETATM   31  C3  UNL     1      -3.431   6.981  20.257  1.00  0.00     0.016 C 
BRANCH  31  32
HETATM   32  C2  UNL     1      -3.129   8.296  19.826  1.00  0.00     0.019 C 
HETATM   33  C1  UNL     1      -4.067   9.254  20.038  1.00  0.00     0.028 C 
BRANCH  32  34
HETATM   34  C28 UNL     1      -1.937   8.781  19.174  1.00  0.00     0.264 C 
HETATM   35  N3  UNL     1      -1.253   9.913  19.600  1.00  0.00    -0.057 NA
HETATM   36  O3  UNL     1      -1.480   8.152  18.160  1.00  0.00    -0.271 OA
ENDBRANCH  32  34
ENDBRANCH  31  32
ENDBRANCH  29  30
ENDBRANCH   1  28
TORSDOF 7
ENDMDL
MODEL 3
REMARK VINA RESULT: -7.656504566      4.358      8.661
REMARK  7 active torsions:
REMARK  status: ('A' for Active; 'I' for Inactive)
REMARK    1  A    between atoms: C2_2  and  C3_3 
REMARK    2  A    between atoms: C2_2  and  C28_34 
REMARK    3  A    between atoms: C4_4  and  C5_5 
REMARK    4  A    between atoms: C6_6  and  C7_7 
REMARK    5  A    between atoms: C10_10  and  C11_11 
REMARK    6  A    between atoms: C11_11  and  C12_12 
REMARK    7  A    between atoms: C19_21  and  O1_22 
ROOT
HETATM    1  C7  UNL     1      -2.603   3.010  22.313  1.00  0.00    -0.018 A 
HETATM    2  C8  UNL     1      -2.597   2.723  23.676  1.00  0.00    -0.038 A 
HETATM    3  C9  UNL     1      -1.693   1.671  24.180  1.00  0.00     0.050 C 
HETATM    4  C10 UNL     1      -3.384   3.363  24.568  1.00  0.00     0.007 A 
HETATM    5  C19 UNL     1      -4.222   4.342  24.079  1.00  0.00     0.086 A 
HETATM    6  C20 UNL     1      -4.249   4.668  22.696  1.00  0.00    -0.000 A 
HETATM    7  C21 UNL     1      -5.072   5.609  22.399  1.00  0.00     0.027 C 
HETATM    8  C22 UNL     1      -3.403   3.982  21.777  1.00  0.00    -0.009 A 
HETATM    9  C23 UNL     1      -3.117   4.599  20.667  1.00  0.00    -0.041 C 
HETATM   10  C24 UNL     1      -1.848   4.395  19.824  1.00  0.00     0.139 C 
HETATM   11  C25 UNL     1      -1.582   5.868  19.413  1.00  0.00     0.223 C 
HETATM   12  O2  UNL     1      -0.487   6.326  19.115  1.00  0.00    -0.273 OA
HETATM   13  N2  UNL     1      -2.833   6.529  19.458  1.00  0.00    -0.352 N 
HETATM   14  C26 UNL     1      -3.110   7.927  19.301  1.00  0.00     0.152 C 
HETATM   15  C27 UNL     1      -3.847   5.482  19.706  1.00  0.00     0.161 C 
ENDROOT
BRANCH   4  16
HETATM   16  C11 UNL     1      -3.365   3.051  25.990  1.00  0.00     0.044 C 
BRANCH  16  17
HETATM   17  C12 UNL     1      -2.605   3.671  26.858  1.00  0.00     0.040 A 
HETATM   18  N1  UNL     1      -2.484   5.008  27.064  1.00  0.00    -0.356 N 
HETATM   19  C13 UNL     1      -1.596   5.209  28.051  1.00  0.00     0.029 A 
ATOM     20  H1  UNL     1      -2.984   5.737  26.555  1.00  0.00     0.166 HD
HETATM   21  C14 UNL     1      -1.251   6.428  28.495  1.00  0.00     0.043 C 
HETATM   22  C15 UNL     1      -1.114   4.007  28.514  1.00  0.00    -0.028 A 
HETATM   23  C16 UNL     1      -0.115   3.848  29.602  1.00  0.00     0.051 C 
HETATM   24  C17 UNL     1      -1.755   3.051  27.757  1.00  0.00    -0.027 A 
HETATM   25  C18 UNL     1      -1.521   1.593  27.935  1.00  0.00     0.051 C 
ENDBRANCH  16  17
ENDBRANCH   4  16
BRANCH   5  26
HETATM   26  O1  UNL     1      -5.023   4.977  25.004  1.00  0.00    -0.359 OA
ATOM     27  H1  UNL     1      -4.604   5.231  25.818  1.00  0.00     0.217 HD
ENDBRANCH   5  26
BRANCH   1  28
HETATM   28  C6  UNL     1      -1.843   2.022  21.534  1.00  0.00     0.013 C 
HETATM   29  C5  UNL     1      -2.232   1.001  20.874  1.00  0.00     0.001 C 
BRANCH  29  30
HETATM   30  C4  UNL     1      -1.230   0.159  20.162  1.00  0.00     0.001 C 
HETATM   31  C3  UNL     1      -0.298   0.693  19.451  1.00  0.00     0.016 C 
BRANCH  31  32
HETATM   32  C2  UNL     1       0.729   0.055  18.713  1.00  0.00     0.019 C 
HETATM   33  C1  UNL     1       2.006   0.225  19.143  1.00  0.00     0.028 C 
BRANCH  32  34
HETATM   34  C28 UNL     1       0.616  -0.772  17.536  1.00  0.00     0.264 C 
HETATM   35  N3  UNL     1       1.022  -2.100  17.507  1.00  0.00    -0.057 NA
HETATM   36  O3  UNL     1       0.123  -0.273  16.468  1.00  0.00    -0.271 OA
ENDBRANCH  32  34
ENDBRANCH  31  32
ENDBRANCH  29  30
ENDBRANCH   1  28
TORSDOF 7
ENDMDL
MODEL 4
REMARK VINA RESULT: -7.637669223      4.372      8.592
REMARK  7 active torsions:
REMARK  status: ('A' for Active; 'I' for Inactive)
REMARK    1  A    between atoms: C2_2  and  C3_3 
REMARK    2  A    between atoms: C2_2  and  C28_34 
REMARK    3  A    between atoms: C4_4  and  C5_5 
REMARK    4  A    between atoms: C6_6  and  C7_7 
REMARK    5  A    between atoms: C10_10  and  C11_11 
REMARK    6  A    between atoms: C11_11  and  C12_12 
REMARK    7  A    between atoms: C19_21  and  O1_22 
ROOT
HETATM    1  C7  UNL     1      -2.549   3.044  22.444  1.00  0.00    -0.018 A 
HETATM    2  C8  UNL     1      -2.592   2.832  23.820  1.00  0.00    -0.038 A 
HETATM    3  C9  UNL     1      -1.694   1.825  24.416  1.00  0.00     0.050 C 
HETATM    4  C10 UNL     1      -3.422   3.508  24.644  1.00  0.00     0.007 A 
HETATM    5  C19 UNL     1      -4.254   4.445  24.070  1.00  0.00     0.086 A 
HETATM    6  C20 UNL     1      -4.232   4.694  22.672  1.00  0.00    -0.000 A 
HETATM    7  C21 UNL     1      -5.056   5.604  22.292  1.00  0.00     0.027 C 
HETATM    8  C22 UNL     1      -3.341   3.972  21.825  1.00  0.00    -0.009 A 
HETATM    9  C23 UNL     1      -3.021   4.531  20.694  1.00  0.00    -0.041 C 
HETATM   10  C24 UNL     1      -1.717   4.301  19.912  1.00  0.00     0.139 C 
HETATM   11  C25 UNL     1      -1.456   5.754  19.430  1.00  0.00     0.223 C 
HETATM   12  O2  UNL     1      -0.357   6.212  19.149  1.00  0.00    -0.273 OA
HETATM   13  N2  UNL     1      -2.717   6.396  19.391  1.00  0.00    -0.352 N 
HETATM   14  C26 UNL     1      -3.007   7.779  19.146  1.00  0.00     0.152 C 
HETATM   15  C27 UNL     1      -3.725   5.348  19.658  1.00  0.00     0.161 C 
ENDROOT
BRANCH   4  16
HETATM   16  C11 UNL     1      -3.454   3.275  26.082  1.00  0.00     0.044 C 
BRANCH  16  17
HETATM   17  C12 UNL     1      -3.204   4.203  26.971  1.00  0.00     0.040 A 
HETATM   18  N1  UNL     1      -4.090   4.944  27.685  1.00  0.00    -0.356 N 
HETATM   19  C13 UNL     1      -3.405   5.778  28.484  1.00  0.00     0.029 A 
ATOM     20  H1  UNL     1      -5.106   4.878  27.625  1.00  0.00     0.166 HD
HETATM   21  C14 UNL     1      -3.993   6.647  29.320  1.00  0.00     0.043 C 
HETATM   22  C15 UNL     1      -2.052   5.602  28.311  1.00  0.00    -0.028 A 
HETATM   23  C16 UNL     1      -0.993   6.356  29.031  1.00  0.00     0.051 C 
HETATM   24  C17 UNL     1      -1.940   4.612  27.360  1.00  0.00    -0.027 A 
HETATM   25  C18 UNL     1      -0.627   4.108  26.873  1.00  0.00     0.051 C 
ENDBRANCH  16  17
ENDBRANCH   4  16
BRANCH   5  26
HETATM   26  O1  UNL     1      -5.098   5.118  24.927  1.00  0.00    -0.359 OA
ATOM     27  H1  UNL     1      -5.979   5.277  24.610  1.00  0.00     0.217 HD
ENDBRANCH   5  26
BRANCH   1  28
HETATM   28  C6  UNL     1      -1.745   2.026  21.751  1.00  0.00     0.013 C 
HETATM   29  C5  UNL     1      -2.098   1.003  21.074  1.00  0.00     0.001 C 
BRANCH  29  30
HETATM   30  C4  UNL     1      -1.056   0.127  20.468  1.00  0.00     0.001 C 
HETATM   31  C3  UNL     1      -0.437   0.477  19.393  1.00  0.00     0.016 C 
BRANCH  31  32
HETATM   32  C2  UNL     1       0.571  -0.221  18.684  1.00  0.00     0.019 C 
HETATM   33  C1  UNL     1       0.272  -0.650  17.431  1.00  0.00     0.028 C 
BRANCH  32  34
HETATM   34  C28 UNL     1       1.909  -0.554  19.111  1.00  0.00     0.264 C 
HETATM   35  N3  UNL     1       2.605  -1.651  18.620  1.00  0.00    -0.057 NA
HETATM   36  O3  UNL     1       2.489   0.185  19.977  1.00  0.00    -0.271 OA
ENDBRANCH  32  34
ENDBRANCH  31  32
ENDBRANCH  29  30
ENDBRANCH   1  28
TORSDOF 7
ENDMDL
MODEL 5
REMARK VINA RESULT: -7.629806505      5.955      7.486
REMARK  7 active torsions:
REMARK  status: ('A' for Active; 'I' for Inactive)
REMARK    1  A    between atoms: C2_2  and  C3_3 
REMARK    2  A    between atoms: C2_2  and  C28_34 
REMARK    3  A    between atoms: C4_4  and  C5_5 
REMARK    4  A    between atoms: C6_6  and  C7_7 
REMARK    5  A    between atoms: C10_10  and  C11_11 
REMARK    6  A    between atoms: C11_11  and  C12_12 
REMARK    7  A    between atoms: C19_21  and  O1_22 
ROOT
HETATM    1  C7  UNL     1      -0.087   2.399  25.268  1.00  0.00    -0.018 A 
HETATM    2  C8  UNL     1      -0.271   3.095  24.075  1.00  0.00    -0.038 A 
HETATM    3  C9  UNL     1      -0.434   4.560  24.121  1.00  0.00     0.050 C 
HETATM    4  C10 UNL     1      -0.308   2.491  22.868  1.00  0.00     0.007 A 
HETATM    5  C19 UNL     1      -0.155   1.121  22.844  1.00  0.00     0.086 A 
HETATM    6  C20 UNL     1       0.042   0.379  24.040  1.00  0.00    -0.000 A 
HETATM    7  C21 UNL     1       0.182  -0.885  23.851  1.00  0.00     0.027 C 
HETATM    8  C22 UNL     1       0.086   1.042  25.300  1.00  0.00    -0.009 A 
HETATM    9  C23 UNL     1       0.714   0.434  26.264  1.00  0.00    -0.041 C 
HETATM   10  C24 UNL     1       1.399   1.111  27.463  1.00  0.00     0.139 C 
HETATM   11  C25 UNL     1       2.661   0.214  27.568  1.00  0.00     0.223 C 
HETATM   12  O2  UNL     1       3.730   0.561  28.052  1.00  0.00    -0.273 OA
HETATM   13  N2  UNL     1       2.312  -1.037  27.006  1.00  0.00    -0.352 N 
HETATM   14  C26 UNL     1       3.158  -2.163  26.737  1.00  0.00     0.152 C 
HETATM   15  C27 UNL     1       0.860  -0.979  26.733  1.00  0.00     0.161 C 
ENDROOT
BRANCH   4  16
HETATM   16  C11 UNL     1      -0.500   3.233  21.629  1.00  0.00     0.044 C 
BRANCH  16  17
HETATM   17  C12 UNL     1      -1.677   3.526  21.136  1.00  0.00     0.040 A 
HETATM   18  N1  UNL     1      -2.744   2.704  20.960  1.00  0.00    -0.356 N 
HETATM   19  C13 UNL     1      -3.749   3.415  20.424  1.00  0.00     0.029 A 
ATOM     20  H1  UNL     1      -2.776   1.712  21.195  1.00  0.00     0.166 HD
HETATM   21  C14 UNL     1      -4.947   2.889  20.127  1.00  0.00     0.043 C 
HETATM   22  C15 UNL     1      -3.363   4.722  20.237  1.00  0.00    -0.028 A 
HETATM   23  C16 UNL     1      -4.220   5.793  19.665  1.00  0.00     0.051 C 
HETATM   24  C17 UNL     1      -2.062   4.777  20.687  1.00  0.00    -0.027 A 
HETATM   25  C18 UNL     1      -1.255   6.027  20.665  1.00  0.00     0.051 C 
ENDBRANCH  16  17
ENDBRANCH   4  16
BRANCH   5  26
HETATM   26  O1  UNL     1      -0.204   0.523  21.603  1.00  0.00    -0.359 OA
ATOM     27  H1  UNL     1      -0.740  -0.259  21.534  1.00  0.00     0.217 HD
ENDBRANCH   5  26
BRANCH   1  28
HETATM   28  C6  UNL     1      -0.324   3.246  26.446  1.00  0.00     0.013 C 
HETATM   29  C5  UNL     1      -1.362   3.391  27.175  1.00  0.00     0.001 C 
BRANCH  29  30
HETATM   30  C4  UNL     1      -1.324   4.332  28.330  1.00  0.00     0.001 C 
HETATM   31  C3  UNL     1      -1.463   5.601  28.159  1.00  0.00     0.016 C 
BRANCH  31  32
HETATM   32  C2  UNL     1      -1.454   6.633  29.130  1.00  0.00     0.019 C 
HETATM   33  C1  UNL     1      -0.291   7.306  29.316  1.00  0.00     0.028 C 
BRANCH  32  34
HETATM   34  C28 UNL     1      -2.532   7.086  29.976  1.00  0.00     0.264 C 
HETATM   35  N3  UNL     1      -3.825   7.282  29.508  1.00  0.00    -0.057 NA
HETATM   36  O3  UNL     1      -2.299   7.320  31.210  1.00  0.00    -0.271 OA
ENDBRANCH  32  34
ENDBRANCH  31  32
ENDBRANCH  29  30
ENDBRANCH   1  28
TORSDOF 7
ENDMDL
