MODEL 1
REMARK VINA RESULT: -7.804928525      0.000      0.000
REMARK  7 active torsions:
REMARK  status: ('A' for Active; 'I' for Inactive)
REMARK    1  A    between atoms: C3_3  and  N1_4 
REMARK    2  A    between atoms: C9_11  and  C10_12 
REMARK    3  A    between atoms: C12_15  and  N3_16 
REMARK       I    between atoms: N3_16  and  C13_18 
REMARK    4  A    between atoms: C13_18  and  C14_20 
REMARK       I    between atoms: C14_20  and  N4_22 
REMARK    5  A    between atoms: N4_22  and  C15_24 
REMARK    6  A    between atoms: C24_33  and  C25_34 
REMARK    7  A    between atoms: C25_34  and  N5_35 
ROOT
HETATM    1  C1  UNL     1      -1.256   4.050  25.770  1.00  0.00     0.013 C 
HETATM    2  C2  UNL     1      -1.172   4.274  24.593  1.00  0.00    -0.089 C 
HETATM    3  C3  UNL     1      -1.048   4.563  23.154  1.00  0.00     0.333 C 
ENDROOT
BRANCH   3   4
HETATM    4  N1  UNL     1      -2.285   4.537  22.445  1.00  0.00    -0.018 N 
HETATM    5  C4  UNL     1      -3.351   5.318  23.043  1.00  0.00     0.269 C 
HETATM    6  C5  UNL     1      -4.314   5.461  21.913  1.00  0.00     0.268 C 
HETATM    7  N2  UNL     1      -3.604   5.105  20.679  1.00  0.00    -0.032 N 
HETATM    8  C6  UNL     1      -3.913   6.217  19.757  1.00  0.00     0.276 C 
HETATM    9  C7  UNL     1      -4.149   3.964  20.020  1.00  0.00     0.241 C 
HETATM   10  C24 UNL     1      -2.245   5.048  21.090  1.00  0.00     0.320 C 
HETATM   11  C8  UNL     1      -3.890   2.621  20.467  1.00  0.00     0.048 C 
HETATM   12  C9  UNL     1      -2.655   2.379  21.271  1.00  0.00     0.059 C 
HETATM   13  C11 UNL     1      -2.763   3.168  22.517  1.00  0.00     0.260 C 
HETATM   14  C12 UNL     1      -1.387   2.716  20.579  1.00  0.00     0.106 C 
HETATM   15  C23 UNL     1      -1.435   4.133  20.153  1.00  0.00     0.099 C 
BRANCH  12  16
HETATM   16  C10 UNL     1      -2.623   0.916  21.620  1.00  0.00     0.244 C 
HETATM   17  O1  UNL     1      -3.028   0.139  20.799  1.00  0.00    -0.306 OA
ENDBRANCH  12  16
BRANCH  14  18
HETATM   18  N3  UNL     1      -1.110   1.859  19.449  1.00  0.00    -0.347 N 
HETATM   19  C13 UNL     1       0.156   1.251  19.231  1.00  0.00     0.309 C 
HETATM   20  O2  UNL     1       1.059   1.481  20.069  1.00  0.00    -0.262 OA
ATOM     21  H3  UNL     1      -1.858   1.682  18.777  1.00  0.00     0.163 HD
BRANCH  19  22
HETATM   22  C14 UNL     1       0.446   0.393  18.107  1.00  0.00     0.309 C 
HETATM   23  O3  UNL     1       0.993   0.895  17.097  1.00  0.00    -0.262 OA
HETATM   24  N4  UNL     1       0.131  -0.960  18.131  1.00  0.00    -0.348 N 
ATOM     25  H4  UNL     1      -0.314  -1.317  18.976  1.00  0.00     0.163 HD
BRANCH  24  26
HETATM   26  C15 UNL     1       0.376  -1.904  17.069  1.00  0.00     0.092 C 
HETATM   27  C16 UNL     1      -0.584  -1.631  15.946  1.00  0.00     0.026 C 
HETATM   28  C17 UNL     1      -0.279  -2.526  14.772  1.00  0.00     0.002 C 
HETATM   29  C18 UNL     1      -0.145  -3.976  15.157  1.00  0.00     0.001 C 
HETATM   30  C19 UNL     1       0.830  -4.162  16.296  1.00  0.00     0.011 C 
HETATM   31  C20 UNL     1       0.331  -3.325  17.483  1.00  0.00    -0.027 C 
HETATM   32  C21 UNL     1       1.238  -3.626  18.634  1.00  0.00     0.017 C 
HETATM   33  C22 UNL     1      -1.042  -3.831  17.811  1.00  0.00     0.017 C 
ENDBRANCH  24  26
ENDBRANCH  19  22
ENDBRANCH  14  18
BRANCH  10  34
HETATM   34  C25 UNL     1      -1.518   6.352  20.972  1.00  0.00     0.300 C 
BRANCH  34  35
HETATM   35  N5  UNL     1      -0.364   6.439  20.182  1.00  0.00    -0.075 N 
ATOM     36  H53 UNL     1      -0.020   7.399  20.217  1.00  0.00     0.274 HD
ATOM     37  H52 UNL     1       0.388   5.936  20.652  1.00  0.00     0.274 HD
ATOM     38  H51 UNL     1      -0.393   6.141  19.207  1.00  0.00     0.274 HD
ENDBRANCH  34  35
ENDBRANCH  10  34
ENDBRANCH   3   4
TORSDOF 7
ENDMDL
MODEL 2
REMARK VINA RESULT: -6.833224802      1.838      3.679
REMARK  7 active torsions:
REMARK  status: ('A' for Active; 'I' for Inactive)
REMARK    1  A    between atoms: C3_3  and  N1_4 
REMARK    2  A    between atoms: C9_11  and  C10_12 
REMARK    3  A    between atoms: C12_15  and  N3_16 
REMARK       I    between atoms: N3_16  and  C13_18 
REMARK    4  A    between atoms: C13_18  and  C14_20 
REMARK       I    between atoms: C14_20  and  N4_22 
REMARK    5  A    between atoms: N4_22  and  C15_24 
REMARK    6  A    between atoms: C24_33  and  C25_34 
REMARK    7  A    between atoms: C25_34  and  N5_35 
ROOT
HETATM    1  C1  UNL     1      -3.138   7.928  19.651  1.00  0.00     0.013 C 
HETATM    2  C2  UNL     1      -3.467   6.774  19.722  1.00  0.00    -0.089 C 
HETATM    3  C3  UNL     1      -3.880   5.362  19.784  1.00  0.00     0.333 C 
ENDROOT
BRANCH   3   4
HETATM    4  N1  UNL     1      -4.155   4.893  21.102  1.00  0.00    -0.018 N 
HETATM    5  C4  UNL     1      -5.103   5.693  21.854  1.00  0.00     0.269 C 
HETATM    6  C5  UNL     1      -5.511   4.763  22.946  1.00  0.00     0.268 C 
HETATM    7  N2  UNL     1      -5.089   3.413  22.558  1.00  0.00    -0.032 N 
HETATM    8  C6  UNL     1      -6.294   2.587  22.776  1.00  0.00     0.276 C 
HETATM    9  C7  UNL     1      -4.129   2.841  23.442  1.00  0.00     0.241 C 
HETATM   10  C24 UNL     1      -4.726   3.564  21.192  1.00  0.00     0.320 C 
HETATM   11  C8  UNL     1      -2.737   3.204  23.405  1.00  0.00     0.048 C 
HETATM   12  C9  UNL     1      -2.195   3.762  22.130  1.00  0.00     0.059 C 
HETATM   13  C11 UNL     1      -2.914   5.023  21.845  1.00  0.00     0.260 C 
HETATM   14  C12 UNL     1      -2.301   2.855  20.961  1.00  0.00     0.106 C 
HETATM   15  C23 UNL     1      -3.720   2.476  20.776  1.00  0.00     0.099 C 
BRANCH  12  16
HETATM   16  C10 UNL     1      -0.739   4.068  22.354  1.00  0.00     0.244 C 
HETATM   17  O1  UNL     1      -0.086   4.396  21.401  1.00  0.00    -0.306 OA
ENDBRANCH  12  16
BRANCH  14  18
HETATM   18  N3  UNL     1      -1.474   1.676  21.078  1.00  0.00    -0.347 N 
HETATM   19  C13 UNL     1      -0.529   1.292  20.089  1.00  0.00     0.309 C 
HETATM   20  O2  UNL     1      -0.422   2.025  19.077  1.00  0.00    -0.262 OA
ATOM     21  H3  UNL     1      -1.573   1.093  21.909  1.00  0.00     0.163 HD
BRANCH  19  22
HETATM   22  C14 UNL     1       0.303   0.118  20.193  1.00  0.00     0.309 C 
HETATM   23  O3  UNL     1       0.973  -0.050  21.239  1.00  0.00    -0.262 OA
HETATM   24  N4  UNL     1       0.369  -0.814  19.165  1.00  0.00    -0.348 N 
ATOM     25  H4  UNL     1      -0.195  -0.629  18.335  1.00  0.00     0.163 HD
BRANCH  24  26
HETATM   26  C15 UNL     1       1.163  -2.018  19.163  1.00  0.00     0.092 C 
HETATM   27  C16 UNL     1       2.578  -1.666  18.798  1.00  0.00     0.026 C 
HETATM   28  C17 UNL     1       3.459  -2.883  18.900  1.00  0.00     0.002 C 
HETATM   29  C18 UNL     1       2.895  -4.080  18.180  1.00  0.00     0.001 C 
HETATM   30  C19 UNL     1       1.470  -4.360  18.598  1.00  0.00     0.011 C 
HETATM   31  C20 UNL     1       0.639  -3.103  18.303  1.00  0.00    -0.027 C 
HETATM   32  C21 UNL     1      -0.785  -3.447  18.604  1.00  0.00     0.017 C 
HETATM   33  C22 UNL     1       0.768  -2.843  16.832  1.00  0.00     0.017 C 
ENDBRANCH  24  26
ENDBRANCH  19  22
ENDBRANCH  14  18
BRANCH  10  34
HETATM   34  C25 UNL     1      -5.855   3.342  20.232  1.00  0.00     0.300 C 
BRANCH  34  35
HETATM   35  N5  UNL     1      -5.866   2.201  19.420  1.00  0.00    -0.075 N 
ATOM     36  H53 UNL     1      -4.964   1.732  19.510  1.00  0.00     0.274 HD
ATOM     37  H52 UNL     1      -6.495   1.514  19.836  1.00  0.00     0.274 HD
ATOM     38  H51 UNL     1      -6.089   2.285  18.429  1.00  0.00     0.274 HD
ENDBRANCH  34  35
ENDBRANCH  10  34
ENDBRANCH   3   4
TORSDOF 7
ENDMDL
MODEL 3
REMARK VINA RESULT: -6.735555186      2.194      4.030
REMARK  7 active torsions:
REMARK  status: ('A' for Active; 'I' for Inactive)
REMARK    1  A    between atoms: C3_3  and  N1_4 
REMARK    2  A    between atoms: C9_11  and  C10_12 
REMARK    3  A    between atoms: C12_15  and  N3_16 
REMARK       I    between atoms: N3_16  and  C13_18 
REMARK    4  A    between atoms: C13_18  and  C14_20 
REMARK       I    between atoms: C14_20  and  N4_22 
REMARK    5  A    between atoms: N4_22  and  C15_24 
REMARK    6  A    between atoms: C24_33  and  C25_34 
REMARK    7  A    between atoms: C25_34  and  N5_35 
ROOT
HETATM    1  C1  UNL     1      -1.911   8.058  19.800  1.00  0.00     0.013 C 
HETATM    2  C2  UNL     1      -2.442   6.980  19.761  1.00  0.00    -0.089 C 
HETATM    3  C3  UNL     1      -3.098   5.664  19.688  1.00  0.00     0.333 C 
ENDROOT
BRANCH   3   4
HETATM    4  N1  UNL     1      -3.625   5.206  20.931  1.00  0.00    -0.018 N 
HETATM    5  C4  UNL     1      -4.417   6.179  21.659  1.00  0.00     0.269 C 
HETATM    6  C5  UNL     1      -5.163   5.325  22.627  1.00  0.00     0.268 C 
HETATM    7  N2  UNL     1      -5.056   3.936  22.165  1.00  0.00    -0.032 N 
HETATM    8  C6  UNL     1      -6.447   3.441  22.202  1.00  0.00     0.276 C 
HETATM    9  C7  UNL     1      -4.374   3.084  23.081  1.00  0.00     0.241 C 
HETATM   10  C24 UNL     1      -4.520   4.069  20.855  1.00  0.00     0.320 C 
HETATM   11  C8  UNL     1      -2.940   3.074  23.201  1.00  0.00     0.048 C 
HETATM   12  C9  UNL     1      -2.139   3.545  22.032  1.00  0.00     0.059 C 
HETATM   13  C11 UNL     1      -2.480   4.964  21.791  1.00  0.00     0.260 C 
HETATM   14  C12 UNL     1      -2.342   2.768  20.785  1.00  0.00     0.106 C 
HETATM   15  C23 UNL     1      -3.781   2.782  20.441  1.00  0.00     0.099 C 
BRANCH  12  16
HETATM   16  C10 UNL     1      -0.687   3.449  22.412  1.00  0.00     0.244 C 
HETATM   17  O1  UNL     1       0.122   3.873  21.632  1.00  0.00    -0.306 OA
ENDBRANCH  12  16
BRANCH  14  18
HETATM   18  N3  UNL     1      -1.858   1.410  20.877  1.00  0.00    -0.347 N 
HETATM   19  C13 UNL     1      -0.839   0.893  20.031  1.00  0.00     0.309 C 
HETATM   20  O2  UNL     1      -0.350   1.668  19.175  1.00  0.00    -0.262 OA
ATOM     21  H3  UNL     1      -2.266   0.794  21.580  1.00  0.00     0.163 HD
BRANCH  19  22
HETATM   22  C14 UNL     1      -0.346  -0.460  20.111  1.00  0.00     0.309 C 
HETATM   23  O3  UNL     1      -1.164  -1.403  19.993  1.00  0.00    -0.262 OA
HETATM   24  N4  UNL     1       1.002  -0.728  20.314  1.00  0.00    -0.348 N 
ATOM     25  H4  UNL     1       1.625   0.075  20.404  1.00  0.00     0.163 HD
BRANCH  24  26
HETATM   26  C15 UNL     1       1.601  -2.036  20.408  1.00  0.00     0.092 C 
HETATM   27  C16 UNL     1       2.209  -2.194  21.773  1.00  0.00     0.026 C 
HETATM   28  C17 UNL     1       2.742  -3.593  21.946  1.00  0.00     0.002 C 
HETATM   29  C18 UNL     1       3.619  -4.034  20.804  1.00  0.00     0.001 C 
HETATM   30  C19 UNL     1       2.937  -3.835  19.470  1.00  0.00     0.011 C 
HETATM   31  C20 UNL     1       2.580  -2.347  19.342  1.00  0.00    -0.027 C 
HETATM   32  C21 UNL     1       2.026  -2.153  17.967  1.00  0.00     0.017 C 
HETATM   33  C22 UNL     1       3.871  -1.590  19.449  1.00  0.00     0.017 C 
ENDBRANCH  24  26
ENDBRANCH  19  22
ENDBRANCH  14  18
BRANCH  10  34
HETATM   34  C25 UNL     1      -5.556   4.204  19.782  1.00  0.00     0.300 C 
BRANCH  34  35
HETATM   35  N5  UNL     1      -5.917   3.089  19.016  1.00  0.00    -0.075 N 
ATOM     36  H53 UNL     1      -6.535   2.499  19.574  1.00  0.00     0.274 HD
ATOM     37  H52 UNL     1      -6.545   3.396  18.273  1.00  0.00     0.274 HD
ATOM     38  H51 UNL     1      -5.193   2.499  18.604  1.00  0.00     0.274 HD
ENDBRANCH  34  35
ENDBRANCH  10  34
ENDBRANCH   3   4
TORSDOF 7
ENDMDL
MODEL 4
REMARK VINA RESULT: -6.654692596      1.747      2.326
REMARK  7 active torsions:
REMARK  status: ('A' for Active; 'I' for Inactive)
REMARK    1  A    between atoms: C3_3  and  N1_4 
REMARK    2  A    between atoms: C9_11  and  C10_12 
REMARK    3  A    between atoms: C12_15  and  N3_16 
REMARK       I    between atoms: N3_16  and  C13_18 
REMARK    4  A    between atoms: C13_18  and  C14_20 
REMARK       I    between atoms: C14_20  and  N4_22 
REMARK    5  A    between atoms: N4_22  and  C15_24 
REMARK    6  A    between atoms: C24_33  and  C25_34 
REMARK    7  A    between atoms: C25_34  and  N5_35 
ROOT
HETATM    1  C1  UNL     1      -2.502   5.001  25.828  1.00  0.00     0.013 C 
HETATM    2  C2  UNL     1      -2.786   5.098  24.665  1.00  0.00    -0.089 C 
HETATM    3  C3  UNL     1      -3.126   5.241  23.239  1.00  0.00     0.333 C 
ENDROOT
BRANCH   3   4
HETATM    4  N1  UNL     1      -4.173   4.379  22.800  1.00  0.00    -0.018 N 
HETATM    5  C4  UNL     1      -5.470   4.634  23.398  1.00  0.00     0.269 C 
HETATM    6  C5  UNL     1      -6.396   3.928  22.467  1.00  0.00     0.268 C 
HETATM    7  N2  UNL     1      -5.654   3.648  21.233  1.00  0.00    -0.032 N 
HETATM    8  C6  UNL     1      -6.555   4.120  20.162  1.00  0.00     0.276 C 
HETATM    9  C7  UNL     1      -5.512   2.256  20.960  1.00  0.00     0.241 C 
HETATM   10  C24 UNL     1      -4.470   4.420  21.382  1.00  0.00     0.320 C 
HETATM   11  C8  UNL     1      -4.545   1.434  21.637  1.00  0.00     0.048 C 
HETATM   12  C9  UNL     1      -3.349   2.106  22.227  1.00  0.00     0.059 C 
HETATM   13  C11 UNL     1      -3.823   3.049  23.263  1.00  0.00     0.260 C 
HETATM   14  C12 UNL     1      -2.498   2.829  21.251  1.00  0.00     0.106 C 
HETATM   15  C23 UNL     1      -3.328   3.825  20.538  1.00  0.00     0.099 C 
BRANCH  12  16
HETATM   16  C10 UNL     1      -2.510   1.042  22.881  1.00  0.00     0.244 C 
HETATM   17  O1  UNL     1      -1.529   1.395  23.478  1.00  0.00    -0.306 OA
ENDBRANCH  12  16
BRANCH  14  18
HETATM   18  N3  UNL     1      -1.841   1.952  20.310  1.00  0.00    -0.347 N 
HETATM   19  C13 UNL     1      -0.428   1.893  20.163  1.00  0.00     0.309 C 
HETATM   20  O2  UNL     1       0.260   2.643  20.895  1.00  0.00    -0.262 OA
ATOM     21  H3  UNL     1      -2.417   1.348  19.723  1.00  0.00     0.163 HD
BRANCH  19  22
HETATM   22  C14 UNL     1       0.241   1.022  19.227  1.00  0.00     0.309 C 
HETATM   23  O3  UNL     1       0.588   1.491  18.117  1.00  0.00    -0.262 OA
HETATM   24  N4  UNL     1       0.501  -0.307  19.536  1.00  0.00    -0.348 N 
ATOM     25  H4  UNL     1       0.198  -0.638  20.452  1.00  0.00     0.163 HD
BRANCH  24  26
HETATM   26  C15 UNL     1       1.162  -1.261  18.680  1.00  0.00     0.092 C 
HETATM   27  C16 UNL     1       0.120  -2.050  17.938  1.00  0.00     0.026 C 
HETATM   28  C17 UNL     1       0.776  -2.977  16.949  1.00  0.00     0.002 C 
HETATM   29  C18 UNL     1       1.883  -3.798  17.556  1.00  0.00     0.001 C 
HETATM   30  C19 UNL     1       2.882  -2.931  18.288  1.00  0.00     0.011 C 
HETATM   31  C20 UNL     1       2.122  -2.152  19.371  1.00  0.00    -0.027 C 
HETATM   32  C21 UNL     1       3.146  -1.402  20.162  1.00  0.00     0.017 C 
HETATM   33  C22 UNL     1       1.484  -3.175  20.262  1.00  0.00     0.017 C 
ENDBRANCH  24  26
ENDBRANCH  19  22
ENDBRANCH  14  18
BRANCH  10  34
HETATM   34  C25 UNL     1      -4.578   5.813  20.842  1.00  0.00     0.300 C 
BRANCH  34  35
HETATM   35  N5  UNL     1      -3.742   6.222  19.795  1.00  0.00    -0.075 N 
ATOM     36  H53 UNL     1      -3.009   6.817  20.181  1.00  0.00     0.274 HD
ATOM     37  H52 UNL     1      -3.204   5.416  19.477  1.00  0.00     0.274 HD
ATOM     38  H51 UNL     1      -4.140   6.688  18.979  1.00  0.00     0.274 HD
ENDBRANCH  34  35
ENDBRANCH  10  34
ENDBRANCH   3   4
TORSDOF 7
ENDMDL
MODEL 5
REMARK VINA RESULT: -6.441843397      2.529      3.987
REMARK  7 active torsions:
REMARK  status: ('A' for Active; 'I' for Inactive)
REMARK    1  A    between atoms: C3_3  and  N1_4 
REMARK    2  A    between atoms: C9_11  and  C10_12 
REMARK    3  A    between atoms: C12_15  and  N3_16 
REMARK       I    between atoms: N3_16  and  C13_18 
REMARK    4  A    between atoms: C13_18  and  C14_20 
REMARK       I    between atoms: C14_20  and  N4_22 
REMARK    5  A    between atoms: N4_22  and  C15_24 
REMARK    6  A    between atoms: C24_33  and  C25_34 
REMARK    7  A    between atoms: C25_34  and  N5_35 
ROOT
HETATM    1  C1  UNL     1      -3.544   8.277  19.763  1.00  0.00     0.013 C 
HETATM    2  C2  UNL     1      -3.760   7.095  19.771  1.00  0.00    -0.089 C 
HETATM    3  C3  UNL     1      -4.036   5.648  19.758  1.00  0.00     0.333 C 
ENDROOT
BRANCH   3   4
HETATM    4  N1  UNL     1      -4.165   5.068  21.054  1.00  0.00    -0.018 N 
HETATM    5  C4  UNL     1      -5.019   5.798  21.972  1.00  0.00     0.269 C 
HETATM    6  C5  UNL     1      -5.309   4.778  23.020  1.00  0.00     0.268 C 
HETATM    7  N2  UNL     1      -4.941   3.466  22.474  1.00  0.00    -0.032 N 
HETATM    8  C6  UNL     1      -6.120   2.621  22.755  1.00  0.00     0.276 C 
HETATM    9  C7  UNL     1      -3.892   2.826  23.195  1.00  0.00     0.241 C 
HETATM   10  C24 UNL     1      -4.732   3.735  21.094  1.00  0.00     0.320 C 
HETATM   11  C8  UNL     1      -2.510   3.195  23.034  1.00  0.00     0.048 C 
HETATM   12  C9  UNL     1      -2.110   3.860  21.758  1.00  0.00     0.059 C 
HETATM   13  C11 UNL     1      -2.849   5.138  21.662  1.00  0.00     0.260 C 
HETATM   14  C12 UNL     1      -2.352   3.056  20.535  1.00  0.00     0.106 C 
HETATM   15  C23 UNL     1      -3.784   2.688  20.478  1.00  0.00     0.099 C 
BRANCH  12  16
HETATM   16  C10 UNL     1      -0.637   4.151  21.843  1.00  0.00     0.244 C 
HETATM   17  O1  UNL     1       0.033   3.435  22.536  1.00  0.00    -0.306 OA
ENDBRANCH  12  16
BRANCH  14  18
HETATM   18  N3  UNL     1      -1.524   1.874  20.460  1.00  0.00    -0.347 N 
HETATM   19  C13 UNL     1      -0.569   1.662  19.428  1.00  0.00     0.309 C 
HETATM   20  O2  UNL     1      -0.455   2.554  18.555  1.00  0.00    -0.262 OA
ATOM     21  H3  UNL     1      -1.630   1.158  21.179  1.00  0.00     0.163 HD
BRANCH  19  22
HETATM   22  C14 UNL     1       0.263   0.487  19.340  1.00  0.00     0.309 C 
HETATM   23  O3  UNL     1      -0.074  -0.428  18.551  1.00  0.00    -0.262 OA
HETATM   24  N4  UNL     1       1.414   0.358  20.107  1.00  0.00    -0.348 N 
ATOM     25  H4  UNL     1       1.643   1.130  20.733  1.00  0.00     0.163 HD
BRANCH  24  26
HETATM   26  C15 UNL     1       2.316  -0.768  20.098  1.00  0.00     0.092 C 
HETATM   27  C16 UNL     1       2.282  -1.406  18.738  1.00  0.00     0.026 C 
HETATM   28  C17 UNL     1       3.298  -2.514  18.658  1.00  0.00     0.002 C 
HETATM   29  C18 UNL     1       3.212  -3.476  19.814  1.00  0.00     0.001 C 
HETATM   30  C19 UNL     1       3.245  -2.754  21.142  1.00  0.00     0.011 C 
HETATM   31  C20 UNL     1       2.073  -1.764  21.166  1.00  0.00    -0.027 C 
HETATM   32  C21 UNL     1       2.049  -1.157  22.533  1.00  0.00     0.017 C 
HETATM   33  C22 UNL     1       0.825  -2.576  20.982  1.00  0.00     0.017 C 
ENDBRANCH  24  26
ENDBRANCH  19  22
ENDBRANCH  14  18
BRANCH  10  34
HETATM   34  C25 UNL     1      -5.961   3.591  20.251  1.00  0.00     0.300 C 
BRANCH  34  35
HETATM   35  N5  UNL     1      -6.064   2.530  19.342  1.00  0.00    -0.075 N 
ATOM     36  H53 UNL     1      -5.572   1.724  19.728  1.00  0.00     0.274 HD
ATOM     37  H52 UNL     1      -7.028   2.199  19.339  1.00  0.00     0.274 HD
ATOM     38  H51 UNL     1      -5.763   2.659  18.375  1.00  0.00     0.274 HD
ENDBRANCH  34  35
ENDBRANCH  10  34
ENDBRANCH   3   4
TORSDOF 7
ENDMDL
