MODEL 1
REMARK VINA RESULT: -6.329116635      0.000      0.000
REMARK  12 active torsions:
REMARK  status: ('A' for Active; 'I' for Inactive)
REMARK    1  A    between atoms: C2_2  and  C4_4 
REMARK    2  A    between atoms: N2_9  and  C8_10 
REMARK    3  A    between atoms: C8_10  and  C9_11 
REMARK    4  A    between atoms: C8_10  and  C26_32 
REMARK    5  A    between atoms: C10_12  and  C11_13 
REMARK    6  A    between atoms: C12_14  and  C13_15 
REMARK    7  A    between atoms: C14_16  and  C15_17 
REMARK    8  A    between atoms: C16_18  and  C17_19 
REMARK       I    between atoms: C17_19  and  N3_21 
REMARK    9  A    between atoms: N3_21  and  C18_23 
REMARK   10  A    between atoms: C18_23  and  C19_24 
REMARK   11  A    between atoms: C19_24  and  N4_25 
REMARK   12  A    between atoms: C26_32  and  O2_33 
ROOT
HETATM    1  C11 UNL     1      -0.701   2.668  23.295  1.00  0.00    -0.001 C 
HETATM    2  C12 UNL     1      -0.784   3.292  24.324  1.00  0.00    -0.000 C 
ENDROOT
BRANCH   1   3
HETATM    3  C10 UNL     1      -0.605   1.882  22.117  1.00  0.00    -0.012 C 
HETATM    4  C9  UNL     1      -0.535   1.184  21.134  1.00  0.00    -0.063 C 
BRANCH   4   5
HETATM    5  C8  UNL     1      -0.459   0.289  19.946  1.00  0.00     0.205 C 
BRANCH   5   6
HETATM    6  N2  UNL     1      -0.018  -0.981  20.338  1.00  0.00    -0.312 N 
HETATM    7  N1  UNL     1      -0.826  -2.050  20.153  1.00  0.00    -0.333 N 
HETATM    8  C6  UNL     1      -0.533  -2.980  19.130  1.00  0.00     0.142 C 
HETATM    9  C7  UNL     1      -1.670  -2.462  21.211  1.00  0.00     0.170 C 
HETATM   10  C5  UNL     1       0.903  -3.367  18.975  1.00  0.00     0.026 C 
HETATM   11  C4  UNL     1       1.880  -2.376  19.570  1.00  0.00    -0.008 C 
HETATM   12  C28 UNL     1       1.764  -2.354  21.087  1.00  0.00     0.026 C 
HETATM   13  C27 UNL     1       0.922  -1.095  21.396  1.00  0.00     0.144 C 
BRANCH  11  14
HETATM   14  C2  UNL     1       3.279  -2.860  19.248  1.00  0.00    -0.019 C 
HETATM   15  C1  UNL     1       4.306  -1.850  19.678  1.00  0.00     0.010 C 
HETATM   16  C3  UNL     1       3.580  -4.141  20.013  1.00  0.00     0.010 C 
ENDBRANCH  11  14
ENDBRANCH   5   6
BRANCH   5  17
HETATM   17  C26 UNL     1       0.604   0.964  19.065  1.00  0.00     0.203 C 
BRANCH  17  18
HETATM   18  O2  UNL     1      -0.031   2.028  18.373  1.00  0.00    -0.398 OA
ATOM     19  H2  UNL     1      -0.061   2.773  18.962  1.00  0.00     0.209 HD
ENDBRANCH  17  18
ENDBRANCH   5  17
ENDBRANCH   4   5
ENDBRANCH   1   3
BRANCH   2  20
HETATM   20  C13 UNL     1      -0.885   3.968  25.558  1.00  0.00    -0.000 C 
HETATM   21  C14 UNL     1      -1.017   4.579  26.588  1.00  0.00    -0.001 C 
BRANCH  21  22
HETATM   22  C15 UNL     1      -1.228   5.345  27.774  1.00  0.00    -0.004 C 
HETATM   23  C16 UNL     1      -1.386   6.047  28.737  1.00  0.00     0.009 C 
BRANCH  23  24
HETATM   24  C17 UNL     1      -1.553   6.962  29.849  1.00  0.00     0.297 C 
HETATM   25  O1  UNL     1      -2.650   7.630  29.836  1.00  0.00    -0.258 OA
HETATM   26  N3  UNL     1      -0.591   7.113  30.853  1.00  0.00    -0.349 N 
ATOM     27  H3  UNL     1       0.259   6.548  30.855  1.00  0.00     0.163 HD
BRANCH  26  28
HETATM   28  C18 UNL     1      -0.841   8.109  31.909  1.00  0.00     0.151 C 
BRANCH  28  29
HETATM   29  C19 UNL     1      -1.677   7.423  32.956  1.00  0.00     0.257 C 
BRANCH  29  30
HETATM   30  N4  UNL     1      -1.402   7.879  34.257  1.00  0.00    -0.065 N 
HETATM   31  C20 UNL     1      -0.848   6.909  35.182  1.00  0.00     0.238 C 
HETATM   32  C21 UNL     1      -0.904   7.587  36.536  1.00  0.00     0.034 C 
HETATM   33  C22 UNL     1      -1.709   8.811  36.263  1.00  0.00     0.015 C 
HETATM   34  C23 UNL     1      -0.787   9.790  35.554  1.00  0.00     0.034 C 
HETATM   35  C25 UNL     1      -2.524   8.363  35.036  1.00  0.00     0.242 C 
HETATM   36  C24 UNL     1      -0.495   9.020  34.284  1.00  0.00     0.238 C 
ENDBRANCH  29  30
ENDBRANCH  28  29
ENDBRANCH  26  28
ENDBRANCH  23  24
ENDBRANCH  21  22
ENDBRANCH   2  20
TORSDOF 12
ENDMDL
MODEL 2
REMARK VINA RESULT: -6.313092222      0.997      1.758
REMARK  12 active torsions:
REMARK  status: ('A' for Active; 'I' for Inactive)
REMARK    1  A    between atoms: C2_2  and  C4_4 
REMARK    2  A    between atoms: N2_9  and  C8_10 
REMARK    3  A    between atoms: C8_10  and  C9_11 
REMARK    4  A    between atoms: C8_10  and  C26_32 
REMARK    5  A    between atoms: C10_12  and  C11_13 
REMARK    6  A    between atoms: C12_14  and  C13_15 
REMARK    7  A    between atoms: C14_16  and  C15_17 
REMARK    8  A    between atoms: C16_18  and  C17_19 
REMARK       I    between atoms: C17_19  and  N3_21 
REMARK    9  A    between atoms: N3_21  and  C18_23 
REMARK   10  A    between atoms: C18_23  and  C19_24 
REMARK   11  A    between atoms: C19_24  and  N4_25 
REMARK   12  A    between atoms: C26_32  and  O2_33 
ROOT
HETATM    1  C11 UNL     1      -0.489   2.646  23.109  1.00  0.00    -0.001 C 
HETATM    2  C12 UNL     1      -0.602   3.270  24.136  1.00  0.00    -0.000 C 
ENDROOT
BRANCH   1   3
HETATM    3  C10 UNL     1      -0.386   1.866  21.927  1.00  0.00    -0.012 C 
HETATM    4  C9  UNL     1      -0.333   1.215  20.912  1.00  0.00    -0.063 C 
BRANCH   4   5
HETATM    5  C8  UNL     1      -0.309   0.419  19.653  1.00  0.00     0.205 C 
BRANCH   5   6
HETATM    6  N2  UNL     1       0.255  -0.839  19.899  1.00  0.00    -0.312 N 
HETATM    7  N1  UNL     1       1.049  -1.405  18.962  1.00  0.00    -0.333 N 
HETATM    8  C6  UNL     1       2.445  -1.462  19.170  1.00  0.00     0.142 C 
HETATM    9  C7  UNL     1       0.475  -2.296  18.025  1.00  0.00     0.170 C 
HETATM   10  C5  UNL     1       2.898  -1.836  20.546  1.00  0.00     0.026 C 
HETATM   11  C4  UNL     1       1.856  -1.618  21.621  1.00  0.00    -0.008 C 
HETATM   12  C28 UNL     1       0.694  -2.584  21.444  1.00  0.00     0.026 C 
HETATM   13  C27 UNL     1      -0.414  -1.741  20.768  1.00  0.00     0.144 C 
BRANCH  11  14
HETATM   14  C2  UNL     1       2.495  -1.949  22.954  1.00  0.00    -0.019 C 
HETATM   15  C1  UNL     1       2.126  -0.928  23.993  1.00  0.00     0.010 C 
HETATM   16  C3  UNL     1       1.987  -3.291  23.462  1.00  0.00     0.010 C 
ENDBRANCH  11  14
ENDBRANCH   5   6
BRANCH   5  17
HETATM   17  C26 UNL     1       0.614   1.237  18.738  1.00  0.00     0.203 C 
BRANCH  17  18
HETATM   18  O2  UNL     1      -0.122   2.365  18.290  1.00  0.00    -0.398 OA
ATOM     19  H2  UNL     1       0.184   2.575  17.415  1.00  0.00     0.209 HD
ENDBRANCH  17  18
ENDBRANCH   5  17
ENDBRANCH   4   5
ENDBRANCH   1   3
BRANCH   2  20
HETATM   20  C13 UNL     1      -0.767   3.951  25.360  1.00  0.00    -0.000 C 
HETATM   21  C14 UNL     1      -0.955   4.563  26.381  1.00  0.00    -0.001 C 
BRANCH  21  22
HETATM   22  C15 UNL     1      -1.236   5.326  27.554  1.00  0.00    -0.004 C 
HETATM   23  C16 UNL     1      -1.420   6.011  28.524  1.00  0.00     0.009 C 
BRANCH  23  24
HETATM   24  C17 UNL     1      -1.575   6.889  29.667  1.00  0.00     0.297 C 
HETATM   25  O1  UNL     1      -2.659   7.577  29.673  1.00  0.00    -0.258 OA
HETATM   26  N3  UNL     1      -0.617   6.985  30.682  1.00  0.00    -0.349 N 
ATOM     27  H3  UNL     1       0.223   6.404  30.667  1.00  0.00     0.163 HD
BRANCH  26  28
HETATM   28  C18 UNL     1      -0.854   7.948  31.771  1.00  0.00     0.151 C 
BRANCH  28  29
HETATM   29  C19 UNL     1      -1.576   7.195  32.857  1.00  0.00     0.257 C 
BRANCH  29  30
HETATM   30  N4  UNL     1      -1.363   7.745  34.133  1.00  0.00    -0.065 N 
HETATM   31  C20 UNL     1      -0.842   6.849  35.148  1.00  0.00     0.238 C 
HETATM   32  C21 UNL     1      -0.965   7.620  36.447  1.00  0.00     0.034 C 
HETATM   33  C22 UNL     1      -1.767   8.811  36.053  1.00  0.00     0.015 C 
HETATM   34  C23 UNL     1      -0.824   9.749  35.319  1.00  0.00     0.034 C 
HETATM   35  C25 UNL     1      -2.523   8.268  34.827  1.00  0.00     0.242 C 
HETATM   36  C24 UNL     1      -0.468   8.895  34.120  1.00  0.00     0.238 C 
ENDBRANCH  29  30
ENDBRANCH  28  29
ENDBRANCH  26  28
ENDBRANCH  23  24
ENDBRANCH  21  22
ENDBRANCH   2  20
TORSDOF 12
ENDMDL
MODEL 3
REMARK VINA RESULT: -6.233074821      1.748      2.627
REMARK  12 active torsions:
REMARK  status: ('A' for Active; 'I' for Inactive)
REMARK    1  A    between atoms: C2_2  and  C4_4 
REMARK    2  A    between atoms: N2_9  and  C8_10 
REMARK    3  A    between atoms: C8_10  and  C9_11 
REMARK    4  A    between atoms: C8_10  and  C26_32 
REMARK    5  A    between atoms: C10_12  and  C11_13 
REMARK    6  A    between atoms: C12_14  and  C13_15 
REMARK    7  A    between atoms: C14_16  and  C15_17 
REMARK    8  A    between atoms: C16_18  and  C17_19 
REMARK       I    between atoms: C17_19  and  N3_21 
REMARK    9  A    between atoms: N3_21  and  C18_23 
REMARK   10  A    between atoms: C18_23  and  C19_24 
REMARK   11  A    between atoms: C19_24  and  N4_25 
REMARK   12  A    between atoms: C26_32  and  O2_33 
ROOT
HETATM    1  C11 UNL     1      -0.310   1.502  23.961  1.00  0.00    -0.001 C 
HETATM    2  C12 UNL     1      -0.429   2.365  24.796  1.00  0.00    -0.000 C 
ENDROOT
BRANCH   1   3
HETATM    3  C10 UNL     1      -0.205   0.451  23.013  1.00  0.00    -0.012 C 
HETATM    4  C9  UNL     1      -0.104  -0.466  22.234  1.00  0.00    -0.063 C 
BRANCH   4   5
HETATM    5  C8  UNL     1       0.040  -1.619  21.303  1.00  0.00     0.205 C 
BRANCH   5   6
HETATM    6  N2  UNL     1       0.610  -1.187  20.099  1.00  0.00    -0.312 N 
HETATM    7  N1  UNL     1       1.943  -1.317  19.911  1.00  0.00    -0.333 N 
HETATM    8  C6  UNL     1       2.432  -2.309  19.030  1.00  0.00     0.142 C 
HETATM    9  C7  UNL     1       2.791  -0.231  20.231  1.00  0.00     0.170 C 
HETATM   10  C5  UNL     1       1.695  -2.473  17.739  1.00  0.00     0.026 C 
HETATM   11  C4  UNL     1       0.281  -1.932  17.760  1.00  0.00    -0.008 C 
HETATM   12  C28 UNL     1       0.290  -0.416  17.879  1.00  0.00     0.026 C 
HETATM   13  C27 UNL     1      -0.016  -0.141  19.370  1.00  0.00     0.144 C 
BRANCH  11  14
HETATM   14  C2  UNL     1      -0.354  -2.259  16.423  1.00  0.00    -0.019 C 
HETATM   15  C1  UNL     1      -0.166  -1.128  15.451  1.00  0.00     0.010 C 
HETATM   16  C3  UNL     1       0.315  -3.479  15.808  1.00  0.00     0.010 C 
ENDBRANCH  11  14
ENDBRANCH   5   6
BRANCH   5  17
HETATM   17  C26 UNL     1      -1.410  -2.064  21.066  1.00  0.00     0.203 C 
BRANCH  17  18
HETATM   18  O2  UNL     1      -1.373  -3.398  20.585  1.00  0.00    -0.398 OA
ATOM     19  H2  UNL     1      -1.981  -3.455  19.857  1.00  0.00     0.209 HD
ENDBRANCH  17  18
ENDBRANCH   5  17
ENDBRANCH   4   5
ENDBRANCH   1   3
BRANCH   2  20
HETATM   20  C13 UNL     1      -0.607   3.337  25.803  1.00  0.00    -0.000 C 
HETATM   21  C14 UNL     1      -0.819   4.156  26.661  1.00  0.00    -0.001 C 
BRANCH  21  22
HETATM   22  C15 UNL     1      -1.147   5.113  27.668  1.00  0.00    -0.004 C 
HETATM   23  C16 UNL     1      -1.363   5.904  28.547  1.00  0.00     0.009 C 
BRANCH  23  24
HETATM   24  C17 UNL     1      -1.545   6.836  29.642  1.00  0.00     0.297 C 
HETATM   25  O1  UNL     1      -2.612   7.546  29.572  1.00  0.00    -0.258 OA
HETATM   26  N3  UNL     1      -0.627   6.958  30.691  1.00  0.00    -0.349 N 
ATOM     27  H3  UNL     1       0.199   6.360  30.738  1.00  0.00     0.163 HD
BRANCH  26  28
HETATM   28  C18 UNL     1      -0.886   7.975  31.725  1.00  0.00     0.151 C 
BRANCH  28  29
HETATM   29  C19 UNL     1      -1.592   7.267  32.851  1.00  0.00     0.257 C 
BRANCH  29  30
HETATM   30  N4  UNL     1      -1.315   7.834  34.108  1.00  0.00    -0.065 N 
HETATM   31  C20 UNL     1      -0.765   6.947  35.114  1.00  0.00     0.238 C 
HETATM   32  C21 UNL     1      -0.818   7.741  36.404  1.00  0.00     0.034 C 
HETATM   33  C22 UNL     1      -1.618   8.940  36.024  1.00  0.00     0.015 C 
HETATM   34  C23 UNL     1      -0.692   9.849  35.234  1.00  0.00     0.034 C 
HETATM   35  C25 UNL     1      -2.435   8.389  34.842  1.00  0.00     0.242 C 
HETATM   36  C24 UNL     1      -0.403   8.969  34.035  1.00  0.00     0.238 C 
ENDBRANCH  29  30
ENDBRANCH  28  29
ENDBRANCH  26  28
ENDBRANCH  23  24
ENDBRANCH  21  22
ENDBRANCH   2  20
TORSDOF 12
ENDMDL
MODEL 4
REMARK VINA RESULT: -6.221489245      3.290     15.316
REMARK  12 active torsions:
REMARK  status: ('A' for Active; 'I' for Inactive)
REMARK    1  A    between atoms: C2_2  and  C4_4 
REMARK    2  A    between atoms: N2_9  and  C8_10 
REMARK    3  A    between atoms: C8_10  and  C9_11 
REMARK    4  A    between atoms: C8_10  and  C26_32 
REMARK    5  A    between atoms: C10_12  and  C11_13 
REMARK    6  A    between atoms: C12_14  and  C13_15 
REMARK    7  A    between atoms: C14_16  and  C15_17 
REMARK    8  A    between atoms: C16_18  and  C17_19 
REMARK       I    between atoms: C17_19  and  N3_21 
REMARK    9  A    between atoms: N3_21  and  C18_23 
REMARK   10  A    between atoms: C18_23  and  C19_24 
REMARK   11  A    between atoms: C19_24  and  N4_25 
REMARK   12  A    between atoms: C26_32  and  O2_33 
ROOT
HETATM    1  C11 UNL     1      -1.147   4.319  25.911  1.00  0.00    -0.001 C 
HETATM    2  C12 UNL     1      -1.045   3.858  24.800  1.00  0.00    -0.000 C 
ENDROOT
BRANCH   1   3
HETATM    3  C10 UNL     1      -1.208   4.849  27.226  1.00  0.00    -0.012 C 
HETATM    4  C9  UNL     1      -1.224   5.289  28.350  1.00  0.00    -0.063 C 
BRANCH   4   5
HETATM    5  C8  UNL     1      -1.207   5.814  29.744  1.00  0.00     0.205 C 
BRANCH   5   6
HETATM    6  N2  UNL     1      -2.315   5.327  30.447  1.00  0.00    -0.312 N 
HETATM    7  N1  UNL     1      -3.392   4.881  29.762  1.00  0.00    -0.333 N 
HETATM    8  C6  UNL     1      -3.649   3.493  29.690  1.00  0.00     0.142 C 
HETATM    9  C7  UNL     1      -4.459   5.773  29.503  1.00  0.00     0.170 C 
HETATM   10  C5  UNL     1      -3.465   2.716  30.954  1.00  0.00     0.026 C 
HETATM   11  C4  UNL     1      -2.578   3.395  31.975  1.00  0.00    -0.008 C 
HETATM   12  C28 UNL     1      -3.249   4.648  32.518  1.00  0.00     0.026 C 
HETATM   13  C27 UNL     1      -2.575   5.813  31.756  1.00  0.00     0.144 C 
BRANCH  11  14
HETATM   14  C2  UNL     1      -2.416   2.447  33.145  1.00  0.00    -0.019 C 
HETATM   15  C1  UNL     1      -1.198   1.583  32.969  1.00  0.00     0.010 C 
HETATM   16  C3  UNL     1      -2.210   3.233  34.432  1.00  0.00     0.010 C 
ENDBRANCH  11  14
ENDBRANCH   5   6
BRANCH   5  17
HETATM   17  C26 UNL     1      -1.334   7.332  29.549  1.00  0.00     0.203 C 
BRANCH  17  18
HETATM   18  O2  UNL     1      -0.086   7.912  29.892  1.00  0.00    -0.398 OA
ATOM     19  H2  UNL     1       0.549   7.624  29.246  1.00  0.00     0.209 HD
ENDBRANCH  17  18
ENDBRANCH   5  17
ENDBRANCH   4   5
ENDBRANCH   1   3
BRANCH   2  20
HETATM   20  C13 UNL     1      -0.865   3.310  23.513  1.00  0.00    -0.000 C 
HETATM   21  C14 UNL     1      -0.685   2.792  22.440  1.00  0.00    -0.001 C 
BRANCH  21  22
HETATM   22  C15 UNL     1      -0.436   2.121  21.205  1.00  0.00    -0.004 C 
HETATM   23  C16 UNL     1      -0.204   1.615  20.139  1.00  0.00     0.009 C 
BRANCH  23  24
HETATM   24  C17 UNL     1       0.106   1.085  18.827  1.00  0.00     0.297 C 
HETATM   25  O1  UNL     1       0.288   1.972  17.917  1.00  0.00    -0.258 OA
HETATM   26  N3  UNL     1       0.194  -0.287  18.568  1.00  0.00    -0.349 N 
ATOM     27  H3  UNL     1       0.074  -0.971  19.316  1.00  0.00     0.163 HD
BRANCH  26  28
HETATM   28  C18 UNL     1       0.464  -0.717  17.185  1.00  0.00     0.151 C 
BRANCH  28  29
HETATM   29  C19 UNL     1      -0.284  -2.008  16.985  1.00  0.00     0.257 C 
BRANCH  29  30
HETATM   30  N4  UNL     1      -0.505  -2.303  15.629  1.00  0.00    -0.065 N 
HETATM   31  C20 UNL     1      -0.227  -1.243  14.679  1.00  0.00     0.238 C 
HETATM   32  C21 UNL     1      -0.793  -1.741  13.363  1.00  0.00     0.034 C 
HETATM   33  C22 UNL     1      -1.548  -2.960  13.766  1.00  0.00     0.015 C 
HETATM   34  C23 UNL     1      -0.518  -4.053  14.000  1.00  0.00     0.034 C 
HETATM   35  C25 UNL     1      -1.859  -2.644  15.240  1.00  0.00     0.242 C 
HETATM   36  C24 UNL     1       0.248  -3.462  15.164  1.00  0.00     0.238 C 
ENDBRANCH  29  30
ENDBRANCH  28  29
ENDBRANCH  26  28
ENDBRANCH  23  24
ENDBRANCH  21  22
ENDBRANCH   2  20
TORSDOF 12
ENDMDL
MODEL 5
REMARK VINA RESULT: -6.173754791      3.187     15.547
REMARK  12 active torsions:
REMARK  status: ('A' for Active; 'I' for Inactive)
REMARK    1  A    between atoms: C2_2  and  C4_4 
REMARK    2  A    between atoms: N2_9  and  C8_10 
REMARK    3  A    between atoms: C8_10  and  C9_11 
REMARK    4  A    between atoms: C8_10  and  C26_32 
REMARK    5  A    between atoms: C10_12  and  C11_13 
REMARK    6  A    between atoms: C12_14  and  C13_15 
REMARK    7  A    between atoms: C14_16  and  C15_17 
REMARK    8  A    between atoms: C16_18  and  C17_19 
REMARK       I    between atoms: C17_19  and  N3_21 
REMARK    9  A    between atoms: N3_21  and  C18_23 
REMARK   10  A    between atoms: C18_23  and  C19_24 
REMARK   11  A    between atoms: C19_24  and  N4_25 
REMARK   12  A    between atoms: C26_32  and  O2_33 
ROOT
HETATM    1  C11 UNL     1      -1.022   4.094  25.437  1.00  0.00    -0.001 C 
HETATM    2  C12 UNL     1      -0.909   3.644  24.323  1.00  0.00    -0.000 C 
ENDROOT
BRANCH   1   3
HETATM    3  C10 UNL     1      -1.110   4.587  26.765  1.00  0.00    -0.012 C 
HETATM    4  C9  UNL     1      -1.197   4.972  27.906  1.00  0.00    -0.063 C 
BRANCH   4   5
HETATM    5  C8  UNL     1      -1.322   5.411  29.324  1.00  0.00     0.205 C 
BRANCH   5   6
HETATM    6  N2  UNL     1      -2.528   4.943  29.859  1.00  0.00    -0.312 N 
HETATM    7  N1  UNL     1      -2.587   4.604  31.167  1.00  0.00    -0.333 N 
HETATM    8  C6  UNL     1      -3.263   5.447  32.079  1.00  0.00     0.142 C 
HETATM    9  C7  UNL     1      -2.370   3.256  31.537  1.00  0.00     0.170 C 
HETATM   10  C5  UNL     1      -4.569   6.013  31.618  1.00  0.00     0.026 C 
HETATM   11  C4  UNL     1      -4.744   6.021  30.115  1.00  0.00    -0.008 C 
HETATM   12  C28 UNL     1      -4.858   4.601  29.582  1.00  0.00     0.026 C 
HETATM   13  C27 UNL     1      -3.456   4.285  29.010  1.00  0.00     0.144 C 
BRANCH  11  14
HETATM   14  C2  UNL     1      -6.061   6.706  29.810  1.00  0.00    -0.019 C 
HETATM   15  C1  UNL     1      -6.758   7.113  31.079  1.00  0.00     0.010 C 
HETATM   16  C3  UNL     1      -5.817   7.982  29.017  1.00  0.00     0.010 C 
ENDBRANCH  11  14
ENDBRANCH   5   6
BRANCH   5  17
HETATM   17  C26 UNL     1      -1.354   6.943  29.217  1.00  0.00     0.203 C 
BRANCH  17  18
HETATM   18  O2  UNL     1      -0.046   7.416  29.492  1.00  0.00    -0.398 OA
ATOM     19  H2  UNL     1       0.559   6.709  29.301  1.00  0.00     0.209 HD
ENDBRANCH  17  18
ENDBRANCH   5  17
ENDBRANCH   4   5
ENDBRANCH   1   3
BRANCH   2  20
HETATM   20  C13 UNL     1      -0.729   3.084  23.041  1.00  0.00    -0.000 C 
HETATM   21  C14 UNL     1      -0.544   2.559  21.972  1.00  0.00    -0.001 C 
BRANCH  21  22
HETATM   22  C15 UNL     1      -0.282   1.883  20.743  1.00  0.00    -0.004 C 
HETATM   23  C16 UNL     1      -0.023   1.268  19.743  1.00  0.00     0.009 C 
BRANCH  23  24
HETATM   24  C17 UNL     1       0.334   0.469  18.587  1.00  0.00     0.297 C 
HETATM   25  O1  UNL     1       0.517   1.139  17.507  1.00  0.00    -0.258 OA
HETATM   26  N3  UNL     1       0.463  -0.922  18.642  1.00  0.00    -0.349 N 
ATOM     27  H3  UNL     1       0.340  -1.427  19.521  1.00  0.00     0.163 HD
BRANCH  26  28
HETATM   28  C18 UNL     1       0.780  -1.639  17.394  1.00  0.00     0.151 C 
BRANCH  28  29
HETATM   29  C19 UNL     1      -0.355  -2.598  17.152  1.00  0.00     0.257 C 
BRANCH  29  30
HETATM   30  N4  UNL     1      -0.741  -2.652  15.801  1.00  0.00    -0.065 N 
HETATM   31  C20 UNL     1      -1.980  -3.348  15.508  1.00  0.00     0.238 C 
HETATM   32  C21 UNL     1      -2.005  -3.477  13.997  1.00  0.00     0.034 C 
HETATM   33  C22 UNL     1      -0.640  -3.029  13.603  1.00  0.00     0.015 C 
HETATM   34  C23 UNL     1      -0.632  -1.513  13.703  1.00  0.00     0.034 C 
HETATM   35  C25 UNL     1       0.155  -3.330  14.886  1.00  0.00     0.242 C 
HETATM   36  C24 UNL     1      -0.869  -1.336  15.188  1.00  0.00     0.238 C 
ENDBRANCH  29  30
ENDBRANCH  28  29
ENDBRANCH  26  28
ENDBRANCH  23  24
ENDBRANCH  21  22
ENDBRANCH   2  20
TORSDOF 12
ENDMDL
