MODEL 1
REMARK VINA RESULT: -6.861531841      0.000      0.000
REMARK  8 active torsions:
REMARK  status: ('A' for Active; 'I' for Inactive)
REMARK    1  A    between atoms: C2_2  and  C3_3 
REMARK    2  A    between atoms: C2_2  and  N8_36 
REMARK    3  A    between atoms: C3_3  and  O1_4 
REMARK    4  A    between atoms: C3_3  and  N1_6 
REMARK    5  A    between atoms: C16_26  and  N6_27 
REMARK    6  A    between atoms: N6_27  and  C17_29 
REMARK    7  A    between atoms: N7_30  and  C18_32 
REMARK    8  A    between atoms: C18_32  and  C20_34 
ROOT
HETATM    1  N1  UNL     1      -0.909   2.108  23.092  1.00  0.00    -0.328 N 
HETATM    2  C4  UNL     1      -2.272   1.992  23.515  1.00  0.00     0.158 C 
HETATM    3  C5  UNL     1      -2.689   2.653  24.775  1.00  0.00     0.050 C 
HETATM    4  C6  UNL     1      -3.704   1.708  25.455  1.00  0.00     0.040 C 
HETATM    5  C7  UNL     1      -3.479   3.932  24.541  1.00  0.00     0.037 C 
HETATM    6  C8  UNL     1      -3.662   4.780  25.760  1.00  0.00     0.042 C 
HETATM    7  C9  UNL     1      -2.666   4.644  26.814  1.00  0.00    -0.021 C 
HETATM    8  C10 UNL     1      -2.250   5.685  27.477  1.00  0.00     0.115 C 
HETATM    9  N2  UNL     1      -1.276   5.583  28.521  1.00  0.00    -0.198 N 
HETATM   10  C11 UNL     1      -0.838   6.766  29.223  1.00  0.00     0.174 C 
HETATM   11  C12 UNL     1      -0.735   4.292  28.867  1.00  0.00     0.677 C 
HETATM   12  N3  UNL     1       0.151   4.168  29.800  1.00  0.00    -0.234 N 
ATOM     13  H31 UNL     1       0.534   3.255  30.045  1.00  0.00     0.174 HD
ATOM     14  H32 UNL     1       0.504   4.967  30.327  1.00  0.00     0.174 HD
HETATM   15  N4  UNL     1      -1.226   3.179  28.134  1.00  0.00    -0.197 N 
HETATM   16  C13 UNL     1      -0.801   1.870  28.610  1.00  0.00     0.171 C 
HETATM   17  C14 UNL     1      -2.100   3.268  27.043  1.00  0.00     0.238 C 
HETATM   18  N5  UNL     1      -1.651   2.895  25.738  1.00  0.00    -0.312 N 
HETATM   19  C15 UNL     1      -0.311   2.812  25.339  1.00  0.00     0.265 C 
HETATM   20  O2  UNL     1       0.624   2.658  26.134  1.00  0.00    -0.269 OA
HETATM   21  C16 UNL     1       0.050   2.911  23.889  1.00  0.00     0.281 C 
ENDROOT
BRANCH   1  22
HETATM   22  C3  UNL     1      -0.412   1.493  21.946  1.00  0.00     0.174 C 
BRANCH  22  23
HETATM   23  C2  UNL     1      -0.486   0.140  21.490  1.00  0.00     0.176 C 
HETATM   24  C1  UNL     1      -1.437  -0.412  20.828  1.00  0.00     0.055 C 
BRANCH  23  25
HETATM   25  N8  UNL     1       0.638  -0.756  21.803  1.00  0.00    -0.045 N 
HETATM   26  C22 UNL     1       0.167  -2.128  21.846  1.00  0.00     0.278 C 
HETATM   27  C23 UNL     1       1.217  -0.466  23.091  1.00  0.00     0.278 C 
HETATM   28  C24 UNL     1       1.685  -0.663  20.831  1.00  0.00     0.278 C 
ENDBRANCH  23  25
ENDBRANCH  22  23
BRANCH  22  29
HETATM   29  O1  UNL     1       0.236   2.346  21.170  1.00  0.00    -0.344 OA
ATOM     30  H1  UNL     1       0.025   2.325  20.244  1.00  0.00     0.219 HD
ENDBRANCH  22  29
ENDBRANCH   1  22
BRANCH  21  31
HETATM   31  N6  UNL     1       0.098   4.281  23.473  1.00  0.00    -0.357 N 
ATOM     32  H6  UNL     1       0.861   4.844  23.848  1.00  0.00     0.162 HD
BRANCH  31  33
HETATM   33  C17 UNL     1      -0.793   4.934  22.604  1.00  0.00     0.173 C 
HETATM   34  N7  UNL     1      -0.528   5.188  21.368  1.00  0.00    -0.382 N 
ATOM     35  H7  UNL     1       0.381   4.895  21.008  1.00  0.00     0.160 HD
BRANCH  34  36
HETATM   36  C18 UNL     1      -1.414   5.850  20.465  1.00  0.00     0.077 C 
HETATM   37  C19 UNL     1      -2.716   6.127  21.206  1.00  0.00     0.032 C 
BRANCH  36  38
HETATM   38  C20 UNL     1      -0.886   7.198  20.011  1.00  0.00     0.020 C 
HETATM   39  C21 UNL     1      -1.757   7.795  18.955  1.00  0.00     0.007 C 
ENDBRANCH  36  38
ENDBRANCH  34  36
ENDBRANCH  31  33
ENDBRANCH  21  31
TORSDOF 8
ENDMDL
MODEL 2
REMARK VINA RESULT: -6.832793196      4.994      7.293
REMARK  8 active torsions:
REMARK  status: ('A' for Active; 'I' for Inactive)
REMARK    1  A    between atoms: C2_2  and  C3_3 
REMARK    2  A    between atoms: C2_2  and  N8_36 
REMARK    3  A    between atoms: C3_3  and  O1_4 
REMARK    4  A    between atoms: C3_3  and  N1_6 
REMARK    5  A    between atoms: C16_26  and  N6_27 
REMARK    6  A    between atoms: N6_27  and  C17_29 
REMARK    7  A    between atoms: N7_30  and  C18_32 
REMARK    8  A    between atoms: C18_32  and  C20_34 
ROOT
HETATM    1  N1  UNL     1      -4.029   4.308  22.680  1.00  0.00    -0.328 N 
HETATM    2  C4  UNL     1      -3.999   3.137  21.857  1.00  0.00     0.158 C 
HETATM    3  C5  UNL     1      -5.237   2.724  21.153  1.00  0.00     0.050 C 
HETATM    4  C6  UNL     1      -5.270   1.181  21.185  1.00  0.00     0.040 C 
HETATM    5  C7  UNL     1      -5.215   3.060  19.669  1.00  0.00     0.037 C 
HETATM    6  C8  UNL     1      -6.541   2.936  18.986  1.00  0.00     0.042 C 
HETATM    7  C9  UNL     1      -7.728   3.087  19.817  1.00  0.00    -0.021 C 
HETATM    8  C10 UNL     1      -8.777   3.719  19.373  1.00  0.00     0.115 C 
HETATM    9  N2  UNL     1      -9.959   3.879  20.164  1.00  0.00    -0.198 N 
HETATM   10  C11 UNL     1     -11.095   4.596  19.632  1.00  0.00     0.174 C 
HETATM   11  C12 UNL     1     -10.010   3.321  21.491  1.00  0.00     0.677 C 
HETATM   12  N3  UNL     1     -11.060   3.455  22.233  1.00  0.00    -0.234 N 
ATOM     13  H31 UNL     1     -11.096   3.060  23.172  1.00  0.00     0.174 HD
ATOM     14  H32 UNL     1     -11.891   3.955  21.916  1.00  0.00     0.174 HD
HETATM   15  N4  UNL     1      -8.854   2.624  21.933  1.00  0.00    -0.197 N 
HETATM   16  C13 UNL     1      -8.983   1.921  23.202  1.00  0.00     0.171 C 
HETATM   17  C14 UNL     1      -7.652   2.543  21.218  1.00  0.00     0.238 C 
HETATM   18  N5  UNL     1      -6.474   3.170  21.731  1.00  0.00    -0.312 N 
HETATM   19  C15 UNL     1      -6.456   4.195  22.686  1.00  0.00     0.265 C 
HETATM   20  O2  UNL     1      -7.386   4.403  23.475  1.00  0.00    -0.269 OA
HETATM   21  C16 UNL     1      -5.273   5.108  22.787  1.00  0.00     0.281 C 
ENDROOT
BRANCH   1  22
HETATM   22  C3  UNL     1      -2.932   4.755  23.411  1.00  0.00     0.174 C 
BRANCH  22  23
HETATM   23  C2  UNL     1      -1.592   4.265  23.500  1.00  0.00     0.176 C 
HETATM   24  C1  UNL     1      -0.644   4.417  22.648  1.00  0.00     0.055 C 
BRANCH  23  25
HETATM   25  N8  UNL     1      -1.219   3.485  24.691  1.00  0.00    -0.045 N 
HETATM   26  C22 UNL     1      -0.022   2.715  24.412  1.00  0.00     0.278 C 
HETATM   27  C23 UNL     1      -2.249   2.549  25.067  1.00  0.00     0.278 C 
HETATM   28  C24 UNL     1      -0.967   4.325  25.824  1.00  0.00     0.278 C 
ENDBRANCH  23  25
ENDBRANCH  22  23
BRANCH  22  29
HETATM   29  O1  UNL     1      -3.223   5.821  24.137  1.00  0.00    -0.344 OA
ATOM     30  H1  UNL     1      -3.459   5.667  25.044  1.00  0.00     0.219 HD
ENDBRANCH  22  29
ENDBRANCH   1  22
BRANCH  21  31
HETATM   31  N6  UNL     1      -5.348   6.143  21.798  1.00  0.00    -0.357 N 
ATOM     32  H6  UNL     1      -6.228   6.654  21.741  1.00  0.00     0.162 HD
BRANCH  31  33
HETATM   33  C17 UNL     1      -4.339   6.529  20.900  1.00  0.00     0.173 C 
HETATM   34  N7  UNL     1      -4.102   7.755  20.576  1.00  0.00    -0.382 N 
ATOM     35  H7  UNL     1      -4.683   8.478  21.000  1.00  0.00     0.160 HD
BRANCH  34  36
HETATM   36  C18 UNL     1      -3.085   8.173  19.666  1.00  0.00     0.077 C 
HETATM   37  C19 UNL     1      -3.042   9.696  19.678  1.00  0.00     0.032 C 
BRANCH  36  38
HETATM   38  C20 UNL     1      -1.702   7.704  20.078  1.00  0.00     0.020 C 
HETATM   39  C21 UNL     1      -1.156   6.706  19.113  1.00  0.00     0.007 C 
ENDBRANCH  36  38
ENDBRANCH  34  36
ENDBRANCH  31  33
ENDBRANCH  21  31
TORSDOF 8
ENDMDL
MODEL 3
REMARK VINA RESULT: -6.743624501      2.099      3.347
REMARK  8 active torsions:
REMARK  status: ('A' for Active; 'I' for Inactive)
REMARK    1  A    between atoms: C2_2  and  C3_3 
REMARK    2  A    between atoms: C2_2  and  N8_36 
REMARK    3  A    between atoms: C3_3  and  O1_4 
REMARK    4  A    between atoms: C3_3  and  N1_6 
REMARK    5  A    between atoms: C16_26  and  N6_27 
REMARK    6  A    between atoms: N6_27  and  C17_29 
REMARK    7  A    between atoms: N7_30  and  C18_32 
REMARK    8  A    between atoms: C18_32  and  C20_34 
ROOT
HETATM    1  N1  UNL     1      -0.740   1.107  20.024  1.00  0.00    -0.328 N 
HETATM    2  C4  UNL     1      -1.696   0.215  20.608  1.00  0.00     0.158 C 
HETATM    3  C5  UNL     1      -2.371   0.613  21.866  1.00  0.00     0.050 C 
HETATM    4  C6  UNL     1      -2.521  -0.670  22.712  1.00  0.00     0.040 C 
HETATM    5  C7  UNL     1      -3.804   1.078  21.649  1.00  0.00     0.037 C 
HETATM    6  C8  UNL     1      -4.419   1.762  22.829  1.00  0.00     0.042 C 
HETATM    7  C9  UNL     1      -3.510   2.405  23.768  1.00  0.00    -0.021 C 
HETATM    8  C10 UNL     1      -3.814   3.546  24.317  1.00  0.00     0.115 C 
HETATM    9  N2  UNL     1      -2.943   4.200  25.246  1.00  0.00    -0.198 N 
HETATM   10  C11 UNL     1      -3.319   5.470  25.822  1.00  0.00     0.174 C 
HETATM   11  C12 UNL     1      -1.690   3.584  25.603  1.00  0.00     0.677 C 
HETATM   12  N3  UNL     1      -0.879   4.153  26.433  1.00  0.00    -0.234 N 
ATOM     13  H31 UNL     1       0.008   3.717  26.685  1.00  0.00     0.174 HD
ATOM     14  H32 UNL     1      -1.086   5.051  26.868  1.00  0.00     0.174 HD
HETATM   15  N4  UNL     1      -1.401   2.332  24.998  1.00  0.00    -0.197 N 
HETATM   16  C13 UNL     1      -0.219   1.643  25.498  1.00  0.00     0.171 C 
HETATM   17  C14 UNL     1      -2.189   1.725  24.011  1.00  0.00     0.238 C 
HETATM   18  N5  UNL     1      -1.674   1.563  22.687  1.00  0.00    -0.312 N 
HETATM   19  C15 UNL     1      -0.607   2.290  22.143  1.00  0.00     0.265 C 
HETATM   20  O2  UNL     1       0.253   2.850  22.832  1.00  0.00    -0.269 OA
HETATM   21  C16 UNL     1      -0.467   2.421  20.657  1.00  0.00     0.281 C 
ENDROOT
BRANCH   1  22
HETATM   22  C3  UNL     1      -0.026   0.808  18.867  1.00  0.00     0.174 C 
BRANCH  22  23
HETATM   23  C2  UNL     1       0.498  -0.426  18.371  1.00  0.00     0.176 C 
HETATM   24  C1  UNL     1       0.168  -1.039  17.293  1.00  0.00     0.055 C 
BRANCH  23  25
HETATM   25  N8  UNL     1       1.535  -1.105  19.164  1.00  0.00    -0.045 N 
HETATM   26  C22 UNL     1       2.380  -1.892  18.286  1.00  0.00     0.278 C 
HETATM   27  C23 UNL     1       0.966  -2.012  20.130  1.00  0.00     0.278 C 
HETATM   28  C24 UNL     1       2.358  -0.177  19.879  1.00  0.00     0.278 C 
ENDBRANCH  23  25
ENDBRANCH  22  23
BRANCH  22  29
HETATM   29  O1  UNL     1       0.184   1.883  18.125  1.00  0.00    -0.344 OA
ATOM     30  H1  UNL     1       0.457   1.734  17.228  1.00  0.00     0.219 HD
ENDBRANCH  22  29
ENDBRANCH   1  22
BRANCH  21  31
HETATM   31  N6  UNL     1      -1.320   3.458  20.158  1.00  0.00    -0.357 N 
ATOM     32  H6  UNL     1      -1.923   3.212  19.373  1.00  0.00     0.162 HD
BRANCH  31  33
HETATM   33  C17 UNL     1      -1.415   4.776  20.633  1.00  0.00     0.173 C 
HETATM   34  N7  UNL     1      -2.196   5.666  20.120  1.00  0.00    -0.382 N 
ATOM     35  H7  UNL     1      -2.773   5.388  19.326  1.00  0.00     0.160 HD
BRANCH  34  36
HETATM   36  C18 UNL     1      -2.310   7.012  20.582  1.00  0.00     0.077 C 
HETATM   37  C19 UNL     1      -1.212   7.832  19.916  1.00  0.00     0.032 C 
BRANCH  36  38
HETATM   38  C20 UNL     1      -3.625   7.657  20.185  1.00  0.00     0.020 C 
HETATM   39  C21 UNL     1      -3.443   9.100  19.847  1.00  0.00     0.007 C 
ENDBRANCH  36  38
ENDBRANCH  34  36
ENDBRANCH  31  33
ENDBRANCH  21  31
TORSDOF 8
ENDMDL
MODEL 4
REMARK VINA RESULT: -6.743231934      2.869      6.279
REMARK  8 active torsions:
REMARK  status: ('A' for Active; 'I' for Inactive)
REMARK    1  A    between atoms: C2_2  and  C3_3 
REMARK    2  A    between atoms: C2_2  and  N8_36 
REMARK    3  A    between atoms: C3_3  and  O1_4 
REMARK    4  A    between atoms: C3_3  and  N1_6 
REMARK    5  A    between atoms: C16_26  and  N6_27 
REMARK    6  A    between atoms: N6_27  and  C17_29 
REMARK    7  A    between atoms: N7_30  and  C18_32 
REMARK    8  A    between atoms: C18_32  and  C20_34 
ROOT
HETATM    1  N1  UNL     1      -1.280   4.264  21.413  1.00  0.00    -0.328 N 
HETATM    2  C4  UNL     1      -1.004   4.751  22.731  1.00  0.00     0.158 C 
HETATM    3  C5  UNL     1      -0.885   3.778  23.843  1.00  0.00     0.050 C 
HETATM    4  C6  UNL     1      -1.523   4.442  25.082  1.00  0.00     0.040 C 
HETATM    5  C7  UNL     1       0.557   3.531  24.263  1.00  0.00     0.037 C 
HETATM    6  C8  UNL     1       0.747   2.352  25.164  1.00  0.00     0.042 C 
HETATM    7  C9  UNL     1      -0.249   1.292  25.084  1.00  0.00    -0.021 C 
HETATM    8  C10 UNL     1       0.100   0.040  25.165  1.00  0.00     0.115 C 
HETATM    9  N2  UNL     1      -0.856  -1.023  25.095  1.00  0.00    -0.198 N 
HETATM   10  C11 UNL     1      -0.420  -2.397  25.180  1.00  0.00     0.174 C 
HETATM   11  C12 UNL     1      -2.255  -0.714  24.938  1.00  0.00     0.677 C 
HETATM   12  N3  UNL     1      -3.142  -1.651  24.864  1.00  0.00    -0.234 N 
ATOM     13  H31 UNL     1      -4.131  -1.432  24.754  1.00  0.00     0.174 HD
ATOM     14  H32 UNL     1      -2.895  -2.639  24.912  1.00  0.00     0.174 HD
HETATM   15  N4  UNL     1      -2.599   0.663  24.872  1.00  0.00    -0.197 N 
HETATM   16  C13 UNL     1      -4.024   0.962  24.888  1.00  0.00     0.171 C 
HETATM   17  C14 UNL     1      -1.673   1.713  24.836  1.00  0.00     0.238 C 
HETATM   18  N5  UNL     1      -1.558   2.522  23.663  1.00  0.00    -0.312 N 
HETATM   19  C15 UNL     1      -1.993   2.154  22.383  1.00  0.00     0.265 C 
HETATM   20  O2  UNL     1      -2.860   1.295  22.183  1.00  0.00    -0.269 OA
HETATM   21  C16 UNL     1      -1.402   2.806  21.171  1.00  0.00     0.281 C 
ENDROOT
BRANCH   1  22
HETATM   22  C3  UNL     1      -1.448   5.099  20.312  1.00  0.00     0.174 C 
BRANCH  22  23
HETATM   23  C2  UNL     1      -2.029   6.400  20.191  1.00  0.00     0.176 C 
HETATM   24  C1  UNL     1      -1.417   7.522  20.072  1.00  0.00     0.055 C 
BRANCH  23  25
HETATM   25  N8  UNL     1      -3.497   6.505  20.205  1.00  0.00    -0.045 N 
HETATM   26  C22 UNL     1      -3.902   7.723  19.531  1.00  0.00     0.278 C 
HETATM   27  C23 UNL     1      -4.019   6.568  21.547  1.00  0.00     0.278 C 
HETATM   28  C24 UNL     1      -4.120   5.393  19.553  1.00  0.00     0.278 C 
ENDBRANCH  23  25
ENDBRANCH  22  23
BRANCH  22  29
HETATM   29  O1  UNL     1      -0.975   4.555  19.203  1.00  0.00    -0.344 OA
ATOM     30  H1  UNL     1      -0.119   4.146  19.261  1.00  0.00     0.219 HD
ENDBRANCH  22  29
ENDBRANCH   1  22
BRANCH  21  31
HETATM   31  N6  UNL     1      -0.150   2.199  20.830  1.00  0.00    -0.357 N 
ATOM     32  H6  UNL     1       0.675   2.558  21.311  1.00  0.00     0.162 HD
BRANCH  31  33
HETATM   33  C17 UNL     1       0.065   1.164  19.905  1.00  0.00     0.173 C 
HETATM   34  N7  UNL     1       1.191   0.959  19.310  1.00  0.00    -0.382 N 
ATOM     35  H7  UNL     1       1.964   1.588  19.530  1.00  0.00     0.160 HD
BRANCH  34  36
HETATM   36  C18 UNL     1       1.434  -0.084  18.366  1.00  0.00     0.077 C 
HETATM   37  C19 UNL     1       2.404  -1.073  19.000  1.00  0.00     0.032 C 
BRANCH  36  38
HETATM   38  C20 UNL     1       0.182  -0.871  18.028  1.00  0.00     0.020 C 
HETATM   39  C21 UNL     1       0.108  -1.176  16.569  1.00  0.00     0.007 C 
ENDBRANCH  36  38
ENDBRANCH  34  36
ENDBRANCH  31  33
ENDBRANCH  21  31
TORSDOF 8
ENDMDL
MODEL 5
REMARK VINA RESULT: -6.703187043      1.217      1.528
REMARK  8 active torsions:
REMARK  status: ('A' for Active; 'I' for Inactive)
REMARK    1  A    between atoms: C2_2  and  C3_3 
REMARK    2  A    between atoms: C2_2  and  N8_36 
REMARK    3  A    between atoms: C3_3  and  O1_4 
REMARK    4  A    between atoms: C3_3  and  N1_6 
REMARK    5  A    between atoms: C16_26  and  N6_27 
REMARK    6  A    between atoms: N6_27  and  C17_29 
REMARK    7  A    between atoms: N7_30  and  C18_32 
REMARK    8  A    between atoms: C18_32  and  C20_34 
ROOT
HETATM    1  N1  UNL     1      -1.056   2.366  21.816  1.00  0.00    -0.328 N 
HETATM    2  C4  UNL     1      -2.421   2.129  22.176  1.00  0.00     0.158 C 
HETATM    3  C5  UNL     1      -2.910   2.616  23.488  1.00  0.00     0.050 C 
HETATM    4  C6  UNL     1      -3.889   1.546  24.020  1.00  0.00     0.040 C 
HETATM    5  C7  UNL     1      -3.766   3.870  23.374  1.00  0.00     0.037 C 
HETATM    6  C8  UNL     1      -4.031   4.560  24.674  1.00  0.00     0.042 C 
HETATM    7  C9  UNL     1      -3.059   4.356  25.740  1.00  0.00    -0.021 C 
HETATM    8  C10 UNL     1      -2.722   5.334  26.532  1.00  0.00     0.115 C 
HETATM    9  N2  UNL     1      -1.774   5.164  27.590  1.00  0.00    -0.198 N 
HETATM   10  C11 UNL     1      -1.424   6.280  28.437  1.00  0.00     0.174 C 
HETATM   11  C12 UNL     1      -1.170   3.873  27.805  1.00  0.00     0.677 C 
HETATM   12  N3  UNL     1      -0.305   3.689  28.748  1.00  0.00    -0.234 N 
ATOM     13  H31 UNL     1       0.122   2.776  28.900  1.00  0.00     0.174 HD
ATOM     14  H32 UNL     1      -0.014   4.439  29.374  1.00  0.00     0.174 HD
HETATM   15  N4  UNL     1      -1.575   2.827  26.933  1.00  0.00    -0.197 N 
HETATM   16  C13 UNL     1      -1.090   1.496  27.271  1.00  0.00     0.171 C 
HETATM   17  C14 UNL     1      -2.422   2.995  25.830  1.00  0.00     0.238 C 
HETATM   18  N5  UNL     1      -1.916   2.801  24.507  1.00  0.00    -0.312 N 
HETATM   19  C15 UNL     1      -0.562   2.836  24.148  1.00  0.00     0.265 C 
HETATM   20  O2  UNL     1       0.358   2.641  24.952  1.00  0.00    -0.269 OA
HETATM   21  C16 UNL     1      -0.167   3.122  22.732  1.00  0.00     0.281 C 
ENDROOT
BRANCH   1  22
HETATM   22  C3  UNL     1      -0.492   1.915  20.626  1.00  0.00     0.174 C 
BRANCH  22  23
HETATM   23  C2  UNL     1       0.397   0.830  20.351  1.00  0.00     0.176 C 
HETATM   24  C1  UNL     1       1.454   0.850  19.622  1.00  0.00     0.055 C 
BRANCH  23  25
HETATM   25  N8  UNL     1       0.096  -0.479  20.950  1.00  0.00    -0.045 N 
HETATM   26  C22 UNL     1       0.933  -1.495  20.341  1.00  0.00     0.278 C 
HETATM   27  C23 UNL     1      -1.274  -0.870  20.730  1.00  0.00     0.278 C 
HETATM   28  C24 UNL     1       0.324  -0.487  22.364  1.00  0.00     0.278 C 
ENDBRANCH  23  25
ENDBRANCH  22  23
BRANCH  22  29
HETATM   29  O1  UNL     1      -0.871   2.648  19.592  1.00  0.00    -0.344 OA
ATOM     30  H1  UNL     1      -1.755   2.510  19.273  1.00  0.00     0.219 HD
ENDBRANCH  22  29
ENDBRANCH   1  22
BRANCH  21  31
HETATM   31  N6  UNL     1      -0.186   4.531  22.477  1.00  0.00    -0.357 N 
ATOM     32  H6  UNL     1       0.459   5.101  23.024  1.00  0.00     0.162 HD
BRANCH  31  33
HETATM   33  C17 UNL     1      -0.996   5.214  21.555  1.00  0.00     0.173 C 
HETATM   34  N7  UNL     1      -0.549   5.751  20.471  1.00  0.00    -0.382 N 
ATOM     35  H7  UNL     1       0.450   5.671  20.280  1.00  0.00     0.160 HD
BRANCH  34  36
HETATM   36  C18 UNL     1      -1.351   6.450  19.519  1.00  0.00     0.077 C 
HETATM   37  C19 UNL     1      -2.793   5.991  19.693  1.00  0.00     0.032 C 
BRANCH  36  38
HETATM   38  C20 UNL     1      -1.351   7.951  19.744  1.00  0.00     0.020 C 
HETATM   39  C21 UNL     1      -2.661   8.558  19.368  1.00  0.00     0.007 C 
ENDBRANCH  36  38
ENDBRANCH  34  36
ENDBRANCH  31  33
ENDBRANCH  21  31
TORSDOF 8
ENDMDL
