MODEL 1
REMARK VINA RESULT: -8.738397715      0.000      0.000
REMARK  5 active torsions:
REMARK  status: ('A' for Active; 'I' for Inactive)
REMARK    1  A    between atoms: N1_2  and  C2_3 
REMARK    2  A    between atoms: C2_3  and  C3_4 
REMARK       I    between atoms: C3_4  and  N2_6 
REMARK       I    between atoms: N3_9  and  C6_10 
REMARK       I    between atoms: C6_10  and  N4_12 
REMARK       I    between atoms: N4_12  and  C7_14 
REMARK       I    between atoms: C7_14  and  N6_23 
REMARK       I    between atoms: N5_15  and  C8_17 
REMARK    3  A    between atoms: C8_17  and  C9_19 
REMARK    4  A    between atoms: N6_23  and  C13_25 
REMARK    5  A    between atoms: C13_25  and  C14_26 
ROOT
HETATM    1  C3  UNL     1       0.681  -2.439  19.202  1.00  0.00     0.267 C 
HETATM    2  O1  UNL     1       0.205  -2.807  18.101  1.00  0.00    -0.267 OA
HETATM    3  N2  UNL     1       0.376  -1.122  19.613  1.00  0.00    -0.344 N 
HETATM    4  C4  UNL     1      -0.441  -0.237  18.815  1.00  0.00     0.146 C 
HETATM    5  C5  UNL     1      -0.140   1.217  19.115  1.00  0.00     0.147 C 
HETATM    6  N3  UNL     1      -0.225   1.494  20.539  1.00  0.00    -0.330 N 
HETATM    7  C6  UNL     1      -0.562   2.788  20.967  1.00  0.00     0.336 C 
HETATM    8  O2  UNL     1      -0.781   3.686  20.127  1.00  0.00    -0.246 OA
HETATM    9  N4  UNL     1      -0.657   3.091  22.347  1.00  0.00    -0.141 N 
ATOM     10  H4  UNL     1      -0.481   2.364  23.041  1.00  0.00     0.189 HD
HETATM   11  C7  UNL     1      -0.996   4.400  22.765  1.00  0.00     0.685 C 
HETATM   12  N5  UNL     1      -1.084   4.695  23.987  1.00  0.00    -0.159 N 
ATOM     13  H5  UNL     1      -1.334   5.667  24.168  1.00  0.00     0.187 HD
HETATM   14  C8  UNL     1      -0.901   3.928  25.130  1.00  0.00     0.240 C 
HETATM   15  O3  UNL     1       0.112   3.204  25.266  1.00  0.00    -0.272 OA
HETATM   16  N6  UNL     1      -1.245   5.413  21.797  1.00  0.00    -0.222 N 
ATOM     17  H6  UNL     1      -0.461   5.864  21.325  1.00  0.00     0.178 HD
HETATM   18  C18 UNL     1       0.035   0.456  21.486  1.00  0.00     0.147 C 
HETATM   19  C19 UNL     1       0.886  -0.628  20.856  1.00  0.00     0.146 C 
ENDROOT
BRANCH  16  20
HETATM   20  C13 UNL     1      -2.613   5.814  21.472  1.00  0.00     0.178 C 
BRANCH  20  21
HETATM   21  C14 UNL     1      -2.613   6.942  20.510  1.00  0.00    -0.023 A 
HETATM   22  C15 UNL     1      -1.519   7.403  19.816  1.00  0.00     0.027 A 
HETATM   23  C16 UNL     1      -1.923   8.454  19.029  1.00  0.00     0.088 A 
HETATM   24  N7  UNL     1      -3.239   8.628  19.242  1.00  0.00    -0.375 N 
HETATM   25  C17 UNL     1      -3.680   7.733  20.128  1.00  0.00     0.096 A 
ATOM     26  H7  UNL     1      -3.815   9.339  18.793  1.00  0.00     0.164 HD
ENDBRANCH  20  21
ENDBRANCH  16  20
BRANCH  14  27
HETATM   27  C9  UNL     1      -1.909   3.956  26.220  1.00  0.00     0.079 C 
HETATM   28  C10 UNL     1      -1.228   4.049  27.564  1.00  0.00     0.014 C 
HETATM   29  C11 UNL     1      -1.611   5.509  27.625  1.00  0.00     0.002 C 
HETATM   30  C12 UNL     1      -2.565   5.277  26.476  1.00  0.00     0.014 C 
ENDBRANCH  14  27
BRANCH   1  31
HETATM   31  C2  UNL     1       1.506  -3.290  20.036  1.00  0.00     0.275 C 
BRANCH  31  32
HETATM   32  N1  UNL     1       2.860  -3.500  19.657  1.00  0.00    -0.046 N 
HETATM   33  C1  UNL     1       2.918  -4.266  18.406  1.00  0.00     0.278 C 
HETATM   34  C20 UNL     1       3.502  -4.343  20.645  1.00  0.00     0.243 C 
HETATM   35  C21 UNL     1       4.848  -3.727  20.945  1.00  0.00     0.030 C 
HETATM   36  C22 UNL     1       5.062  -2.808  19.789  1.00  0.00     0.030 C 
HETATM   37  C23 UNL     1       3.660  -2.323  19.477  1.00  0.00     0.243 C 
ENDBRANCH  31  32
ENDBRANCH   1  31
TORSDOF 5
ENDMDL
MODEL 2
REMARK VINA RESULT: -8.375658396      1.128      1.516
REMARK  5 active torsions:
REMARK  status: ('A' for Active; 'I' for Inactive)
REMARK    1  A    between atoms: N1_2  and  C2_3 
REMARK    2  A    between atoms: C2_3  and  C3_4 
REMARK       I    between atoms: C3_4  and  N2_6 
REMARK       I    between atoms: N3_9  and  C6_10 
REMARK       I    between atoms: C6_10  and  N4_12 
REMARK       I    between atoms: N4_12  and  C7_14 
REMARK       I    between atoms: C7_14  and  N6_23 
REMARK       I    between atoms: N5_15  and  C8_17 
REMARK    3  A    between atoms: C8_17  and  C9_19 
REMARK    4  A    between atoms: N6_23  and  C13_25 
REMARK    5  A    between atoms: C13_25  and  C14_26 
ROOT
HETATM    1  C3  UNL     1       0.503  -2.986  18.999  1.00  0.00     0.267 C 
HETATM    2  O1  UNL     1      -0.065  -3.548  18.031  1.00  0.00    -0.267 OA
HETATM    3  N2  UNL     1       0.240  -1.609  19.171  1.00  0.00    -0.344 N 
HETATM    4  C4  UNL     1      -0.634  -0.875  18.285  1.00  0.00     0.146 C 
HETATM    5  C5  UNL     1      -0.301   0.602  18.273  1.00  0.00     0.147 C 
HETATM    6  N3  UNL     1      -0.266   1.149  19.619  1.00  0.00    -0.330 N 
HETATM    7  C6  UNL     1      -0.559   2.508  19.815  1.00  0.00     0.336 C 
HETATM    8  O2  UNL     1      -0.842   3.233  18.838  1.00  0.00    -0.246 OA
HETATM    9  N4  UNL     1      -0.538   3.072  21.113  1.00  0.00    -0.141 N 
ATOM     10  H4  UNL     1      -0.309   2.489  21.918  1.00  0.00     0.189 HD
HETATM   11  C7  UNL     1      -0.833   4.445  21.296  1.00  0.00     0.685 C 
HETATM   12  N5  UNL     1      -0.817   4.970  22.442  1.00  0.00    -0.159 N 
ATOM     13  H5  UNL     1      -1.045   5.964  22.451  1.00  0.00     0.187 HD
HETATM   14  C8  UNL     1      -0.545   4.434  23.693  1.00  0.00     0.240 C 
HETATM   15  O3  UNL     1       0.472   3.727  23.884  1.00  0.00    -0.272 OA
HETATM   16  N6  UNL     1      -1.155   5.258  20.174  1.00  0.00    -0.222 N 
ATOM     17  H6  UNL     1      -0.411   5.593  19.562  1.00  0.00     0.178 HD
HETATM   18  C18 UNL     1       0.066   0.306  20.725  1.00  0.00     0.147 C 
HETATM   19  C19 UNL     1       0.855  -0.896  20.250  1.00  0.00     0.146 C 
ENDROOT
BRANCH  16  20
HETATM   20  C13 UNL     1      -2.543   5.618  19.889  1.00  0.00     0.178 C 
BRANCH  20  21
HETATM   21  C14 UNL     1      -2.674   7.082  19.692  1.00  0.00    -0.023 A 
HETATM   22  C15 UNL     1      -3.671   7.874  20.209  1.00  0.00     0.027 A 
HETATM   23  C16 UNL     1      -3.443   9.168  19.806  1.00  0.00     0.088 A 
HETATM   24  N7  UNL     1      -2.327   9.160  19.057  1.00  0.00    -0.375 N 
HETATM   25  C17 UNL     1      -1.843   7.920  18.972  1.00  0.00     0.096 A 
ATOM     26  H7  UNL     1      -1.912   9.982  18.619  1.00  0.00     0.164 HD
ENDBRANCH  20  21
ENDBRANCH  16  20
BRANCH  14  27
HETATM   27  C9  UNL     1      -1.459   4.692  24.834  1.00  0.00     0.079 C 
HETATM   28  C10 UNL     1      -2.875   4.871  24.343  1.00  0.00     0.014 C 
HETATM   29  C11 UNL     1      -3.191   3.480  24.838  1.00  0.00     0.002 C 
HETATM   30  C12 UNL     1      -1.895   3.492  25.613  1.00  0.00     0.014 C 
ENDBRANCH  14  27
BRANCH   1  31
HETATM   31  C2  UNL     1       1.390  -3.679  19.913  1.00  0.00     0.275 C 
BRANCH  31  32
HETATM   32  N1  UNL     1       2.759  -3.811  19.556  1.00  0.00    -0.046 N 
HETATM   33  C1  UNL     1       2.879  -4.516  18.274  1.00  0.00     0.278 C 
HETATM   34  C20 UNL     1       3.419  -4.668  20.521  1.00  0.00     0.243 C 
HETATM   35  C21 UNL     1       4.728  -4.007  20.878  1.00  0.00     0.030 C 
HETATM   36  C22 UNL     1       4.924  -3.028  19.770  1.00  0.00     0.030 C 
HETATM   37  C23 UNL     1       3.508  -2.592  19.448  1.00  0.00     0.243 C 
ENDBRANCH  31  32
ENDBRANCH   1  31
TORSDOF 5
ENDMDL
MODEL 3
REMARK VINA RESULT: -7.885247948      2.729     10.368
REMARK  5 active torsions:
REMARK  status: ('A' for Active; 'I' for Inactive)
REMARK    1  A    between atoms: N1_2  and  C2_3 
REMARK    2  A    between atoms: C2_3  and  C3_4 
REMARK       I    between atoms: C3_4  and  N2_6 
REMARK       I    between atoms: N3_9  and  C6_10 
REMARK       I    between atoms: C6_10  and  N4_12 
REMARK       I    between atoms: N4_12  and  C7_14 
REMARK       I    between atoms: C7_14  and  N6_23 
REMARK       I    between atoms: N5_15  and  C8_17 
REMARK    3  A    between atoms: C8_17  and  C9_19 
REMARK    4  A    between atoms: N6_23  and  C13_25 
REMARK    5  A    between atoms: C13_25  and  C14_26 
ROOT
HETATM    1  C3  UNL     1      -2.927   2.845  22.237  1.00  0.00     0.267 C 
HETATM    2  O1  UNL     1      -2.933   2.783  23.490  1.00  0.00    -0.267 OA
HETATM    3  N2  UNL     1      -1.996   2.019  21.568  1.00  0.00    -0.344 N 
HETATM    4  C4  UNL     1      -1.093   1.145  22.281  1.00  0.00     0.146 C 
HETATM    5  C5  UNL     1       0.150   0.848  21.467  1.00  0.00     0.147 C 
HETATM    6  N3  UNL     1      -0.188   0.359  20.141  1.00  0.00    -0.330 N 
HETATM    7  C6  UNL     1       0.708  -0.492  19.476  1.00  0.00     0.336 C 
HETATM    8  O2  UNL     1       1.783  -0.818  20.022  1.00  0.00    -0.246 OA
HETATM    9  N4  UNL     1       0.409  -0.990  18.185  1.00  0.00    -0.141 N 
ATOM     10  H4  UNL     1      -0.467  -0.731  17.730  1.00  0.00     0.189 HD
HETATM   11  C7  UNL     1       1.322  -1.846  17.523  1.00  0.00     0.685 C 
HETATM   12  N5  UNL     1       1.078  -2.299  16.373  1.00  0.00    -0.159 N 
ATOM     13  H5  UNL     1       1.808  -2.904  15.996  1.00  0.00     0.187 HD
HETATM   14  C8  UNL     1      -0.008  -2.120  15.528  1.00  0.00     0.240 C 
HETATM   15  O3  UNL     1      -0.459  -0.975  15.290  1.00  0.00    -0.272 OA
HETATM   16  N6  UNL     1       2.542  -2.210  18.159  1.00  0.00    -0.222 N 
ATOM     17  H6  UNL     1       3.317  -1.548  18.180  1.00  0.00     0.178 HD
HETATM   18  C18 UNL     1      -1.420   0.746  19.529  1.00  0.00     0.147 C 
HETATM   19  C19 UNL     1      -1.926   2.037  20.139  1.00  0.00     0.146 C 
ENDROOT
BRANCH  16  20
HETATM   20  C13 UNL     1       2.695  -3.524  18.782  1.00  0.00     0.178 C 
BRANCH  20  21
HETATM   21  C14 UNL     1       3.836  -3.524  19.729  1.00  0.00    -0.023 A 
HETATM   22  C15 UNL     1       4.090  -4.487  20.676  1.00  0.00     0.027 A 
HETATM   23  C16 UNL     1       5.234  -4.133  21.351  1.00  0.00     0.088 A 
HETATM   24  N7  UNL     1       5.664  -2.975  20.822  1.00  0.00    -0.375 N 
HETATM   25  C17 UNL     1       4.844  -2.585  19.845  1.00  0.00     0.096 A 
ATOM     26  H7  UNL     1       6.496  -2.468  21.124  1.00  0.00     0.164 HD
ENDBRANCH  20  21
ENDBRANCH  16  20
BRANCH  14  27
HETATM   27  C9  UNL     1      -0.658  -3.290  14.884  1.00  0.00     0.079 C 
HETATM   28  C10 UNL     1      -0.415  -4.538  15.696  1.00  0.00     0.014 C 
HETATM   29  C11 UNL     1      -1.835  -4.451  16.202  1.00  0.00     0.002 C 
HETATM   30  C12 UNL     1      -2.128  -3.439  15.119  1.00  0.00     0.014 C 
ENDBRANCH  14  27
BRANCH   1  31
HETATM   31  C2  UNL     1      -3.812   3.708  21.479  1.00  0.00     0.275 C 
BRANCH  31  32
HETATM   32  N1  UNL     1      -3.396   5.043  21.221  1.00  0.00    -0.046 N 
HETATM   33  C1  UNL     1      -4.372   5.989  21.774  1.00  0.00     0.278 C 
HETATM   34  C20 UNL     1      -3.414   5.275  19.790  1.00  0.00     0.243 C 
HETATM   35  C21 UNL     1      -2.131   5.991  19.442  1.00  0.00     0.030 C 
HETATM   36  C22 UNL     1      -1.661   6.501  20.763  1.00  0.00     0.030 C 
HETATM   37  C23 UNL     1      -2.105   5.415  21.723  1.00  0.00     0.243 C 
ENDBRANCH  31  32
ENDBRANCH   1  31
TORSDOF 5
ENDMDL
MODEL 4
REMARK VINA RESULT: -7.848848888      2.034      2.547
REMARK  5 active torsions:
REMARK  status: ('A' for Active; 'I' for Inactive)
REMARK    1  A    between atoms: N1_2  and  C2_3 
REMARK    2  A    between atoms: C2_3  and  C3_4 
REMARK       I    between atoms: C3_4  and  N2_6 
REMARK       I    between atoms: N3_9  and  C6_10 
REMARK       I    between atoms: C6_10  and  N4_12 
REMARK       I    between atoms: N4_12  and  C7_14 
REMARK       I    between atoms: C7_14  and  N6_23 
REMARK       I    between atoms: N5_15  and  C8_17 
REMARK    3  A    between atoms: C8_17  and  C9_19 
REMARK    4  A    between atoms: N6_23  and  C13_25 
REMARK    5  A    between atoms: C13_25  and  C14_26 
ROOT
HETATM    1  C3  UNL     1       0.627  -2.197  18.091  1.00  0.00     0.267 C 
HETATM    2  O1  UNL     1       0.729  -2.373  16.852  1.00  0.00    -0.267 OA
HETATM    3  N2  UNL     1       0.180  -0.925  18.513  1.00  0.00    -0.344 N 
HETATM    4  C4  UNL     1      -0.145   0.126  17.576  1.00  0.00     0.146 C 
HETATM    5  C5  UNL     1      -0.003   1.496  18.208  1.00  0.00     0.147 C 
HETATM    6  N3  UNL     1      -0.753   1.588  19.449  1.00  0.00    -0.330 N 
HETATM    7  C6  UNL     1      -1.236   2.838  19.867  1.00  0.00     0.336 C 
HETATM    8  O2  UNL     1      -1.017   3.855  19.176  1.00  0.00    -0.246 OA
HETATM    9  N4  UNL     1      -1.974   2.963  21.069  1.00  0.00    -0.141 N 
ATOM     10  H4  UNL     1      -2.160   2.138  21.640  1.00  0.00     0.189 HD
HETATM   11  C7  UNL     1      -2.453   4.230  21.480  1.00  0.00     0.685 C 
HETATM   12  N5  UNL     1      -3.109   4.366  22.548  1.00  0.00    -0.159 N 
ATOM     13  H5  UNL     1      -3.402   5.324  22.742  1.00  0.00     0.187 HD
HETATM   14  C8  UNL     1      -3.504   3.442  23.506  1.00  0.00     0.240 C 
HETATM   15  O3  UNL     1      -2.688   2.620  23.985  1.00  0.00    -0.272 OA
HETATM   16  N6  UNL     1      -2.197   5.380  20.682  1.00  0.00    -0.222 N 
ATOM     17  H6  UNL     1      -1.277   5.819  20.711  1.00  0.00     0.178 HD
HETATM   18  C18 UNL     1      -0.990   0.415  20.230  1.00  0.00     0.147 C 
HETATM   19  C19 UNL     1       0.043  -0.646  19.910  1.00  0.00     0.146 C 
ENDROOT
BRANCH  16  20
HETATM   20  C13 UNL     1      -3.239   5.937  19.822  1.00  0.00     0.178 C 
BRANCH  20  21
HETATM   21  C14 UNL     1      -3.041   7.395  19.638  1.00  0.00    -0.023 A 
HETATM   22  C15 UNL     1      -3.876   8.382  20.108  1.00  0.00     0.027 A 
HETATM   23  C16 UNL     1      -3.353   9.597  19.738  1.00  0.00     0.088 A 
HETATM   24  N7  UNL     1      -2.221   9.352  19.055  1.00  0.00    -0.375 N 
HETATM   25  C17 UNL     1      -2.009   8.036  18.980  1.00  0.00     0.096 A 
ATOM     26  H7  UNL     1      -1.614  10.066  18.653  1.00  0.00     0.164 HD
ENDBRANCH  20  21
ENDBRANCH  16  20
BRANCH  14  27
HETATM   27  C9  UNL     1      -4.910   3.413  23.985  1.00  0.00     0.079 C 
HETATM   28  C10 UNL     1      -5.756   4.376  23.188  1.00  0.00     0.014 C 
HETATM   29  C11 UNL     1      -6.338   3.200  22.440  1.00  0.00     0.002 C 
HETATM   30  C12 UNL     1      -5.752   2.281  23.486  1.00  0.00     0.014 C 
ENDBRANCH  14  27
BRANCH   1  31
HETATM   31  C2  UNL     1       0.943  -3.220  19.068  1.00  0.00     0.275 C 
BRANCH  31  32
HETATM   32  N1  UNL     1       2.311  -3.506  19.328  1.00  0.00    -0.046 N 
HETATM   33  C1  UNL     1       2.705  -4.742  18.641  1.00  0.00     0.278 C 
HETATM   34  C20 UNL     1       2.475  -3.791  20.740  1.00  0.00     0.243 C 
HETATM   35  C21 UNL     1       3.698  -3.038  21.204  1.00  0.00     0.030 C 
HETATM   36  C22 UNL     1       4.399  -2.715  19.927  1.00  0.00     0.030 C 
HETATM   37  C23 UNL     1       3.254  -2.491  18.959  1.00  0.00     0.243 C 
ENDBRANCH  31  32
ENDBRANCH   1  31
TORSDOF 5
ENDMDL
MODEL 5
REMARK VINA RESULT: -7.811540343      2.601      5.457
REMARK  5 active torsions:
REMARK  status: ('A' for Active; 'I' for Inactive)
REMARK    1  A    between atoms: N1_2  and  C2_3 
REMARK    2  A    between atoms: C2_3  and  C3_4 
REMARK       I    between atoms: C3_4  and  N2_6 
REMARK       I    between atoms: N3_9  and  C6_10 
REMARK       I    between atoms: C6_10  and  N4_12 
REMARK       I    between atoms: N4_12  and  C7_14 
REMARK       I    between atoms: C7_14  and  N6_23 
REMARK       I    between atoms: N5_15  and  C8_17 
REMARK    3  A    between atoms: C8_17  and  C9_19 
REMARK    4  A    between atoms: N6_23  and  C13_25 
REMARK    5  A    between atoms: C13_25  and  C14_26 
ROOT
HETATM    1  C3  UNL     1       0.604  -1.674  17.086  1.00  0.00     0.267 C 
HETATM    2  O1  UNL     1       1.460  -2.532  17.412  1.00  0.00    -0.267 OA
HETATM    3  N2  UNL     1       0.083  -0.874  18.128  1.00  0.00    -0.344 N 
HETATM    4  C4  UNL     1       0.507  -1.029  19.501  1.00  0.00     0.146 C 
HETATM    5  C5  UNL     1      -0.555  -0.546  20.467  1.00  0.00     0.147 C 
HETATM    6  N3  UNL     1      -0.983   0.807  20.152  1.00  0.00    -0.330 N 
HETATM    7  C6  UNL     1      -1.469   1.628  21.181  1.00  0.00     0.336 C 
HETATM    8  O2  UNL     1      -1.534   1.194  22.351  1.00  0.00    -0.246 OA
HETATM    9  N4  UNL     1      -1.892   2.952  20.911  1.00  0.00    -0.141 N 
ATOM     10  H4  UNL     1      -1.842   3.318  19.959  1.00  0.00     0.189 HD
HETATM   11  C7  UNL     1      -2.383   3.770  21.957  1.00  0.00     0.685 C 
HETATM   12  N5  UNL     1      -2.767   4.951  21.739  1.00  0.00    -0.159 N 
ATOM     13  H5  UNL     1      -3.100   5.443  22.568  1.00  0.00     0.187 HD
HETATM   14  C8  UNL     1      -2.815   5.698  20.571  1.00  0.00     0.240 C 
HETATM   15  O3  UNL     1      -3.316   5.227  19.524  1.00  0.00    -0.272 OA
HETATM   16  N6  UNL     1      -2.449   3.262  23.285  1.00  0.00    -0.222 N 
ATOM     17  H6  UNL     1      -3.205   2.629  23.546  1.00  0.00     0.178 HD
HETATM   18  C18 UNL     1      -0.908   1.286  18.808  1.00  0.00     0.147 C 
HETATM   19  C19 UNL     1      -0.900   0.124  17.837  1.00  0.00     0.146 C 
ENDROOT
BRANCH  16  20
HETATM   20  C13 UNL     1      -1.443   3.637  24.277  1.00  0.00     0.178 C 
BRANCH  20  21
HETATM   21  C14 UNL     1      -2.029   4.537  25.300  1.00  0.00    -0.023 A 
HETATM   22  C15 UNL     1      -1.468   4.835  26.519  1.00  0.00     0.027 A 
HETATM   23  C16 UNL     1      -2.308   5.701  27.177  1.00  0.00     0.088 A 
HETATM   24  N7  UNL     1      -3.360   5.923  26.371  1.00  0.00    -0.375 N 
HETATM   25  C17 UNL     1      -3.219   5.236  25.235  1.00  0.00     0.096 A 
ATOM     26  H7  UNL     1      -4.151   6.527  26.594  1.00  0.00     0.164 HD
ENDBRANCH  20  21
ENDBRANCH  16  20
BRANCH  14  27
HETATM   27  C9  UNL     1      -2.272   7.081  20.543  1.00  0.00     0.079 C 
HETATM   28  C10 UNL     1      -0.889   7.089  19.939  1.00  0.00     0.014 C 
HETATM   29  C11 UNL     1      -1.479   7.653  18.668  1.00  0.00     0.002 C 
HETATM   30  C12 UNL     1      -2.751   7.953  19.425  1.00  0.00     0.014 C 
ENDBRANCH  14  27
BRANCH   1  31
HETATM   31  C2  UNL     1       0.147  -1.483  15.723  1.00  0.00     0.275 C 
BRANCH  31  32
HETATM   32  N1  UNL     1      -0.571  -2.539  15.098  1.00  0.00    -0.046 N 
HETATM   33  C1  UNL     1      -1.146  -2.075  13.830  1.00  0.00     0.278 C 
HETATM   34  C20 UNL     1      -1.711  -2.888  15.923  1.00  0.00     0.243 C 
HETATM   35  C21 UNL     1      -1.758  -4.396  15.997  1.00  0.00     0.030 C 
HETATM   36  C22 UNL     1      -0.892  -4.816  14.857  1.00  0.00     0.030 C 
HETATM   37  C23 UNL     1       0.170  -3.735  14.821  1.00  0.00     0.243 C 
ENDBRANCH  31  32
ENDBRANCH   1  31
TORSDOF 5
ENDMDL
