MODEL 1
REMARK VINA RESULT: -6.508200553      0.000      0.000
REMARK  13 active torsions:
REMARK  status: ('A' for Active; 'I' for Inactive)
REMARK    1  A    between atoms: C2_2  and  C3_3 
REMARK    2  A    between atoms: C3_3  and  C4_4 
REMARK    3  A    between atoms: C4_4  and  C5_5 
REMARK    4  A    between atoms: C5_5  and  C6_6 
REMARK    5  A    between atoms: C6_6  and  C7_7 
REMARK    6  A    between atoms: C7_7  and  C8_8 
REMARK    7  A    between atoms: C9_9  and  C10_10 
REMARK    8  A    between atoms: C10_10  and  O1_11 
REMARK    9  A    between atoms: C16_18  and  O2_19 
REMARK   10  A    between atoms: C17_21  and  O3_22 
REMARK   11  A    between atoms: C22_27  and  C23_28 
REMARK   12  A    between atoms: C24_29  and  C25_30 
REMARK   13  A    between atoms: C26_31  and  C27_32 
ROOT
HETATM    1  C10 UNL     1      -0.761   3.309  21.307  1.00  0.00     0.145 C 
HETATM    2  C11 UNL     1      -1.677   3.476  20.144  1.00  0.00     0.051 A 
HETATM    3  C12 UNL     1      -2.760   2.631  20.359  1.00  0.00     0.012 A 
HETATM    4  C13 UNL     1      -2.791   2.433  21.893  1.00  0.00     0.017 C 
HETATM    5  C14 UNL     1      -4.165   3.015  22.120  1.00  0.00     0.015 C 
HETATM    6  C15 UNL     1      -4.090   4.157  21.201  1.00  0.00     0.035 C 
HETATM    7  C16 UNL     1      -3.275   5.315  21.699  1.00  0.00     0.094 C 
HETATM    8  C17 UNL     1      -2.976   5.386  20.186  1.00  0.00     0.165 C 
HETATM    9  C19 UNL     1      -3.041   3.972  20.164  1.00  0.00     0.008 A 
HETATM   10  C20 UNL     1      -2.188   4.815  22.561  1.00  0.00     0.044 C 
HETATM   11  C21 UNL     1      -2.515   5.238  23.995  1.00  0.00     0.015 C 
HETATM   12  C22 UNL     1      -1.789   3.400  22.450  1.00  0.00     0.077 C 
ENDROOT
BRANCH   1  13
HETATM   13  C9  UNL     1      -0.211   1.950  21.295  1.00  0.00    -0.066 C 
HETATM   14  C8  UNL     1       0.258   0.838  21.291  1.00  0.00    -0.098 C 
BRANCH  14  15
HETATM   15  C7  UNL     1       0.817  -0.549  21.305  1.00  0.00     0.146 C 
BRANCH  15  16
HETATM   16  C6  UNL     1       1.835  -0.760  20.285  1.00  0.00    -0.007 C 
HETATM   17  N1  UNL     1       2.977  -1.255  20.699  1.00  0.00    -0.400 N 
HETATM   18  C30 UNL     1       4.054  -1.513  19.787  1.00  0.00     0.145 C 
ATOM     19  H1  UNL     1       3.102  -1.462  21.690  1.00  0.00     0.158 HD
BRANCH  16  20
HETATM   20  C5  UNL     1       1.745  -0.495  18.857  1.00  0.00     0.053 C 
BRANCH  20  21
HETATM   21  C4  UNL     1       0.792  -1.240  18.003  1.00  0.00     0.009 C 
BRANCH  21  22
HETATM   22  C3  UNL     1      -0.074  -0.388  17.156  1.00  0.00     0.026 C 
BRANCH  22  23
HETATM   23  C2  UNL     1      -1.161   0.189  18.058  1.00  0.00    -0.037 C 
HETATM   24  C1  UNL     1      -1.979  -0.658  18.651  1.00  0.00     0.007 C 
ENDBRANCH  22  23
ENDBRANCH  21  22
ENDBRANCH  20  21
ENDBRANCH  16  20
ENDBRANCH  15  16
ENDBRANCH  14  15
ENDBRANCH   1  13
BRANCH   1  25
HETATM   25  O1  UNL     1       0.205   4.281  21.419  1.00  0.00    -0.375 OA
ATOM     26  H1  UNL     1       0.847   4.093  22.092  1.00  0.00     0.211 HD
ENDBRANCH   1  25
BRANCH  12  27
HETATM   27  C23 UNL     1      -1.180   2.908  23.686  1.00  0.00    -0.077 C 
HETATM   28  C24 UNL     1      -0.655   2.502  24.709  1.00  0.00    -0.014 C 
BRANCH  28  29
HETATM   29  C25 UNL     1      -0.022   2.031  25.887  1.00  0.00    -0.010 C 
HETATM   30  C26 UNL     1       0.533   1.617  26.883  1.00  0.00    -0.065 C 
BRANCH  30  31
HETATM   31  C27 UNL     1       1.198   1.112  28.042  1.00  0.00     0.061 C 
HETATM   32  C28 UNL     1       2.310   0.399  27.904  1.00  0.00    -0.022 C 
HETATM   33  C29 UNL     1       2.883   0.110  26.576  1.00  0.00     0.036 C 
ENDBRANCH  30  31
ENDBRANCH  28  29
ENDBRANCH  12  27
BRANCH   8  34
HETATM   34  O3  UNL     1      -1.874   6.141  19.907  1.00  0.00    -0.387 OA
HETATM   35  C18 UNL     1      -2.158   7.318  19.221  1.00  0.00     0.202 C 
ENDBRANCH   8  34
BRANCH   7  36
HETATM   36  O2  UNL     1      -4.033   6.362  22.161  1.00  0.00    -0.386 OA
ATOM     37  H2  UNL     1      -4.608   6.127  22.880  1.00  0.00     0.210 HD
ENDBRANCH   7  36
TORSDOF 13
ENDMDL
MODEL 2
REMARK VINA RESULT: -6.426821316      1.056      1.409
REMARK  13 active torsions:
REMARK  status: ('A' for Active; 'I' for Inactive)
REMARK    1  A    between atoms: C2_2  and  C3_3 
REMARK    2  A    between atoms: C3_3  and  C4_4 
REMARK    3  A    between atoms: C4_4  and  C5_5 
REMARK    4  A    between atoms: C5_5  and  C6_6 
REMARK    5  A    between atoms: C6_6  and  C7_7 
REMARK    6  A    between atoms: C7_7  and  C8_8 
REMARK    7  A    between atoms: C9_9  and  C10_10 
REMARK    8  A    between atoms: C10_10  and  O1_11 
REMARK    9  A    between atoms: C16_18  and  O2_19 
REMARK   10  A    between atoms: C17_21  and  O3_22 
REMARK   11  A    between atoms: C22_27  and  C23_28 
REMARK   12  A    between atoms: C24_29  and  C25_30 
REMARK   13  A    between atoms: C26_31  and  C27_32 
ROOT
HETATM    1  C10 UNL     1      -0.953   3.682  21.360  1.00  0.00     0.145 C 
HETATM    2  C11 UNL     1      -1.737   3.768  20.096  1.00  0.00     0.051 A 
HETATM    3  C12 UNL     1      -2.802   2.885  20.222  1.00  0.00     0.012 A 
HETATM    4  C13 UNL     1      -3.000   2.740  21.749  1.00  0.00     0.017 C 
HETATM    5  C14 UNL     1      -4.413   3.268  21.797  1.00  0.00     0.015 C 
HETATM    6  C15 UNL     1      -4.279   4.380  20.848  1.00  0.00     0.035 C 
HETATM    7  C16 UNL     1      -3.571   5.589  21.388  1.00  0.00     0.094 C 
HETATM    8  C17 UNL     1      -3.106   5.620  19.917  1.00  0.00     0.165 C 
HETATM    9  C19 UNL     1      -3.112   4.205  19.943  1.00  0.00     0.008 A 
HETATM   10  C20 UNL     1      -2.570   5.167  22.386  1.00  0.00     0.044 C 
HETATM   11  C21 UNL     1      -3.075   5.625  23.756  1.00  0.00     0.015 C 
HETATM   12  C22 UNL     1      -2.106   3.768  22.376  1.00  0.00     0.077 C 
ENDROOT
BRANCH   1  13
HETATM   13  C9  UNL     1      -0.352   2.348  21.463  1.00  0.00    -0.066 C 
HETATM   14  C8  UNL     1       0.149   1.252  21.531  1.00  0.00    -0.098 C 
BRANCH  14  15
HETATM   15  C7  UNL     1       0.785  -0.097  21.640  1.00  0.00     0.146 C 
BRANCH  15  16
HETATM   16  C6  UNL     1       1.749  -0.356  20.579  1.00  0.00    -0.007 C 
HETATM   17  N1  UNL     1       2.742  -1.158  20.881  1.00  0.00    -0.400 N 
HETATM   18  C30 UNL     1       3.750  -1.493  19.917  1.00  0.00     0.145 C 
ATOM     19  H1  UNL     1       2.798  -1.551  21.820  1.00  0.00     0.158 HD
BRANCH  16  20
HETATM   20  C5  UNL     1       1.747   0.160  19.219  1.00  0.00     0.053 C 
BRANCH  20  21
HETATM   21  C4  UNL     1       0.770  -0.329  18.219  1.00  0.00     0.009 C 
BRANCH  21  22
HETATM   22  C3  UNL     1      -0.455   0.494  18.099  1.00  0.00     0.026 C 
BRANCH  22  23
HETATM   23  C2  UNL     1      -1.647  -0.452  18.207  1.00  0.00    -0.037 C 
HETATM   24  C1  UNL     1      -2.194  -0.615  19.396  1.00  0.00     0.007 C 
ENDBRANCH  22  23
ENDBRANCH  21  22
ENDBRANCH  20  21
ENDBRANCH  16  20
ENDBRANCH  15  16
ENDBRANCH  14  15
ENDBRANCH   1  13
BRANCH   1  25
HETATM   25  O1  UNL     1      -0.045   4.698  21.541  1.00  0.00    -0.375 OA
ATOM     26  H1  UNL     1       0.019   5.279  20.792  1.00  0.00     0.211 HD
ENDBRANCH   1  25
BRANCH  12  27
HETATM   27  C23 UNL     1      -1.623   3.346  23.691  1.00  0.00    -0.077 C 
HETATM   28  C24 UNL     1      -1.224   3.013  24.794  1.00  0.00    -0.014 C 
BRANCH  28  29
HETATM   29  C25 UNL     1      -0.761   2.649  26.084  1.00  0.00    -0.010 C 
HETATM   30  C26 UNL     1      -0.373   2.355  27.195  1.00  0.00    -0.065 C 
BRANCH  30  31
HETATM   31  C27 UNL     1       0.079   2.033  28.512  1.00  0.00     0.061 C 
HETATM   32  C28 UNL     1      -0.153   2.876  29.511  1.00  0.00    -0.022 C 
HETATM   33  C29 UNL     1      -0.870   4.148  29.300  1.00  0.00     0.036 C 
ENDBRANCH  30  31
ENDBRANCH  28  29
ENDBRANCH  12  27
BRANCH   8  34
HETATM   34  O3  UNL     1      -2.010   6.412  19.733  1.00  0.00    -0.387 OA
HETATM   35  C18 UNL     1      -2.288   7.620  19.101  1.00  0.00     0.202 C 
ENDBRANCH   8  34
BRANCH   7  36
HETATM   36  O2  UNL     1      -4.417   6.618  21.721  1.00  0.00    -0.386 OA
ATOM     37  H2  UNL     1      -3.997   7.311  22.215  1.00  0.00     0.210 HD
ENDBRANCH   7  36
TORSDOF 13
ENDMDL
MODEL 3
REMARK VINA RESULT: -6.266587705      0.957      2.169
REMARK  13 active torsions:
REMARK  status: ('A' for Active; 'I' for Inactive)
REMARK    1  A    between atoms: C2_2  and  C3_3 
REMARK    2  A    between atoms: C3_3  and  C4_4 
REMARK    3  A    between atoms: C4_4  and  C5_5 
REMARK    4  A    between atoms: C5_5  and  C6_6 
REMARK    5  A    between atoms: C6_6  and  C7_7 
REMARK    6  A    between atoms: C7_7  and  C8_8 
REMARK    7  A    between atoms: C9_9  and  C10_10 
REMARK    8  A    between atoms: C10_10  and  O1_11 
REMARK    9  A    between atoms: C16_18  and  O2_19 
REMARK   10  A    between atoms: C17_21  and  O3_22 
REMARK   11  A    between atoms: C22_27  and  C23_28 
REMARK   12  A    between atoms: C24_29  and  C25_30 
REMARK   13  A    between atoms: C26_31  and  C27_32 
ROOT
HETATM    1  C10 UNL     1      -0.918   3.547  21.181  1.00  0.00     0.145 C 
HETATM    2  C11 UNL     1      -1.855   3.729  20.036  1.00  0.00     0.051 A 
HETATM    3  C12 UNL     1      -2.898   2.830  20.222  1.00  0.00     0.012 A 
HETATM    4  C13 UNL     1      -2.903   2.560  21.745  1.00  0.00     0.017 C 
HETATM    5  C14 UNL     1      -4.297   3.071  22.012  1.00  0.00     0.015 C 
HETATM    6  C15 UNL     1      -4.281   4.257  21.147  1.00  0.00     0.035 C 
HETATM    7  C16 UNL     1      -3.509   5.424  21.692  1.00  0.00     0.094 C 
HETATM    8  C17 UNL     1      -3.232   5.578  20.181  1.00  0.00     0.165 C 
HETATM    9  C19 UNL     1      -3.237   4.165  20.092  1.00  0.00     0.008 A 
HETATM   10  C20 UNL     1      -2.392   4.931  22.518  1.00  0.00     0.044 C 
HETATM   11  C21 UNL     1      -2.719   5.272  23.974  1.00  0.00     0.015 C 
HETATM   12  C22 UNL     1      -1.935   3.541  22.337  1.00  0.00     0.077 C 
ENDROOT
BRANCH   1  13
HETATM   13  C9  UNL     1      -0.312   2.214  21.099  1.00  0.00    -0.066 C 
HETATM   14  C8  UNL     1       0.178   1.114  21.016  1.00  0.00    -0.098 C 
BRANCH  14  15
HETATM   15  C7  UNL     1       0.812  -0.236  20.914  1.00  0.00     0.146 C 
BRANCH  15  16
HETATM   16  C6  UNL     1       0.622  -0.854  19.609  1.00  0.00    -0.007 C 
HETATM   17  N1  UNL     1       0.290  -0.049  18.629  1.00  0.00    -0.400 N 
HETATM   18  C30 UNL     1       0.082  -0.541  17.297  1.00  0.00     0.145 C 
ATOM     19  H1  UNL     1       0.177   0.947  18.816  1.00  0.00     0.158 HD
BRANCH  16  20
HETATM   20  C5  UNL     1       0.761  -2.258  19.252  1.00  0.00     0.053 C 
BRANCH  20  21
HETATM   21  C4  UNL     1       2.066  -2.948  19.365  1.00  0.00     0.009 C 
BRANCH  21  22
HETATM   22  C3  UNL     1       3.182  -2.276  18.661  1.00  0.00     0.026 C 
BRANCH  22  23
HETATM   23  C2  UNL     1       4.226  -1.912  19.713  1.00  0.00    -0.037 C 
HETATM   24  C1  UNL     1       5.098  -2.839  20.056  1.00  0.00     0.007 C 
ENDBRANCH  22  23
ENDBRANCH  21  22
ENDBRANCH  20  21
ENDBRANCH  16  20
ENDBRANCH  15  16
ENDBRANCH  14  15
ENDBRANCH   1  13
BRANCH   1  25
HETATM   25  O1  UNL     1       0.007   4.553  21.328  1.00  0.00    -0.375 OA
ATOM     26  H1  UNL     1      -0.383   5.419  21.351  1.00  0.00     0.211 HD
ENDBRANCH   1  25
BRANCH  12  27
HETATM   27  C23 UNL     1      -1.292   3.018  23.542  1.00  0.00    -0.077 C 
HETATM   28  C24 UNL     1      -0.744   2.598  24.547  1.00  0.00    -0.014 C 
BRANCH  28  29
HETATM   29  C25 UNL     1      -0.089   2.127  25.713  1.00  0.00    -0.010 C 
HETATM   30  C26 UNL     1       0.463   1.740  26.722  1.00  0.00    -0.065 C 
BRANCH  30  31
HETATM   31  C27 UNL     1       1.107   1.306  27.921  1.00  0.00     0.061 C 
HETATM   32  C28 UNL     1       2.202   0.558  27.846  1.00  0.00    -0.022 C 
HETATM   33  C29 UNL     1       2.777   0.158  26.549  1.00  0.00     0.036 C 
ENDBRANCH  30  31
ENDBRANCH  28  29
ENDBRANCH  12  27
BRANCH   8  34
HETATM   34  O3  UNL     1      -2.166   6.391  19.927  1.00  0.00    -0.387 OA
HETATM   35  C18 UNL     1      -2.495   7.550  19.229  1.00  0.00     0.202 C 
ENDBRANCH   8  34
BRANCH   7  36
HETATM   36  O2  UNL     1      -4.304   6.415  22.210  1.00  0.00    -0.386 OA
ATOM     37  H2  UNL     1      -3.831   7.213  22.418  1.00  0.00     0.210 HD
ENDBRANCH   7  36
TORSDOF 13
ENDMDL
MODEL 4
REMARK VINA RESULT: -6.255475841      0.777      1.086
REMARK  13 active torsions:
REMARK  status: ('A' for Active; 'I' for Inactive)
REMARK    1  A    between atoms: C2_2  and  C3_3 
REMARK    2  A    between atoms: C3_3  and  C4_4 
REMARK    3  A    between atoms: C4_4  and  C5_5 
REMARK    4  A    between atoms: C5_5  and  C6_6 
REMARK    5  A    between atoms: C6_6  and  C7_7 
REMARK    6  A    between atoms: C7_7  and  C8_8 
REMARK    7  A    between atoms: C9_9  and  C10_10 
REMARK    8  A    between atoms: C10_10  and  O1_11 
REMARK    9  A    between atoms: C16_18  and  O2_19 
REMARK   10  A    between atoms: C17_21  and  O3_22 
REMARK   11  A    between atoms: C22_27  and  C23_28 
REMARK   12  A    between atoms: C24_29  and  C25_30 
REMARK   13  A    between atoms: C26_31  and  C27_32 
ROOT
HETATM    1  C10 UNL     1      -0.928   3.600  21.160  1.00  0.00     0.145 C 
HETATM    2  C11 UNL     1      -1.874   3.774  20.023  1.00  0.00     0.051 A 
HETATM    3  C12 UNL     1      -2.902   2.857  20.210  1.00  0.00     0.012 A 
HETATM    4  C13 UNL     1      -2.892   2.578  21.732  1.00  0.00     0.017 C 
HETATM    5  C14 UNL     1      -4.293   3.065  22.012  1.00  0.00     0.015 C 
HETATM    6  C15 UNL     1      -4.301   4.257  21.154  1.00  0.00     0.035 C 
HETATM    7  C16 UNL     1      -3.544   5.433  21.700  1.00  0.00     0.094 C 
HETATM    8  C17 UNL     1      -3.279   5.600  20.189  1.00  0.00     0.165 C 
HETATM    9  C19 UNL     1      -3.263   4.188  20.091  1.00  0.00     0.008 A 
HETATM   10  C20 UNL     1      -2.413   4.952  22.516  1.00  0.00     0.044 C 
HETATM   11  C21 UNL     1      -2.736   5.279  23.976  1.00  0.00     0.015 C 
HETATM   12  C22 UNL     1      -1.936   3.571  22.323  1.00  0.00     0.077 C 
ENDROOT
BRANCH   1  13
HETATM   13  C9  UNL     1      -0.301   2.277  21.066  1.00  0.00    -0.066 C 
HETATM   14  C8  UNL     1       0.231   1.196  20.994  1.00  0.00    -0.098 C 
BRANCH  14  15
HETATM   15  C7  UNL     1       0.870  -0.154  20.925  1.00  0.00     0.146 C 
BRANCH  15  16
HETATM   16  C6  UNL     1       0.986  -0.656  19.563  1.00  0.00    -0.007 C 
HETATM   17  N1  UNL     1       1.717  -1.734  19.403  1.00  0.00    -0.400 N 
HETATM   18  C30 UNL     1       1.901  -2.326  18.109  1.00  0.00     0.145 C 
ATOM     19  H1  UNL     1       2.163  -2.160  20.214  1.00  0.00     0.158 HD
BRANCH  16  20
HETATM   20  C5  UNL     1       0.388  -0.116  18.352  1.00  0.00     0.053 C 
BRANCH  20  21
HETATM   21  C4  UNL     1      -1.082  -0.049  18.192  1.00  0.00     0.009 C 
BRANCH  21  22
HETATM   22  C3  UNL     1      -1.807  -1.259  18.645  1.00  0.00     0.026 C 
BRANCH  22  23
HETATM   23  C2  UNL     1      -2.694  -0.842  19.815  1.00  0.00    -0.037 C 
HETATM   24  C1  UNL     1      -3.949  -0.535  19.554  1.00  0.00     0.007 C 
ENDBRANCH  22  23
ENDBRANCH  21  22
ENDBRANCH  20  21
ENDBRANCH  16  20
ENDBRANCH  15  16
ENDBRANCH  14  15
ENDBRANCH   1  13
BRANCH   1  25
HETATM   25  O1  UNL     1      -0.017   4.619  21.308  1.00  0.00    -0.375 OA
ATOM     26  H1  UNL     1      -0.408   5.427  21.616  1.00  0.00     0.211 HD
ENDBRANCH   1  25
BRANCH  12  27
HETATM   27  C23 UNL     1      -1.277   3.050  23.521  1.00  0.00    -0.077 C 
HETATM   28  C24 UNL     1      -0.721   2.635  24.525  1.00  0.00    -0.014 C 
BRANCH  28  29
HETATM   29  C25 UNL     1      -0.067   2.175  25.695  1.00  0.00    -0.010 C 
HETATM   30  C26 UNL     1       0.481   1.765  26.697  1.00  0.00    -0.065 C 
BRANCH  30  31
HETATM   31  C27 UNL     1       1.107   1.266  27.879  1.00  0.00     0.061 C 
HETATM   32  C28 UNL     1       2.185   0.497  27.779  1.00  0.00    -0.022 C 
HETATM   33  C29 UNL     1       2.760   0.140  26.468  1.00  0.00     0.036 C 
ENDBRANCH  30  31
ENDBRANCH  28  29
ENDBRANCH  12  27
BRANCH   8  34
HETATM   34  O3  UNL     1      -2.228   6.431  19.932  1.00  0.00    -0.387 OA
HETATM   35  C18 UNL     1      -2.582   7.594  19.254  1.00  0.00     0.202 C 
ENDBRANCH   8  34
BRANCH   7  36
HETATM   36  O2  UNL     1      -4.351   6.408  22.230  1.00  0.00    -0.386 OA
ATOM     37  H2  UNL     1      -5.079   6.066  22.736  1.00  0.00     0.210 HD
ENDBRANCH   7  36
TORSDOF 13
ENDMDL
MODEL 5
REMARK VINA RESULT: -6.238269227      1.475      2.227
REMARK  13 active torsions:
REMARK  status: ('A' for Active; 'I' for Inactive)
REMARK    1  A    between atoms: C2_2  and  C3_3 
REMARK    2  A    between atoms: C3_3  and  C4_4 
REMARK    3  A    between atoms: C4_4  and  C5_5 
REMARK    4  A    between atoms: C5_5  and  C6_6 
REMARK    5  A    between atoms: C6_6  and  C7_7 
REMARK    6  A    between atoms: C7_7  and  C8_8 
REMARK    7  A    between atoms: C9_9  and  C10_10 
REMARK    8  A    between atoms: C10_10  and  O1_11 
REMARK    9  A    between atoms: C16_18  and  O2_19 
REMARK   10  A    between atoms: C17_21  and  O3_22 
REMARK   11  A    between atoms: C22_27  and  C23_28 
REMARK   12  A    between atoms: C24_29  and  C25_30 
REMARK   13  A    between atoms: C26_31  and  C27_32 
ROOT
HETATM    1  C10 UNL     1      -0.880   3.539  21.247  1.00  0.00     0.145 C 
HETATM    2  C11 UNL     1      -1.790   3.695  20.077  1.00  0.00     0.051 A 
HETATM    3  C12 UNL     1      -2.831   2.791  20.253  1.00  0.00     0.012 A 
HETATM    4  C13 UNL     1      -2.871   2.547  21.780  1.00  0.00     0.017 C 
HETATM    5  C14 UNL     1      -4.274   3.052  22.005  1.00  0.00     0.015 C 
HETATM    6  C15 UNL     1      -4.246   4.224  21.121  1.00  0.00     0.035 C 
HETATM    7  C16 UNL     1      -3.495   5.405  21.664  1.00  0.00     0.094 C 
HETATM    8  C17 UNL     1      -3.182   5.536  20.158  1.00  0.00     0.165 C 
HETATM    9  C19 UNL     1      -3.176   4.122  20.093  1.00  0.00     0.008 A 
HETATM   10  C20 UNL     1      -2.394   4.934  22.525  1.00  0.00     0.044 C 
HETATM   11  C21 UNL     1      -2.759   5.297  23.966  1.00  0.00     0.015 C 
HETATM   12  C22 UNL     1      -1.924   3.545  22.378  1.00  0.00     0.077 C 
ENDROOT
BRANCH   1  13
HETATM   13  C9  UNL     1      -0.263   2.209  21.202  1.00  0.00    -0.066 C 
HETATM   14  C8  UNL     1       0.237   1.111  21.148  1.00  0.00    -0.098 C 
BRANCH  14  15
HETATM   15  C7  UNL     1       0.885  -0.235  21.086  1.00  0.00     0.146 C 
BRANCH  15  16
HETATM   16  C6  UNL     1       1.167  -0.789  22.403  1.00  0.00    -0.007 C 
HETATM   17  N1  UNL     1       2.331  -1.374  22.549  1.00  0.00    -0.400 N 
HETATM   18  C30 UNL     1       2.725  -1.952  23.801  1.00  0.00     0.145 C 
ATOM     19  H1  UNL     1       2.970  -1.420  21.755  1.00  0.00     0.158 HD
BRANCH  16  20
HETATM   20  C5  UNL     1       0.319  -0.770  23.586  1.00  0.00     0.053 C 
BRANCH  20  21
HETATM   21  C4  UNL     1      -0.987  -1.468  23.598  1.00  0.00     0.009 C 
BRANCH  21  22
HETATM   22  C3  UNL     1      -2.165  -0.573  23.663  1.00  0.00     0.026 C 
BRANCH  22  23
HETATM   23  C2  UNL     1      -3.155  -1.052  22.606  1.00  0.00    -0.037 C 
HETATM   24  C1  UNL     1      -2.727  -1.145  21.362  1.00  0.00     0.007 C 
ENDBRANCH  22  23
ENDBRANCH  21  22
ENDBRANCH  20  21
ENDBRANCH  16  20
ENDBRANCH  15  16
ENDBRANCH  14  15
ENDBRANCH   1  13
BRANCH   1  25
HETATM   25  O1  UNL     1       0.035   4.553  21.399  1.00  0.00    -0.375 OA
ATOM     26  H1  UNL     1       0.901   4.242  21.636  1.00  0.00     0.211 HD
ENDBRANCH   1  25
BRANCH  12  27
HETATM   27  C23 UNL     1      -1.307   3.046  23.607  1.00  0.00    -0.077 C 
HETATM   28  C24 UNL     1      -0.778   2.646  24.631  1.00  0.00    -0.014 C 
BRANCH  28  29
HETATM   29  C25 UNL     1      -0.146   2.196  25.817  1.00  0.00    -0.010 C 
HETATM   30  C26 UNL     1       0.384   1.794  26.832  1.00  0.00    -0.065 C 
BRANCH  30  31
HETATM   31  C27 UNL     1       0.990   1.303  28.029  1.00  0.00     0.061 C 
HETATM   32  C28 UNL     1       2.125   0.618  27.959  1.00  0.00    -0.022 C 
HETATM   33  C29 UNL     1       2.785   0.346  26.669  1.00  0.00     0.036 C 
ENDBRANCH  30  31
ENDBRANCH  28  29
ENDBRANCH  12  27
BRANCH   8  34
HETATM   34  O3  UNL     1      -2.116   6.352  19.915  1.00  0.00    -0.387 OA
HETATM   35  C18 UNL     1      -2.442   7.511  19.217  1.00  0.00     0.202 C 
ENDBRANCH   8  34
BRANCH   7  36
HETATM   36  O2  UNL     1      -4.309   6.399  22.146  1.00  0.00    -0.386 OA
ATOM     37  H2  UNL     1      -4.327   7.175  21.598  1.00  0.00     0.210 HD
ENDBRANCH   7  36
TORSDOF 13
ENDMDL
