MODEL 1
REMARK VINA RESULT: -6.641231190      0.000      0.000
REMARK  12 active torsions:
REMARK  status: ('A' for Active; 'I' for Inactive)
REMARK       I    between atoms: C2_2  and  N1_4 
REMARK    1  A    between atoms: C8_12  and  N3_13 
REMARK    2  A    between atoms: N3_13  and  C9_15 
REMARK    3  A    between atoms: C9_15  and  C10_16 
REMARK    4  A    between atoms: C10_16  and  N4_17 
REMARK    5  A    between atoms: N4_17  and  C11_18 
REMARK    6  A    between atoms: C11_18  and  C12_19 
REMARK    7  A    between atoms: C13_20  and  C14_21 
REMARK    8  A    between atoms: C15_22  and  C16_23 
REMARK    9  A    between atoms: C17_24  and  C18_25 
REMARK   10  A    between atoms: C19_26  and  C20_27 
REMARK   11  A    between atoms: C21_28  and  C22_29 
REMARK   12  A    between atoms: C22_29  and  O2_30 
ROOT
HETATM    1  C9  UNL     1      -4.887   4.974  22.301  1.00  0.00     0.149 C 
ENDROOT
BRANCH   1   2
HETATM    2  N3  UNL     1      -3.762   5.567  22.937  1.00  0.00    -0.374 N 
ATOM      3  H3  UNL     1      -3.556   6.527  22.662  1.00  0.00     0.161 HD
BRANCH   2   4
HETATM    4  C8  UNL     1      -2.980   5.066  23.800  1.00  0.00     0.117 A 
HETATM    5  N2  UNL     1      -1.792   4.495  23.556  1.00  0.00    -0.342 N 
HETATM    6  C7  UNL     1      -1.038   3.992  24.549  1.00  0.00     0.055 A 
ATOM      7  H2  UNL     1      -1.452   4.442  22.596  1.00  0.00     0.167 HD
HETATM    8  C6  UNL     1       0.218   3.427  23.983  1.00  0.00     0.061 C 
HETATM    9  C27 UNL     1      -1.466   4.049  25.838  1.00  0.00     0.133 A 
HETATM   10  C5  UNL     1       1.075   2.846  25.114  1.00  0.00     0.008 C 
HETATM   11  C4  UNL     1       0.303   1.812  25.882  1.00  0.00     0.021 C 
HETATM   12  C3  UNL     1      -0.074   2.383  27.228  1.00  0.00     0.133 C 
HETATM   13  N1  UNL     1      -0.857   3.592  27.025  1.00  0.00    -0.303 N 
HETATM   14  C2  UNL     1      -0.993   4.389  28.193  1.00  0.00     0.221 C 
HETATM   15  C1  UNL     1      -1.667   5.696  28.272  1.00  0.00     0.117 C 
HETATM   16  O1  UNL     1      -0.483   3.935  29.271  1.00  0.00    -0.273 OA
HETATM   17  N5  UNL     1      -2.650   4.613  26.112  1.00  0.00    -0.347 N 
HETATM   18  C26 UNL     1      -3.417   5.122  25.127  1.00  0.00     0.138 A 
ATOM     19  H5  UNL     1      -2.975   4.657  27.077  1.00  0.00     0.167 HD
ENDBRANCH   2   4
ENDBRANCH   1   2
BRANCH   1  20
HETATM   20  C10 UNL     1      -4.758   3.570  21.861  1.00  0.00     0.258 C 
BRANCH  20  21
HETATM   21  N4  UNL     1      -5.851   2.983  21.166  1.00  0.00    -0.056 N 
HETATM   22  C23 UNL     1      -7.156   3.578  21.309  1.00  0.00     0.240 A 
HETATM   23  C24 UNL     1      -7.276   3.909  19.854  1.00  0.00     0.056 A 
HETATM   24  C25 UNL     1      -5.859   3.392  19.774  1.00  0.00     0.240 A 
BRANCH  21  25
HETATM   25  C11 UNL     1      -5.884   1.517  21.211  1.00  0.00     0.331 C 
BRANCH  25  26
HETATM   26  C12 UNL     1      -4.556   1.023  20.842  1.00  0.00    -0.074 C 
HETATM   27  C13 UNL     1      -3.454   0.596  20.521  1.00  0.00    -0.076 C 
BRANCH  27  28
HETATM   28  C14 UNL     1      -2.176   0.084  20.126  1.00  0.00     0.073 C 
HETATM   29  C15 UNL     1      -1.183   0.872  19.760  1.00  0.00     0.074 C 
BRANCH  29  30
HETATM   30  C16 UNL     1      -1.418   2.289  19.764  1.00  0.00    -0.064 C 
HETATM   31  C17 UNL     1      -1.637   3.481  19.767  1.00  0.00    -0.009 C 
BRANCH  31  32
HETATM   32  C18 UNL     1      -1.918   4.869  19.773  1.00  0.00    -0.001 C 
HETATM   33  C19 UNL     1      -2.154   6.055  19.756  1.00  0.00    -0.001 C 
BRANCH  33  34
HETATM   34  C20 UNL     1      -2.440   7.442  19.715  1.00  0.00    -0.012 C 
HETATM   35  C21 UNL     1      -2.690   8.621  19.694  1.00  0.00    -0.067 C 
BRANCH  35  36
HETATM   36  C22 UNL     1      -2.998  10.058  19.693  1.00  0.00     0.258 C 
BRANCH  36  37
HETATM   37  O2  UNL     1      -4.327  10.300  20.052  1.00  0.00    -0.389 OA
ATOM     38  H2  UNL     1      -4.386  10.872  20.808  1.00  0.00     0.210 HD
ENDBRANCH  36  37
ENDBRANCH  35  36
ENDBRANCH  33  34
ENDBRANCH  31  32
ENDBRANCH  29  30
ENDBRANCH  27  28
ENDBRANCH  25  26
ENDBRANCH  21  25
ENDBRANCH  20  21
ENDBRANCH   1  20
TORSDOF 12
ENDMDL
MODEL 2
REMARK VINA RESULT: -6.609307766      4.684      8.092
REMARK  12 active torsions:
REMARK  status: ('A' for Active; 'I' for Inactive)
REMARK       I    between atoms: C2_2  and  N1_4 
REMARK    1  A    between atoms: C8_12  and  N3_13 
REMARK    2  A    between atoms: N3_13  and  C9_15 
REMARK    3  A    between atoms: C9_15  and  C10_16 
REMARK    4  A    between atoms: C10_16  and  N4_17 
REMARK    5  A    between atoms: N4_17  and  C11_18 
REMARK    6  A    between atoms: C11_18  and  C12_19 
REMARK    7  A    between atoms: C13_20  and  C14_21 
REMARK    8  A    between atoms: C15_22  and  C16_23 
REMARK    9  A    between atoms: C17_24  and  C18_25 
REMARK   10  A    between atoms: C19_26  and  C20_27 
REMARK   11  A    between atoms: C21_28  and  C22_29 
REMARK   12  A    between atoms: C22_29  and  O2_30 
ROOT
HETATM    1  C9  UNL     1      -1.601   3.854  19.611  1.00  0.00     0.149 C 
ENDROOT
BRANCH   1   2
HETATM    2  N3  UNL     1      -0.914   2.884  20.390  1.00  0.00    -0.374 N 
ATOM      3  H3  UNL     1      -0.892   3.061  21.394  1.00  0.00     0.161 HD
BRANCH   2   4
HETATM    4  C8  UNL     1      -0.324   1.829  20.008  1.00  0.00     0.117 A 
HETATM    5  N2  UNL     1       0.436   1.026  20.768  1.00  0.00    -0.342 N 
HETATM    6  C7  UNL     1       1.020  -0.074  20.261  1.00  0.00     0.055 A 
ATOM      7  H2  UNL     1       0.574   1.255  21.752  1.00  0.00     0.167 HD
HETATM    8  C6  UNL     1       1.794  -0.763  21.329  1.00  0.00     0.061 C 
HETATM    9  C27 UNL     1       0.853  -0.403  18.952  1.00  0.00     0.133 A 
HETATM   10  C5  UNL     1       2.467  -2.014  20.749  1.00  0.00     0.008 C 
HETATM   11  C4  UNL     1       3.339  -1.651  19.582  1.00  0.00     0.021 C 
HETATM   12  C3  UNL     1       2.672  -2.113  18.310  1.00  0.00     0.133 C 
HETATM   13  N1  UNL     1       1.361  -1.489  18.210  1.00  0.00    -0.303 N 
HETATM   14  C2  UNL     1       0.515  -2.086  17.238  1.00  0.00     0.221 C 
HETATM   15  C1  UNL     1      -0.884  -1.715  16.967  1.00  0.00     0.117 C 
HETATM   16  O1  UNL     1       1.008  -3.032  16.538  1.00  0.00    -0.273 OA
HETATM   17  N5  UNL     1       0.100   0.382  18.169  1.00  0.00    -0.347 N 
HETATM   18  C26 UNL     1      -0.492   1.487  18.663  1.00  0.00     0.138 A 
ATOM     19  H5  UNL     1      -0.027   0.139  17.187  1.00  0.00     0.167 HD
ENDBRANCH   2   4
ENDBRANCH   1   2
BRANCH   1  20
HETATM   20  C10 UNL     1      -2.845   4.421  20.172  1.00  0.00     0.258 C 
BRANCH  20  21
HETATM   21  N4  UNL     1      -2.807   5.749  20.678  1.00  0.00    -0.056 N 
HETATM   22  C23 UNL     1      -1.613   6.531  20.469  1.00  0.00     0.240 A 
HETATM   23  C24 UNL     1      -2.317   7.573  19.657  1.00  0.00     0.056 A 
HETATM   24  C25 UNL     1      -3.512   6.660  19.795  1.00  0.00     0.240 A 
BRANCH  21  25
HETATM   25  C11 UNL     1      -3.360   5.902  22.028  1.00  0.00     0.331 C 
BRANCH  25  26
HETATM   26  C12 UNL     1      -2.461   5.226  22.964  1.00  0.00    -0.074 C 
HETATM   27  C13 UNL     1      -1.711   4.644  23.738  1.00  0.00    -0.076 C 
BRANCH  27  28
HETATM   28  C14 UNL     1      -0.831   3.944  24.625  1.00  0.00     0.073 C 
HETATM   29  C15 UNL     1      -0.949   4.014  25.937  1.00  0.00     0.074 C 
BRANCH  29  30
HETATM   30  C16 UNL     1      -2.004   4.829  26.470  1.00  0.00    -0.064 C 
HETATM   31  C17 UNL     1      -2.882   5.534  26.921  1.00  0.00    -0.009 C 
BRANCH  31  32
HETATM   32  C18 UNL     1      -3.891   6.376  27.447  1.00  0.00    -0.001 C 
HETATM   33  C19 UNL     1      -4.744   7.112  27.886  1.00  0.00    -0.001 C 
BRANCH  33  34
HETATM   34  C20 UNL     1      -5.742   7.989  28.381  1.00  0.00    -0.012 C 
HETATM   35  C21 UNL     1      -6.582   8.747  28.796  1.00  0.00    -0.067 C 
BRANCH  35  36
HETATM   36  C22 UNL     1      -7.598   9.688  29.287  1.00  0.00     0.258 C 
BRANCH  36  37
HETATM   37  O2  UNL     1      -7.616   9.743  30.684  1.00  0.00    -0.389 OA
ATOM     38  H2  UNL     1      -6.781  10.030  31.033  1.00  0.00     0.210 HD
ENDBRANCH  36  37
ENDBRANCH  35  36
ENDBRANCH  33  34
ENDBRANCH  31  32
ENDBRANCH  29  30
ENDBRANCH  27  28
ENDBRANCH  25  26
ENDBRANCH  21  25
ENDBRANCH  20  21
ENDBRANCH   1  20
TORSDOF 12
ENDMDL
MODEL 3
REMARK VINA RESULT: -6.594352279      4.691      8.290
REMARK  12 active torsions:
REMARK  status: ('A' for Active; 'I' for Inactive)
REMARK       I    between atoms: C2_2  and  N1_4 
REMARK    1  A    between atoms: C8_12  and  N3_13 
REMARK    2  A    between atoms: N3_13  and  C9_15 
REMARK    3  A    between atoms: C9_15  and  C10_16 
REMARK    4  A    between atoms: C10_16  and  N4_17 
REMARK    5  A    between atoms: N4_17  and  C11_18 
REMARK    6  A    between atoms: C11_18  and  C12_19 
REMARK    7  A    between atoms: C13_20  and  C14_21 
REMARK    8  A    between atoms: C15_22  and  C16_23 
REMARK    9  A    between atoms: C17_24  and  C18_25 
REMARK   10  A    between atoms: C19_26  and  C20_27 
REMARK   11  A    between atoms: C21_28  and  C22_29 
REMARK   12  A    between atoms: C22_29  and  O2_30 
ROOT
HETATM    1  C9  UNL     1      -1.253   3.290  19.396  1.00  0.00     0.149 C 
ENDROOT
BRANCH   1   2
HETATM    2  N3  UNL     1      -0.545   2.233  20.029  1.00  0.00    -0.374 N 
ATOM      3  H3  UNL     1      -0.391   2.344  21.031  1.00  0.00     0.161 HD
BRANCH   2   4
HETATM    4  C8  UNL     1      -0.077   1.170  19.519  1.00  0.00     0.117 A 
HETATM    5  N2  UNL     1      -0.330   0.703  18.288  1.00  0.00    -0.342 N 
HETATM    6  C7  UNL     1       0.220  -0.440  17.844  1.00  0.00     0.055 A 
ATOM      7  H2  UNL     1      -0.954   1.228  17.674  1.00  0.00     0.167 HD
HETATM    8  C6  UNL     1      -0.238  -0.705  16.453  1.00  0.00     0.061 C 
HETATM    9  C27 UNL     1       1.054  -1.160  18.641  1.00  0.00     0.133 A 
HETATM   10  C5  UNL     1       0.383  -2.014  15.948  1.00  0.00     0.008 C 
HETATM   11  C4  UNL     1       0.038  -3.149  16.868  1.00  0.00     0.021 C 
HETATM   12  C3  UNL     1       1.267  -3.533  17.656  1.00  0.00     0.133 C 
HETATM   13  N1  UNL     1       1.735  -2.370  18.396  1.00  0.00    -0.303 N 
HETATM   14  C2  UNL     1       3.051  -2.510  18.910  1.00  0.00     0.221 C 
HETATM   15  C1  UNL     1       3.809  -1.476  19.635  1.00  0.00     0.117 C 
HETATM   16  O1  UNL     1       3.632  -3.632  18.727  1.00  0.00    -0.273 OA
HETATM   17  N5  UNL     1       1.324  -0.718  19.877  1.00  0.00    -0.347 N 
HETATM   18  C26 UNL     1       0.781   0.426  20.336  1.00  0.00     0.138 A 
ATOM     19  H5  UNL     1       1.949  -1.255  20.478  1.00  0.00     0.167 HD
ENDBRANCH   2   4
ENDBRANCH   1   2
BRANCH   1  20
HETATM   20  C10 UNL     1      -2.332   3.943  20.166  1.00  0.00     0.258 C 
BRANCH  20  21
HETATM   21  N4  UNL     1      -2.152   5.299  20.553  1.00  0.00    -0.056 N 
HETATM   22  C23 UNL     1      -0.970   5.992  20.102  1.00  0.00     0.240 A 
HETATM   23  C24 UNL     1      -1.741   7.014  19.327  1.00  0.00     0.056 A 
HETATM   24  C25 UNL     1      -2.942   6.186  19.718  1.00  0.00     0.240 A 
BRANCH  21  25
HETATM   25  C11 UNL     1      -2.479   5.581  21.955  1.00  0.00     0.331 C 
BRANCH  25  26
HETATM   26  C12 UNL     1      -1.599   4.768  22.796  1.00  0.00    -0.074 C 
HETATM   27  C13 UNL     1      -0.873   4.093  23.516  1.00  0.00    -0.076 C 
BRANCH  27  28
HETATM   28  C14 UNL     1      -0.043   3.305  24.376  1.00  0.00     0.073 C 
HETATM   29  C15 UNL     1      -0.190   3.298  25.687  1.00  0.00     0.074 C 
BRANCH  29  30
HETATM   30  C16 UNL     1      -1.226   4.120  26.247  1.00  0.00    -0.064 C 
HETATM   31  C17 UNL     1      -2.099   4.827  26.703  1.00  0.00    -0.009 C 
BRANCH  31  32
HETATM   32  C18 UNL     1      -3.120   5.665  27.213  1.00  0.00    -0.001 C 
HETATM   33  C19 UNL     1      -4.002   6.379  27.631  1.00  0.00    -0.001 C 
BRANCH  33  34
HETATM   34  C20 UNL     1      -5.051   7.205  28.105  1.00  0.00    -0.012 C 
HETATM   35  C21 UNL     1      -5.948   7.896  28.518  1.00  0.00    -0.067 C 
BRANCH  35  36
HETATM   36  C22 UNL     1      -7.045   8.724  29.040  1.00  0.00     0.258 C 
BRANCH  36  37
HETATM   37  O2  UNL     1      -6.579   9.950  29.523  1.00  0.00    -0.389 OA
ATOM     38  H2  UNL     1      -6.342   9.897  30.441  1.00  0.00     0.210 HD
ENDBRANCH  36  37
ENDBRANCH  35  36
ENDBRANCH  33  34
ENDBRANCH  31  32
ENDBRANCH  29  30
ENDBRANCH  27  28
ENDBRANCH  25  26
ENDBRANCH  21  25
ENDBRANCH  20  21
ENDBRANCH   1  20
TORSDOF 12
ENDMDL
MODEL 4
REMARK VINA RESULT: -6.557457143      4.829      8.289
REMARK  12 active torsions:
REMARK  status: ('A' for Active; 'I' for Inactive)
REMARK       I    between atoms: C2_2  and  N1_4 
REMARK    1  A    between atoms: C8_12  and  N3_13 
REMARK    2  A    between atoms: N3_13  and  C9_15 
REMARK    3  A    between atoms: C9_15  and  C10_16 
REMARK    4  A    between atoms: C10_16  and  N4_17 
REMARK    5  A    between atoms: N4_17  and  C11_18 
REMARK    6  A    between atoms: C11_18  and  C12_19 
REMARK    7  A    between atoms: C13_20  and  C14_21 
REMARK    8  A    between atoms: C15_22  and  C16_23 
REMARK    9  A    between atoms: C17_24  and  C18_25 
REMARK   10  A    between atoms: C19_26  and  C20_27 
REMARK   11  A    between atoms: C21_28  and  C22_29 
REMARK   12  A    between atoms: C22_29  and  O2_30 
ROOT
HETATM    1  C9  UNL     1      -1.565   2.692  19.792  1.00  0.00     0.149 C 
ENDROOT
BRANCH   1   2
HETATM    2  N3  UNL     1      -0.277   2.093  19.853  1.00  0.00    -0.374 N 
ATOM      3  H3  UNL     1       0.422   2.605  20.391  1.00  0.00     0.161 HD
BRANCH   2   4
HETATM    4  C8  UNL     1       0.122   1.009  19.331  1.00  0.00     0.117 A 
HETATM    5  N2  UNL     1      -0.174   0.566  18.100  1.00  0.00    -0.342 N 
HETATM    6  C7  UNL     1       0.304  -0.604  17.642  1.00  0.00     0.055 A 
ATOM      7  H2  UNL     1      -0.774   1.129  17.498  1.00  0.00     0.167 HD
HETATM    8  C6  UNL     1      -0.187  -0.833  16.255  1.00  0.00     0.061 C 
HETATM    9  C27 UNL     1       1.106  -1.376  18.422  1.00  0.00     0.133 A 
HETATM   10  C5  UNL     1       0.352  -2.172  15.734  1.00  0.00     0.008 C 
HETATM   11  C4  UNL     1      -0.045  -3.292  16.652  1.00  0.00     0.021 C 
HETATM   12  C3  UNL     1       1.170  -3.750  17.420  1.00  0.00     0.133 C 
HETATM   13  N1  UNL     1       1.714  -2.621  18.161  1.00  0.00    -0.303 N 
HETATM   14  C2  UNL     1       3.026  -2.840  18.656  1.00  0.00     0.221 C 
HETATM   15  C1  UNL     1       3.852  -1.856  19.377  1.00  0.00     0.117 C 
HETATM   16  O1  UNL     1       3.540  -3.991  18.458  1.00  0.00    -0.273 OA
HETATM   17  N5  UNL     1       1.418  -0.959  19.657  1.00  0.00    -0.347 N 
HETATM   18  C26 UNL     1       0.947   0.212  20.130  1.00  0.00     0.138 A 
ATOM     19  H5  UNL     1       2.019  -1.535  20.246  1.00  0.00     0.167 HD
ENDBRANCH   2   4
ENDBRANCH   1   2
BRANCH   1  20
HETATM   20  C10 UNL     1      -1.634   4.166  19.875  1.00  0.00     0.258 C 
BRANCH  20  21
HETATM   21  N4  UNL     1      -2.735   4.748  20.560  1.00  0.00    -0.056 N 
HETATM   22  C23 UNL     1      -3.813   5.304  19.781  1.00  0.00     0.240 A 
HETATM   23  C24 UNL     1      -4.833   4.356  20.329  1.00  0.00     0.056 A 
HETATM   24  C25 UNL     1      -3.653   3.725  21.029  1.00  0.00     0.240 A 
BRANCH  21  25
HETATM   25  C11 UNL     1      -2.365   5.588  21.704  1.00  0.00     0.331 C 
BRANCH  25  26
HETATM   26  C12 UNL     1      -1.535   4.787  22.605  1.00  0.00    -0.074 C 
HETATM   27  C13 UNL     1      -0.827   4.113  23.344  1.00  0.00    -0.076 C 
BRANCH  27  28
HETATM   28  C14 UNL     1       0.020   3.331  24.192  1.00  0.00     0.073 C 
HETATM   29  C15 UNL     1      -0.111   3.320  25.505  1.00  0.00     0.074 C 
BRANCH  29  30
HETATM   30  C16 UNL     1      -1.147   4.132  26.079  1.00  0.00    -0.064 C 
HETATM   31  C17 UNL     1      -2.019   4.831  26.549  1.00  0.00    -0.009 C 
BRANCH  31  32
HETATM   32  C18 UNL     1      -3.035   5.664  27.077  1.00  0.00    -0.001 C 
HETATM   33  C19 UNL     1      -3.917   6.364  27.516  1.00  0.00    -0.001 C 
BRANCH  33  34
HETATM   34  C20 UNL     1      -4.967   7.168  28.028  1.00  0.00    -0.012 C 
HETATM   35  C21 UNL     1      -5.868   7.849  28.449  1.00  0.00    -0.067 C 
BRANCH  35  36
HETATM   36  C22 UNL     1      -6.980   8.672  28.944  1.00  0.00     0.258 C 
BRANCH  36  37
HETATM   37  O2  UNL     1      -6.523   9.861  29.520  1.00  0.00    -0.389 OA
ATOM     38  H2  UNL     1      -6.244   9.729  30.419  1.00  0.00     0.210 HD
ENDBRANCH  36  37
ENDBRANCH  35  36
ENDBRANCH  33  34
ENDBRANCH  31  32
ENDBRANCH  29  30
ENDBRANCH  27  28
ENDBRANCH  25  26
ENDBRANCH  21  25
ENDBRANCH  20  21
ENDBRANCH   1  20
TORSDOF 12
ENDMDL
MODEL 5
REMARK VINA RESULT: -6.552847281      3.084      8.908
REMARK  12 active torsions:
REMARK  status: ('A' for Active; 'I' for Inactive)
REMARK       I    between atoms: C2_2  and  N1_4 
REMARK    1  A    between atoms: C8_12  and  N3_13 
REMARK    2  A    between atoms: N3_13  and  C9_15 
REMARK    3  A    between atoms: C9_15  and  C10_16 
REMARK    4  A    between atoms: C10_16  and  N4_17 
REMARK    5  A    between atoms: N4_17  and  C11_18 
REMARK    6  A    between atoms: C11_18  and  C12_19 
REMARK    7  A    between atoms: C13_20  and  C14_21 
REMARK    8  A    between atoms: C15_22  and  C16_23 
REMARK    9  A    between atoms: C17_24  and  C18_25 
REMARK   10  A    between atoms: C19_26  and  C20_27 
REMARK   11  A    between atoms: C21_28  and  C22_29 
REMARK   12  A    between atoms: C22_29  and  O2_30 
ROOT
HETATM    1  C9  UNL     1       0.384   2.284  24.593  1.00  0.00     0.149 C 
ENDROOT
BRANCH   1   2
HETATM    2  N3  UNL     1       0.230   3.553  23.970  1.00  0.00    -0.374 N 
ATOM      3  H3  UNL     1       0.893   4.270  24.264  1.00  0.00     0.161 HD
BRANCH   2   4
HETATM    4  C8  UNL     1      -0.617   3.915  23.100  1.00  0.00     0.117 A 
HETATM    5  N2  UNL     1      -0.431   4.842  22.149  1.00  0.00    -0.342 N 
HETATM    6  C7  UNL     1      -1.401   5.153  21.272  1.00  0.00     0.055 A 
ATOM      7  H2  UNL     1       0.468   5.321  22.089  1.00  0.00     0.167 HD
HETATM    8  C6  UNL     1      -0.911   6.206  20.341  1.00  0.00     0.061 C 
HETATM    9  C27 UNL     1      -2.608   4.531  21.329  1.00  0.00     0.133 A 
HETATM   10  C5  UNL     1      -2.020   6.567  19.345  1.00  0.00     0.008 C 
HETATM   11  C4  UNL     1      -3.258   7.007  20.072  1.00  0.00     0.021 C 
HETATM   12  C3  UNL     1      -4.300   5.920  19.967  1.00  0.00     0.133 C 
HETATM   13  N1  UNL     1      -3.759   4.692  20.530  1.00  0.00    -0.303 N 
HETATM   14  C2  UNL     1      -4.509   3.532  20.200  1.00  0.00     0.221 C 
HETATM   15  C1  UNL     1      -4.164   2.147  20.567  1.00  0.00     0.117 C 
HETATM   16  O1  UNL     1      -5.577   3.701  19.522  1.00  0.00    -0.273 OA
HETATM   17  N5  UNL     1      -2.824   3.601  22.270  1.00  0.00    -0.347 N 
HETATM   18  C26 UNL     1      -1.861   3.278  23.155  1.00  0.00     0.138 A 
ATOM     19  H5  UNL     1      -3.728   3.132  22.316  1.00  0.00     0.167 HD
ENDBRANCH   2   4
ENDBRANCH   1   2
BRANCH   1  20
HETATM   20  C10 UNL     1       1.074   2.245  25.898  1.00  0.00     0.258 C 
BRANCH  20  21
HETATM   21  N4  UNL     1       0.320   1.872  27.044  1.00  0.00    -0.056 N 
HETATM   22  C23 UNL     1      -0.700   0.864  26.898  1.00  0.00     0.240 A 
HETATM   23  C24 UNL     1      -0.041  -0.085  27.849  1.00  0.00     0.056 A 
HETATM   24  C25 UNL     1       1.065   0.944  27.875  1.00  0.00     0.240 A 
BRANCH  21  25
HETATM   25  C11 UNL     1      -0.106   2.997  27.885  1.00  0.00     0.331 C 
BRANCH  25  26
HETATM   26  C12 UNL     1      -1.324   3.561  27.302  1.00  0.00    -0.074 C 
HETATM   27  C13 UNL     1      -2.340   4.050  26.825  1.00  0.00    -0.076 C 
BRANCH  27  28
HETATM   28  C14 UNL     1      -3.520   4.645  26.273  1.00  0.00     0.073 C 
HETATM   29  C15 UNL     1      -4.058   5.741  26.774  1.00  0.00     0.074 C 
BRANCH  29  30
HETATM   30  C16 UNL     1      -3.421   6.337  27.914  1.00  0.00    -0.064 C 
HETATM   31  C17 UNL     1      -2.864   6.840  28.866  1.00  0.00    -0.009 C 
BRANCH  31  32
HETATM   32  C18 UNL     1      -2.193   7.429  29.965  1.00  0.00    -0.001 C 
HETATM   33  C19 UNL     1      -1.632   7.949  30.901  1.00  0.00    -0.001 C 
BRANCH  33  34
HETATM   34  C20 UNL     1      -0.995   8.571  32.004  1.00  0.00    -0.012 C 
HETATM   35  C21 UNL     1      -0.456   9.115  32.935  1.00  0.00    -0.067 C 
BRANCH  35  36
HETATM   36  C22 UNL     1       0.192   9.798  34.064  1.00  0.00     0.258 C 
BRANCH  36  37
HETATM   37  O2  UNL     1      -0.733  10.148  35.052  1.00  0.00    -0.389 OA
ATOM     38  H2  UNL     1      -0.642   9.602  35.825  1.00  0.00     0.210 HD
ENDBRANCH  36  37
ENDBRANCH  35  36
ENDBRANCH  33  34
ENDBRANCH  31  32
ENDBRANCH  29  30
ENDBRANCH  27  28
ENDBRANCH  25  26
ENDBRANCH  21  25
ENDBRANCH  20  21
ENDBRANCH   1  20
TORSDOF 12
ENDMDL
