MODEL 1
REMARK VINA RESULT: -7.958326980      0.000      0.000
REMARK  7 active torsions:
REMARK  status: ('A' for Active; 'I' for Inactive)
REMARK    1  A    between atoms: N2_7  and  C6_8 
REMARK    2  A    between atoms: C6_8  and  C7_9 
REMARK    3  A    between atoms: C7_9  and  C8_10 
REMARK    4  A    between atoms: C8_10  and  N3_11 
REMARK       I    between atoms: N3_11  and  C9_13 
REMARK       I    between atoms: C9_13  and  N4_15 
REMARK       I    between atoms: N5_18  and  C12_19 
REMARK    5  A    between atoms: C12_19  and  C13_21 
REMARK    6  A    between atoms: C14_22  and  C15_23 
REMARK    7  A    between atoms: C18_26  and  N6_27 
ROOT
HETATM    1  N3  UNL     1       1.156   1.259  26.931  1.00  0.00    -0.343 N 
ATOM      2  H3  UNL     1       1.123   2.242  27.203  1.00  0.00     0.164 HD
HETATM    3  C9  UNL     1       0.821   0.876  25.619  1.00  0.00     0.319 C 
HETATM    4  O1  UNL     1       0.860  -0.328  25.278  1.00  0.00    -0.247 OA
HETATM    5  N4  UNL     1       0.430   1.839  24.654  1.00  0.00    -0.316 N 
HETATM    6  C10 UNL     1       0.336   3.282  24.897  1.00  0.00     0.149 C 
HETATM    7  C11 UNL     1      -0.689   3.721  23.905  1.00  0.00     0.148 C 
HETATM    8  N5  UNL     1      -0.438   2.820  22.787  1.00  0.00    -0.323 N 
HETATM    9  C12 UNL     1      -0.667   3.169  21.437  1.00  0.00     0.300 C 
HETATM   10  O2  UNL     1      -0.421   2.329  20.547  1.00  0.00    -0.258 OA
HETATM   11  C20 UNL     1       0.069   1.562  23.293  1.00  0.00     0.257 C 
ENDROOT
BRANCH   1  12
HETATM   12  C8  UNL     1       1.549   0.254  27.888  1.00  0.00     0.126 C 
BRANCH  12  13
HETATM   13  C7  UNL     1       3.035   0.092  27.841  1.00  0.00     0.048 C 
BRANCH  13  14
HETATM   14  C6  UNL     1       3.579  -1.235  28.189  1.00  0.00     0.239 C 
BRANCH  14  15
HETATM   15  N2  UNL     1       4.488  -1.851  27.249  1.00  0.00    -0.064 N 
HETATM   16  C5  UNL     1       5.422  -0.896  26.787  1.00  0.00     0.237 C 
HETATM   17  C4  UNL     1       6.838  -1.278  26.620  1.00  0.00     0.029 C 
HETATM   18  C3  UNL     1       7.101  -1.940  25.300  1.00  0.00     0.029 C 
HETATM   19  C2  UNL     1       6.740  -3.383  25.253  1.00  0.00     0.237 C 
HETATM   20  N1  UNL     1       5.374  -3.715  25.338  1.00  0.00    -0.068 N 
HETATM   21  C1  UNL     1       5.178  -4.885  24.453  1.00  0.00     0.272 C 
HETATM   22  C22 UNL     1       4.431  -2.729  24.932  1.00  0.00     0.265 C 
HETATM   23  C24 UNL     1       5.004  -4.192  26.638  1.00  0.00     0.265 C 
HETATM   24  C21 UNL     1       3.623  -2.186  26.088  1.00  0.00     0.265 C 
HETATM   25  C23 UNL     1       4.959  -3.094  27.707  1.00  0.00     0.265 C 
ENDBRANCH  14  15
ENDBRANCH  13  14
ENDBRANCH  12  13
ENDBRANCH   1  12
BRANCH   9  26
HETATM   26  C13 UNL     1      -1.172   4.449  21.061  1.00  0.00     0.000 C 
HETATM   27  C14 UNL     1      -1.582   5.538  20.731  1.00  0.00    -0.055 C 
BRANCH  27  28
HETATM   28  C15 UNL     1      -2.044   6.840  20.337  1.00  0.00     0.033 A 
HETATM   29  C16 UNL     1      -3.370   7.206  20.402  1.00  0.00     0.026 A 
HETATM   30  C17 UNL     1      -3.738   8.462  20.008  1.00  0.00     0.049 A 
HETATM   31  C18 UNL     1      -2.823   9.382  19.544  1.00  0.00     0.098 A 
HETATM   32  N7  UNL     1      -1.536   9.006  19.489  1.00  0.00    -0.351 N 
HETATM   33  C19 UNL     1      -1.144   7.774  19.870  1.00  0.00     0.110 A 
ATOM     34  H7  UNL     1      -0.838   9.668  19.149  1.00  0.00     0.166 HD
BRANCH  31  35
HETATM   35  N6  UNL     1      -3.151  10.562  19.172  1.00  0.00    -0.385 N 
ATOM     36  H62 UNL     1      -3.963  10.690  18.569  1.00  0.00     0.157 HD
ATOM     37  H61 UNL     1      -2.633  11.395  19.452  1.00  0.00     0.157 HD
ENDBRANCH  31  35
ENDBRANCH  27  28
ENDBRANCH   9  26
TORSDOF 7
ENDMDL
MODEL 2
REMARK VINA RESULT: -7.798854157      5.607      8.068
REMARK  7 active torsions:
REMARK  status: ('A' for Active; 'I' for Inactive)
REMARK    1  A    between atoms: N2_7  and  C6_8 
REMARK    2  A    between atoms: C6_8  and  C7_9 
REMARK    3  A    between atoms: C7_9  and  C8_10 
REMARK    4  A    between atoms: C8_10  and  N3_11 
REMARK       I    between atoms: N3_11  and  C9_13 
REMARK       I    between atoms: C9_13  and  N4_15 
REMARK       I    between atoms: N5_18  and  C12_19 
REMARK    5  A    between atoms: C12_19  and  C13_21 
REMARK    6  A    between atoms: C14_22  and  C15_23 
REMARK    7  A    between atoms: C18_26  and  N6_27 
ROOT
HETATM    1  N3  UNL     1       1.159  -1.661  20.011  1.00  0.00    -0.343 N 
ATOM      2  H3  UNL     1       1.363  -1.052  19.218  1.00  0.00     0.164 HD
HETATM    3  C9  UNL     1       0.279  -1.235  21.023  1.00  0.00     0.319 C 
HETATM    4  O1  UNL     1       0.024  -1.977  21.999  1.00  0.00    -0.247 OA
HETATM    5  N4  UNL     1      -0.340   0.040  20.965  1.00  0.00    -0.316 N 
HETATM    6  C10 UNL     1      -0.146   1.020  19.892  1.00  0.00     0.149 C 
HETATM    7  C11 UNL     1      -0.408   2.320  20.577  1.00  0.00     0.148 C 
HETATM    8  N5  UNL     1      -1.436   1.955  21.542  1.00  0.00    -0.323 N 
HETATM    9  C12 UNL     1      -2.438   2.845  21.991  1.00  0.00     0.300 C 
HETATM   10  O2  UNL     1      -3.277   2.439  22.821  1.00  0.00    -0.258 OA
HETATM   11  C20 UNL     1      -1.251   0.574  21.937  1.00  0.00     0.257 C 
ENDROOT
BRANCH   1  12
HETATM   12  C8  UNL     1       1.771  -2.964  20.102  1.00  0.00     0.126 C 
BRANCH  12  13
HETATM   13  C7  UNL     1       1.479  -3.726  18.848  1.00  0.00     0.048 C 
BRANCH  13  14
HETATM   14  C6  UNL     1       0.063  -3.863  18.457  1.00  0.00     0.239 C 
BRANCH  14  15
HETATM   15  N2  UNL     1      -0.367  -3.184  17.256  1.00  0.00    -0.064 N 
HETATM   16  C5  UNL     1      -1.173  -2.073  17.595  1.00  0.00     0.237 C 
HETATM   17  C4  UNL     1      -1.015  -0.804  16.859  1.00  0.00     0.029 C 
HETATM   18  C3  UNL     1      -1.800  -0.781  15.581  1.00  0.00     0.029 C 
HETATM   19  C2  UNL     1      -1.143  -1.484  14.444  1.00  0.00     0.237 C 
HETATM   20  N1  UNL     1      -1.008  -2.882  14.534  1.00  0.00    -0.068 N 
HETATM   21  C1  UNL     1      -1.198  -3.405  13.162  1.00  0.00     0.272 C 
HETATM   22  C22 UNL     1      -1.926  -3.579  15.371  1.00  0.00     0.265 C 
HETATM   23  C24 UNL     1       0.323  -3.286  14.883  1.00  0.00     0.265 C 
HETATM   24  C21 UNL     1      -1.266  -4.167  16.597  1.00  0.00     0.265 C 
HETATM   25  C23 UNL     1       0.688  -3.005  16.345  1.00  0.00     0.265 C 
ENDBRANCH  14  15
ENDBRANCH  13  14
ENDBRANCH  12  13
ENDBRANCH   1  12
BRANCH   9  26
HETATM   26  C13 UNL     1      -2.518   4.191  21.525  1.00  0.00     0.000 C 
HETATM   27  C14 UNL     1      -2.598   5.326  21.115  1.00  0.00    -0.055 C 
BRANCH  27  28
HETATM   28  C15 UNL     1      -2.698   6.664  20.603  1.00  0.00     0.033 A 
HETATM   29  C16 UNL     1      -1.613   7.347  20.098  1.00  0.00     0.026 A 
HETATM   30  C17 UNL     1      -1.782   8.619  19.629  1.00  0.00     0.049 A 
HETATM   31  C18 UNL     1      -3.009   9.248  19.642  1.00  0.00     0.098 A 
HETATM   32  N7  UNL     1      -4.053   8.566  20.137  1.00  0.00    -0.351 N 
HETATM   33  C19 UNL     1      -3.916   7.311  20.607  1.00  0.00     0.110 A 
ATOM     34  H7  UNL     1      -4.971   9.008  20.158  1.00  0.00     0.166 HD
BRANCH  31  35
HETATM   35  N6  UNL     1      -3.184  10.439  19.206  1.00  0.00    -0.385 N 
ATOM     36  H62 UNL     1      -2.501  10.845  18.566  1.00  0.00     0.157 HD
ATOM     37  H61 UNL     1      -3.985  11.013  19.469  1.00  0.00     0.157 HD
ENDBRANCH  31  35
ENDBRANCH  27  28
ENDBRANCH   9  26
TORSDOF 7
ENDMDL
MODEL 3
REMARK VINA RESULT: -7.759890909      0.737      1.681
REMARK  7 active torsions:
REMARK  status: ('A' for Active; 'I' for Inactive)
REMARK    1  A    between atoms: N2_7  and  C6_8 
REMARK    2  A    between atoms: C6_8  and  C7_9 
REMARK    3  A    between atoms: C7_9  and  C8_10 
REMARK    4  A    between atoms: C8_10  and  N3_11 
REMARK       I    between atoms: N3_11  and  C9_13 
REMARK       I    between atoms: C9_13  and  N4_15 
REMARK       I    between atoms: N5_18  and  C12_19 
REMARK    5  A    between atoms: C12_19  and  C13_21 
REMARK    6  A    between atoms: C14_22  and  C15_23 
REMARK    7  A    between atoms: C18_26  and  N6_27 
ROOT
HETATM    1  N3  UNL     1       0.602   1.229  27.310  1.00  0.00    -0.343 N 
ATOM      2  H3  UNL     1       0.432   2.190  27.606  1.00  0.00     0.164 HD
HETATM    3  C9  UNL     1       0.522   0.882  25.948  1.00  0.00     0.319 C 
HETATM    4  O1  UNL     1       0.731  -0.296  25.578  1.00  0.00    -0.247 OA
HETATM    5  N4  UNL     1       0.205   1.853  24.964  1.00  0.00    -0.316 N 
HETATM    6  C10 UNL     1      -0.064   3.269  25.237  1.00  0.00     0.149 C 
HETATM    7  C11 UNL     1      -0.951   3.664  24.103  1.00  0.00     0.148 C 
HETATM    8  N5  UNL     1      -0.437   2.844  23.013  1.00  0.00    -0.323 N 
HETATM    9  C12 UNL     1      -0.476   3.237  21.656  1.00  0.00     0.300 C 
HETATM   10  O2  UNL     1      -0.009   2.467  20.792  1.00  0.00    -0.258 OA
HETATM   11  C20 UNL     1       0.098   1.613  23.554  1.00  0.00     0.257 C 
ENDROOT
BRANCH   1  12
HETATM   12  C8  UNL     1       0.928   0.217  28.284  1.00  0.00     0.126 C 
BRANCH  12  13
HETATM   13  C7  UNL     1       2.415   0.100  28.387  1.00  0.00     0.048 C 
BRANCH  13  14
HETATM   14  C6  UNL     1       2.973  -1.251  28.587  1.00  0.00     0.239 C 
BRANCH  14  15
HETATM   15  N2  UNL     1       3.696  -1.845  27.486  1.00  0.00    -0.064 N 
HETATM   16  C5  UNL     1       2.958  -2.927  26.953  1.00  0.00     0.237 C 
HETATM   17  C4  UNL     1       2.896  -3.119  25.491  1.00  0.00     0.029 C 
HETATM   18  C3  UNL     1       4.079  -3.873  24.961  1.00  0.00     0.029 C 
HETATM   19  C2  UNL     1       5.299  -3.043  24.766  1.00  0.00     0.237 C 
HETATM   20  N1  UNL     1       5.928  -2.529  25.916  1.00  0.00    -0.068 N 
HETATM   21  C1  UNL     1       7.382  -2.562  25.641  1.00  0.00     0.272 C 
HETATM   22  C22 UNL     1       5.726  -3.225  27.142  1.00  0.00     0.265 C 
HETATM   23  C24 UNL     1       5.641  -1.141  26.127  1.00  0.00     0.265 C 
HETATM   24  C21 UNL     1       4.898  -2.436  28.130  1.00  0.00     0.265 C 
HETATM   25  C23 UNL     1       4.209  -0.875  26.607  1.00  0.00     0.265 C 
ENDBRANCH  14  15
ENDBRANCH  13  14
ENDBRANCH  12  13
ENDBRANCH   1  12
BRANCH   9  26
HETATM   26  C13 UNL     1      -1.032   4.485  21.244  1.00  0.00     0.000 C 
HETATM   27  C14 UNL     1      -1.487   5.545  20.882  1.00  0.00    -0.055 C 
BRANCH  27  28
HETATM   28  C15 UNL     1      -2.004   6.811  20.442  1.00  0.00     0.033 A 
HETATM   29  C16 UNL     1      -3.340   7.136  20.530  1.00  0.00     0.026 A 
HETATM   30  C17 UNL     1      -3.762   8.359  20.090  1.00  0.00     0.049 A 
HETATM   31  C18 UNL     1      -2.892   9.287  19.558  1.00  0.00     0.098 A 
HETATM   32  N7  UNL     1      -1.595   8.951  19.482  1.00  0.00    -0.351 N 
HETATM   33  C19 UNL     1      -1.150   7.752  19.907  1.00  0.00     0.110 A 
ATOM     34  H7  UNL     1      -0.930   9.619  19.092  1.00  0.00     0.166 HD
BRANCH  31  35
HETATM   35  N6  UNL     1      -3.270  10.436  19.142  1.00  0.00    -0.385 N 
ATOM     36  H62 UNL     1      -3.452  10.576  18.149  1.00  0.00     0.157 HD
ATOM     37  H61 UNL     1      -3.402  11.234  19.764  1.00  0.00     0.157 HD
ENDBRANCH  31  35
ENDBRANCH  27  28
ENDBRANCH   9  26
TORSDOF 7
ENDMDL
MODEL 4
REMARK VINA RESULT: -7.629981802      3.867      5.562
REMARK  7 active torsions:
REMARK  status: ('A' for Active; 'I' for Inactive)
REMARK    1  A    between atoms: N2_7  and  C6_8 
REMARK    2  A    between atoms: C6_8  and  C7_9 
REMARK    3  A    between atoms: C7_9  and  C8_10 
REMARK    4  A    between atoms: C8_10  and  N3_11 
REMARK       I    between atoms: N3_11  and  C9_13 
REMARK       I    between atoms: C9_13  and  N4_15 
REMARK       I    between atoms: N5_18  and  C12_19 
REMARK    5  A    between atoms: C12_19  and  C13_21 
REMARK    6  A    between atoms: C14_22  and  C15_23 
REMARK    7  A    between atoms: C18_26  and  N6_27 
ROOT
HETATM    1  N3  UNL     1       0.875  -2.032  17.694  1.00  0.00    -0.343 N 
ATOM      2  H3  UNL     1       1.139  -1.297  17.038  1.00  0.00     0.164 HD
HETATM    3  C9  UNL     1      -0.031  -1.760  18.736  1.00  0.00     0.319 C 
HETATM    4  O1  UNL     1      -0.360  -2.657  19.545  1.00  0.00    -0.247 OA
HETATM    5  N4  UNL     1      -0.593  -0.467  18.896  1.00  0.00    -0.316 N 
HETATM    6  C10 UNL     1      -0.310   0.685  18.034  1.00  0.00     0.149 C 
HETATM    7  C11 UNL     1      -0.549   1.846  18.941  1.00  0.00     0.148 C 
HETATM    8  N5  UNL     1      -1.633   1.358  19.783  1.00  0.00    -0.323 N 
HETATM    9  C12 UNL     1      -2.617   2.198  20.354  1.00  0.00     0.300 C 
HETATM   10  O2  UNL     1      -3.509   1.687  21.062  1.00  0.00    -0.258 OA
HETATM   11  C20 UNL     1      -1.524  -0.079  19.917  1.00  0.00     0.257 C 
ENDROOT
BRANCH   1  12
HETATM   12  C8  UNL     1       1.427  -3.358  17.561  1.00  0.00     0.126 C 
BRANCH  12  13
HETATM   13  C7  UNL     1       2.725  -3.421  18.302  1.00  0.00     0.048 C 
BRANCH  13  14
HETATM   14  C6  UNL     1       2.882  -4.504  19.293  1.00  0.00     0.239 C 
BRANCH  14  15
HETATM   15  N2  UNL     1       3.067  -4.123  20.675  1.00  0.00    -0.064 N 
HETATM   16  C5  UNL     1       4.145  -4.848  21.233  1.00  0.00     0.237 C 
HETATM   17  C4  UNL     1       5.095  -4.166  22.133  1.00  0.00     0.029 C 
HETATM   18  C3  UNL     1       4.606  -4.113  23.549  1.00  0.00     0.029 C 
HETATM   19  C2  UNL     1       3.623  -3.027  23.819  1.00  0.00     0.237 C 
HETATM   20  N1  UNL     1       2.359  -3.126  23.208  1.00  0.00    -0.068 N 
HETATM   21  C1  UNL     1       1.385  -2.592  24.186  1.00  0.00     0.272 C 
HETATM   22  C22 UNL     1       1.905  -4.426  22.843  1.00  0.00     0.265 C 
HETATM   23  C24 UNL     1       2.228  -2.262  22.072  1.00  0.00     0.265 C 
HETATM   24  C21 UNL     1       1.837  -4.619  21.346  1.00  0.00     0.265 C 
HETATM   25  C23 UNL     1       3.024  -2.729  20.848  1.00  0.00     0.265 C 
ENDBRANCH  14  15
ENDBRANCH  13  14
ENDBRANCH  12  13
ENDBRANCH   1  12
BRANCH   9  26
HETATM   26  C13 UNL     1      -2.620   3.609  20.147  1.00  0.00     0.000 C 
HETATM   27  C14 UNL     1      -2.641   4.807  19.981  1.00  0.00    -0.055 C 
BRANCH  27  28
HETATM   28  C15 UNL     1      -2.693   6.229  19.786  1.00  0.00     0.033 A 
HETATM   29  C16 UNL     1      -1.559   7.004  19.684  1.00  0.00     0.026 A 
HETATM   30  C17 UNL     1      -1.684   8.353  19.501  1.00  0.00     0.049 A 
HETATM   31  C18 UNL     1      -2.914   8.970  19.413  1.00  0.00     0.098 A 
HETATM   32  N7  UNL     1      -4.006   8.197  19.514  1.00  0.00    -0.351 N 
HETATM   33  C19 UNL     1      -3.914   6.865  19.696  1.00  0.00     0.110 A 
ATOM     34  H7  UNL     1      -4.929   8.628  19.453  1.00  0.00     0.166 HD
BRANCH  31  35
HETATM   35  N6  UNL     1      -3.049  10.231  19.241  1.00  0.00    -0.385 N 
ATOM     36  H62 UNL     1      -2.559  10.877  19.860  1.00  0.00     0.157 HD
ATOM     37  H61 UNL     1      -3.629  10.630  18.503  1.00  0.00     0.157 HD
ENDBRANCH  31  35
ENDBRANCH  27  28
ENDBRANCH   9  26
TORSDOF 7
ENDMDL
MODEL 5
REMARK VINA RESULT: -7.589107051      3.990      6.839
REMARK  7 active torsions:
REMARK  status: ('A' for Active; 'I' for Inactive)
REMARK    1  A    between atoms: N2_7  and  C6_8 
REMARK    2  A    between atoms: C6_8  and  C7_9 
REMARK    3  A    between atoms: C7_9  and  C8_10 
REMARK    4  A    between atoms: C8_10  and  N3_11 
REMARK       I    between atoms: N3_11  and  C9_13 
REMARK       I    between atoms: C9_13  and  N4_15 
REMARK       I    between atoms: N5_18  and  C12_19 
REMARK    5  A    between atoms: C12_19  and  C13_21 
REMARK    6  A    between atoms: C14_22  and  C15_23 
REMARK    7  A    between atoms: C18_26  and  N6_27 
ROOT
HETATM    1  N3  UNL     1       0.044   1.400  27.489  1.00  0.00    -0.343 N 
ATOM      2  H3  UNL     1      -0.153   2.367  27.750  1.00  0.00     0.164 HD
HETATM    3  C9  UNL     1       0.095   1.028  26.133  1.00  0.00     0.319 C 
HETATM    4  O1  UNL     1       0.336  -0.157  25.807  1.00  0.00    -0.247 OA
HETATM    5  N4  UNL     1      -0.125   1.980  25.106  1.00  0.00    -0.316 N 
HETATM    6  C10 UNL     1      -0.417   3.401  25.325  1.00  0.00     0.149 C 
HETATM    7  C11 UNL     1      -1.191   3.774  24.104  1.00  0.00     0.148 C 
HETATM    8  N5  UNL     1      -0.575   2.935  23.084  1.00  0.00    -0.323 N 
HETATM    9  C12 UNL     1      -0.482   3.303  21.722  1.00  0.00     0.300 C 
HETATM   10  O2  UNL     1       0.064   2.516  20.921  1.00  0.00    -0.258 OA
HETATM   11  C20 UNL     1      -0.096   1.713  23.696  1.00  0.00     0.257 C 
ENDROOT
BRANCH   1  12
HETATM   12  C8  UNL     1       0.272   0.406  28.509  1.00  0.00     0.126 C 
BRANCH  12  13
HETATM   13  C7  UNL     1      -0.886   0.405  29.456  1.00  0.00     0.048 C 
BRANCH  13  14
HETATM   14  C6  UNL     1      -0.898   1.441  30.507  1.00  0.00     0.239 C 
BRANCH  14  15
HETATM   15  N2  UNL     1      -1.624   2.660  30.234  1.00  0.00    -0.064 N 
HETATM   16  C5  UNL     1      -0.719   3.695  29.903  1.00  0.00     0.237 C 
HETATM   17  C4  UNL     1      -1.047   4.632  28.812  1.00  0.00     0.029 C 
HETATM   18  C3  UNL     1      -1.922   5.761  29.269  1.00  0.00     0.029 C 
HETATM   19  C2  UNL     1      -3.368   5.417  29.364  1.00  0.00     0.237 C 
HETATM   20  N1  UNL     1      -3.754   4.493  30.353  1.00  0.00    -0.068 N 
HETATM   21  C1  UNL     1      -5.075   4.944  30.846  1.00  0.00     0.272 C 
HETATM   22  C22 UNL     1      -2.912   4.361  31.494  1.00  0.00     0.265 C 
HETATM   23  C24 UNL     1      -4.005   3.187  29.819  1.00  0.00     0.265 C 
HETATM   24  C21 UNL     1      -2.212   3.023  31.550  1.00  0.00     0.265 C 
HETATM   25  C23 UNL     1      -2.734   2.438  29.401  1.00  0.00     0.265 C 
ENDBRANCH  14  15
ENDBRANCH  13  14
ENDBRANCH  12  13
ENDBRANCH   1  12
BRANCH   9  26
HETATM   26  C13 UNL     1      -0.994   4.542  21.236  1.00  0.00     0.000 C 
HETATM   27  C14 UNL     1      -1.427   5.601  20.843  1.00  0.00    -0.055 C 
BRANCH  27  28
HETATM   28  C15 UNL     1      -1.948   6.864  20.401  1.00  0.00     0.033 A 
HETATM   29  C16 UNL     1      -3.283   7.190  20.500  1.00  0.00     0.026 A 
HETATM   30  C17 UNL     1      -3.710   8.410  20.058  1.00  0.00     0.049 A 
HETATM   31  C18 UNL     1      -2.845   9.335  19.511  1.00  0.00     0.098 A 
HETATM   32  N7  UNL     1      -1.549   8.999  19.424  1.00  0.00    -0.351 N 
HETATM   33  C19 UNL     1      -1.100   7.802  19.851  1.00  0.00     0.110 A 
ATOM     34  H7  UNL     1      -0.888   9.665  19.024  1.00  0.00     0.166 HD
BRANCH  31  35
HETATM   35  N6  UNL     1      -3.228  10.482  19.093  1.00  0.00    -0.385 N 
ATOM     36  H62 UNL     1      -4.205  10.622  18.835  1.00  0.00     0.157 HD
ATOM     37  H61 UNL     1      -2.596  11.277  19.002  1.00  0.00     0.157 HD
ENDBRANCH  31  35
ENDBRANCH  27  28
ENDBRANCH   9  26
TORSDOF 7
ENDMDL
