MODEL 1
REMARK VINA RESULT: -7.938725930      0.000      0.000
REMARK  6 active torsions:
REMARK  status: ('A' for Active; 'I' for Inactive)
REMARK    1  A    between atoms: N1_2  and  C2_3 
REMARK    2  A    between atoms: C2_3  and  C3_4 
REMARK    3  A    between atoms: C3_4  and  N3_8 
REMARK       I    between atoms: N3_8  and  C4_10 
REMARK       I    between atoms: C4_10  and  N5_14 
REMARK    4  A    between atoms: C7_17  and  C8_18 
REMARK       I    between atoms: C8_18  and  N6_20 
REMARK    5  A    between atoms: N7_23  and  C12_25 
REMARK    6  A    between atoms: C12_25  and  C13_26 
ROOT
HETATM    1  N3  UNL     1      -2.083   3.227  29.758  1.00  0.00    -0.180 N 
ATOM      2  H3  UNL     1      -1.164   2.799  29.879  1.00  0.00     0.185 HD
HETATM    3  C4  UNL     1      -2.700   3.232  28.481  1.00  0.00     0.675 C 
HETATM    4  N4  UNL     1      -3.982   3.500  28.397  1.00  0.00    -0.235 N 
ATOM      5  H41 UNL     1      -4.426   3.504  27.479  1.00  0.00     0.174 HD
ATOM      6  H42 UNL     1      -4.507   3.698  29.249  1.00  0.00     0.174 HD
HETATM    7  N5  UNL     1      -1.971   2.956  27.298  1.00  0.00    -0.218 N 
HETATM    8  C5  UNL     1      -2.457   2.047  26.304  1.00  0.00     0.142 C 
HETATM    9  C6  UNL     1      -2.603   2.829  25.010  1.00  0.00     0.034 C 
HETATM   10  C7  UNL     1      -1.351   3.596  24.753  1.00  0.00     0.081 C 
HETATM   11  C18 UNL     1      -0.221   3.178  25.688  1.00  0.00     0.034 C 
HETATM   12  C19 UNL     1      -0.697   3.612  27.085  1.00  0.00     0.142 C 
ENDROOT
BRANCH   1  13
HETATM   13  C3  UNL     1      -2.736   3.809  30.854  1.00  0.00     0.117 C 
HETATM   14  N2  UNL     1      -3.731   3.216  31.395  1.00  0.00    -0.387 N 
ATOM     15  H22 UNL     1      -4.206   3.640  32.192  1.00  0.00     0.157 HD
ATOM     16  H21 UNL     1      -4.054   2.319  31.032  1.00  0.00     0.157 HD
BRANCH  13  17
HETATM   17  C2  UNL     1      -2.272   5.100  31.377  1.00  0.00     0.313 C 
BRANCH  17  18
HETATM   18  N1  UNL     1      -2.744   6.256  30.685  1.00  0.00    -0.064 N 
HETATM   19  C1  UNL     1      -4.165   6.347  30.578  1.00  0.00     0.273 C 
HETATM   20  C20 UNL     1      -2.148   6.419  29.394  1.00  0.00     0.237 C 
HETATM   21  C21 UNL     1      -0.802   7.094  29.632  1.00  0.00     0.029 C 
HETATM   22  C22 UNL     1      -1.134   8.014  30.776  1.00  0.00     0.029 C 
HETATM   23  C23 UNL     1      -2.307   7.417  31.479  1.00  0.00     0.237 C 
ENDBRANCH  17  18
ENDBRANCH  13  17
ENDBRANCH   1  13
BRANCH  10  24
HETATM   24  C8  UNL     1      -0.909   3.625  23.343  1.00  0.00     0.224 C 
HETATM   25  O1  UNL     1       0.083   2.887  22.988  1.00  0.00    -0.273 OA
HETATM   26  N6  UNL     1      -1.484   4.407  22.320  1.00  0.00    -0.349 N 
HETATM   27  C9  UNL     1      -0.941   4.374  20.955  1.00  0.00     0.154 C 
HETATM   28  C17 UNL     1      -2.624   5.273  22.479  1.00  0.00     0.154 C 
HETATM   29  C10 UNL     1      -2.134   4.396  20.023  1.00  0.00     0.257 C 
HETATM   30  N7  UNL     1      -2.800   5.687  20.070  1.00  0.00    -0.063 N 
HETATM   31  C11 UNL     1      -4.206   5.576  19.806  1.00  0.00     0.273 C 
HETATM   32  C16 UNL     1      -2.617   6.330  21.359  1.00  0.00     0.257 C 
BRANCH  30  33
HETATM   33  C12 UNL     1      -2.195   6.532  19.069  1.00  0.00     0.295 C 
BRANCH  33  34
HETATM   34  C13 UNL     1      -2.346   7.960  19.355  1.00  0.00     0.051 A 
HETATM   35  C14 UNL     1      -1.356   8.861  19.664  1.00  0.00     0.115 A 
HETATM   36  N8  UNL     1      -1.909  10.079  19.857  1.00  0.00    -0.360 N 
HETATM   37  C15 UNL     1      -3.232   9.939  19.669  1.00  0.00     0.180 A 
ATOM     38  H8  UNL     1      -1.417  10.939  20.099  1.00  0.00     0.166 HD
HETATM   39  N9  UNL     1      -3.497   8.645  19.362  1.00  0.00    -0.353 N 
ATOM     40  H9  UNL     1      -4.421   8.257  19.169  1.00  0.00     0.166 HD
ENDBRANCH  33  34
ENDBRANCH  30  33
ENDBRANCH  10  24
TORSDOF 6
ENDMDL
MODEL 2
REMARK VINA RESULT: -7.498491956      0.977      1.220
REMARK  6 active torsions:
REMARK  status: ('A' for Active; 'I' for Inactive)
REMARK    1  A    between atoms: N1_2  and  C2_3 
REMARK    2  A    between atoms: C2_3  and  C3_4 
REMARK    3  A    between atoms: C3_4  and  N3_8 
REMARK       I    between atoms: N3_8  and  C4_10 
REMARK       I    between atoms: C4_10  and  N5_14 
REMARK    4  A    between atoms: C7_17  and  C8_18 
REMARK       I    between atoms: C8_18  and  N6_20 
REMARK    5  A    between atoms: N7_23  and  C12_25 
REMARK    6  A    between atoms: C12_25  and  C13_26 
ROOT
HETATM    1  N3  UNL     1      -1.232   3.079  29.751  1.00  0.00    -0.180 N 
ATOM      2  H3  UNL     1      -0.223   3.222  29.725  1.00  0.00     0.185 HD
HETATM    3  C4  UNL     1      -1.899   2.526  28.629  1.00  0.00     0.675 C 
HETATM    4  N4  UNL     1      -3.120   2.067  28.779  1.00  0.00    -0.235 N 
ATOM      5  H41 UNL     1      -3.600   1.669  27.972  1.00  0.00     0.174 HD
ATOM      6  H42 UNL     1      -3.563   2.118  29.697  1.00  0.00     0.174 HD
HETATM    7  N5  UNL     1      -1.284   2.455  27.355  1.00  0.00    -0.218 N 
HETATM    8  C5  UNL     1      -1.312   1.259  26.567  1.00  0.00     0.142 C 
HETATM    9  C6  UNL     1      -2.012   1.593  25.262  1.00  0.00     0.034 C 
HETATM   10  C7  UNL     1      -1.420   2.836  24.689  1.00  0.00     0.081 C 
HETATM   11  C18 UNL     1      -0.144   3.249  25.413  1.00  0.00     0.034 C 
HETATM   12  C19 UNL     1      -0.609   3.624  26.831  1.00  0.00     0.142 C 
ENDROOT
BRANCH   1  13
HETATM   13  C3  UNL     1      -1.962   3.430  30.897  1.00  0.00     0.117 C 
HETATM   14  N2  UNL     1      -1.664   2.912  32.028  1.00  0.00    -0.387 N 
ATOM     15  H22 UNL     1      -2.195   3.167  32.861  1.00  0.00     0.157 HD
ATOM     16  H21 UNL     1      -0.897   2.243  32.101  1.00  0.00     0.157 HD
BRANCH  13  17
HETATM   17  C2  UNL     1      -3.065   4.392  30.793  1.00  0.00     0.313 C 
BRANCH  17  18
HETATM   18  N1  UNL     1      -2.699   5.768  30.892  1.00  0.00    -0.064 N 
HETATM   19  C1  UNL     1      -2.497   6.236  32.226  1.00  0.00     0.273 C 
HETATM   20  C20 UNL     1      -3.604   6.639  30.204  1.00  0.00     0.237 C 
HETATM   21  C21 UNL     1      -3.179   6.618  28.741  1.00  0.00     0.029 C 
HETATM   22  C22 UNL     1      -1.683   6.523  28.870  1.00  0.00     0.029 C 
HETATM   23  C23 UNL     1      -1.407   5.902  30.199  1.00  0.00     0.237 C 
ENDBRANCH  17  18
ENDBRANCH  13  17
ENDBRANCH   1  13
BRANCH  10  24
HETATM   24  C8  UNL     1      -1.236   2.827  23.223  1.00  0.00     0.224 C 
HETATM   25  O1  UNL     1      -0.551   1.879  22.689  1.00  0.00    -0.273 OA
HETATM   26  N6  UNL     1      -1.751   3.786  22.326  1.00  0.00    -0.349 N 
HETATM   27  C9  UNL     1      -1.480   3.689  20.886  1.00  0.00     0.154 C 
HETATM   28  C17 UNL     1      -2.577   4.908  22.696  1.00  0.00     0.154 C 
HETATM   29  C10 UNL     1      -2.766   4.071  20.185  1.00  0.00     0.257 C 
HETATM   30  N7  UNL     1      -3.049   5.486  20.361  1.00  0.00    -0.063 N 
HETATM   31  C11 UNL     1      -4.458   5.757  20.355  1.00  0.00     0.273 C 
HETATM   32  C16 UNL     1      -2.484   5.987  21.601  1.00  0.00     0.257 C 
BRANCH  30  33
HETATM   33  C12 UNL     1      -2.424   6.199  19.274  1.00  0.00     0.295 C 
BRANCH  33  34
HETATM   34  C13 UNL     1      -2.437   7.652  19.457  1.00  0.00     0.051 A 
HETATM   35  C14 UNL     1      -1.363   8.477  19.686  1.00  0.00     0.115 A 
HETATM   36  N8  UNL     1      -1.797   9.752  19.798  1.00  0.00    -0.360 N 
HETATM   37  C15 UNL     1      -3.131   9.723  19.640  1.00  0.00     0.180 A 
ATOM     38  H8  UNL     1      -1.223  10.577  19.970  1.00  0.00     0.166 HD
HETATM   39  N9  UNL     1      -3.520   8.440  19.432  1.00  0.00    -0.353 N 
ATOM     40  H9  UNL     1      -4.479   8.127  19.281  1.00  0.00     0.166 HD
ENDBRANCH  33  34
ENDBRANCH  30  33
ENDBRANCH  10  24
TORSDOF 6
ENDMDL
MODEL 3
REMARK VINA RESULT: -7.490255609      1.524      2.167
REMARK  6 active torsions:
REMARK  status: ('A' for Active; 'I' for Inactive)
REMARK    1  A    between atoms: N1_2  and  C2_3 
REMARK    2  A    between atoms: C2_3  and  C3_4 
REMARK    3  A    between atoms: C3_4  and  N3_8 
REMARK       I    between atoms: N3_8  and  C4_10 
REMARK       I    between atoms: C4_10  and  N5_14 
REMARK    4  A    between atoms: C7_17  and  C8_18 
REMARK       I    between atoms: C8_18  and  N6_20 
REMARK    5  A    between atoms: N7_23  and  C12_25 
REMARK    6  A    between atoms: C12_25  and  C13_26 
ROOT
HETATM    1  N3  UNL     1      -0.567   3.284  29.117  1.00  0.00    -0.180 N 
ATOM      2  H3  UNL     1      -0.209   4.237  29.054  1.00  0.00     0.185 HD
HETATM    3  C4  UNL     1      -0.468   2.413  28.003  1.00  0.00     0.675 C 
HETATM    4  N4  UNL     1      -0.644   1.125  28.186  1.00  0.00    -0.235 N 
ATOM      5  H41 UNL     1      -0.573   0.499  27.384  1.00  0.00     0.174 HD
ATOM      6  H42 UNL     1      -0.847   0.778  29.123  1.00  0.00     0.174 HD
HETATM    7  N5  UNL     1      -0.186   2.896  26.701  1.00  0.00    -0.218 N 
HETATM    8  C5  UNL     1       0.802   2.282  25.864  1.00  0.00     0.142 C 
HETATM    9  C6  UNL     1       0.096   1.807  24.606  1.00  0.00     0.034 C 
HETATM   10  C7  UNL     1      -0.742   2.914  24.063  1.00  0.00     0.081 C 
HETATM   11  C18 UNL     1      -0.448   4.244  24.747  1.00  0.00     0.034 C 
HETATM   12  C19 UNL     1      -0.916   4.042  26.199  1.00  0.00     0.142 C 
ENDROOT
BRANCH   1  13
HETATM   13  C3  UNL     1      -1.156   2.833  30.308  1.00  0.00     0.117 C 
HETATM   14  N2  UNL     1      -0.425   2.369  31.249  1.00  0.00    -0.387 N 
ATOM     15  H22 UNL     1      -0.853   2.042  32.114  1.00  0.00     0.157 HD
ATOM     16  H21 UNL     1       0.589   2.325  31.137  1.00  0.00     0.157 HD
BRANCH  13  17
HETATM   17  C2  UNL     1      -2.614   2.898  30.469  1.00  0.00     0.313 C 
BRANCH  17  18
HETATM   18  N1  UNL     1      -3.190   4.201  30.388  1.00  0.00    -0.064 N 
HETATM   19  C1  UNL     1      -3.362   4.695  29.059  1.00  0.00     0.273 C 
HETATM   20  C20 UNL     1      -2.497   5.171  31.181  1.00  0.00     0.237 C 
HETATM   21  C21 UNL     1      -3.025   5.011  32.601  1.00  0.00     0.029 C 
HETATM   22  C22 UNL     1      -4.471   4.684  32.341  1.00  0.00     0.029 C 
HETATM   23  C23 UNL     1      -4.537   4.092  30.974  1.00  0.00     0.237 C 
ENDBRANCH  17  18
ENDBRANCH  13  17
ENDBRANCH   1  13
BRANCH  10  24
HETATM   24  C8  UNL     1      -0.732   3.045  22.591  1.00  0.00     0.224 C 
HETATM   25  O1  UNL     1      -0.003   2.241  21.900  1.00  0.00    -0.273 OA
HETATM   26  N6  UNL     1      -1.462   3.996  21.847  1.00  0.00    -0.349 N 
HETATM   27  C9  UNL     1      -1.352   4.050  20.384  1.00  0.00     0.154 C 
HETATM   28  C17 UNL     1      -2.370   4.965  22.406  1.00  0.00     0.154 C 
HETATM   29  C10 UNL     1      -2.749   4.312  19.863  1.00  0.00     0.257 C 
HETATM   30  N7  UNL     1      -3.181   5.659  20.200  1.00  0.00    -0.063 N 
HETATM   31  C11 UNL     1      -4.604   5.740  20.368  1.00  0.00     0.273 C 
HETATM   32  C16 UNL     1      -2.539   6.130  21.413  1.00  0.00     0.257 C 
BRANCH  30  33
HETATM   33  C12 UNL     1      -2.780   6.533  19.123  1.00  0.00     0.295 C 
BRANCH  33  34
HETATM   34  C13 UNL     1      -2.911   7.952  19.457  1.00  0.00     0.051 A 
HETATM   35  C14 UNL     1      -1.902   8.865  19.644  1.00  0.00     0.115 A 
HETATM   36  N8  UNL     1      -2.441  10.069  19.938  1.00  0.00    -0.360 N 
HETATM   37  C15 UNL     1      -3.775   9.909  19.934  1.00  0.00     0.180 A 
ATOM     38  H8  UNL     1      -1.933  10.933  20.126  1.00  0.00     0.166 HD
HETATM   39  N9  UNL     1      -4.060   8.616  19.640  1.00  0.00    -0.353 N 
ATOM     40  H9  UNL     1      -4.996   8.215  19.570  1.00  0.00     0.166 HD
ENDBRANCH  33  34
ENDBRANCH  30  33
ENDBRANCH  10  24
TORSDOF 6
ENDMDL
MODEL 4
REMARK VINA RESULT: -7.383880858      2.355      3.032
REMARK  6 active torsions:
REMARK  status: ('A' for Active; 'I' for Inactive)
REMARK    1  A    between atoms: N1_2  and  C2_3 
REMARK    2  A    between atoms: C2_3  and  C3_4 
REMARK    3  A    between atoms: C3_4  and  N3_8 
REMARK       I    between atoms: N3_8  and  C4_10 
REMARK       I    between atoms: C4_10  and  N5_14 
REMARK    4  A    between atoms: C7_17  and  C8_18 
REMARK       I    between atoms: C8_18  and  N6_20 
REMARK    5  A    between atoms: N7_23  and  C12_25 
REMARK    6  A    between atoms: C12_25  and  C13_26 
ROOT
HETATM    1  N3  UNL     1      -4.826   5.349  30.145  1.00  0.00    -0.180 N 
ATOM      2  H3  UNL     1      -3.933   5.599  30.570  1.00  0.00     0.185 HD
HETATM    3  C4  UNL     1      -4.854   4.624  28.927  1.00  0.00     0.675 C 
HETATM    4  N4  UNL     1      -5.974   4.050  28.555  1.00  0.00    -0.235 N 
ATOM      5  H41 UNL     1      -5.994   3.529  27.679  1.00  0.00     0.174 HD
ATOM      6  H42 UNL     1      -6.799   4.136  29.149  1.00  0.00     0.174 HD
HETATM    7  N5  UNL     1      -3.707   4.504  28.104  1.00  0.00    -0.218 N 
HETATM    8  C5  UNL     1      -3.295   3.245  27.559  1.00  0.00     0.142 C 
HETATM    9  C6  UNL     1      -3.313   3.379  26.047  1.00  0.00     0.034 C 
HETATM   10  C7  UNL     1      -2.589   4.622  25.653  1.00  0.00     0.081 C 
HETATM   11  C18 UNL     1      -1.829   5.237  26.823  1.00  0.00     0.034 C 
HETATM   12  C19 UNL     1      -2.928   5.688  27.801  1.00  0.00     0.142 C 
ENDROOT
BRANCH   1  13
HETATM   13  C3  UNL     1      -6.028   5.721  30.767  1.00  0.00     0.117 C 
HETATM   14  N2  UNL     1      -6.716   4.851  31.403  1.00  0.00    -0.387 N 
ATOM     15  H22 UNL     1      -7.589   5.122  31.855  1.00  0.00     0.157 HD
ATOM     16  H21 UNL     1      -6.393   3.885  31.462  1.00  0.00     0.157 HD
BRANCH  13  17
HETATM   17  C2  UNL     1      -6.491   7.111  30.683  1.00  0.00     0.313 C 
BRANCH  17  18
HETATM   18  N1  UNL     1      -7.408   7.398  29.627  1.00  0.00    -0.064 N 
HETATM   19  C1  UNL     1      -8.440   6.426  29.454  1.00  0.00     0.273 C 
HETATM   20  C20 UNL     1      -6.760   7.647  28.375  1.00  0.00     0.237 C 
HETATM   21  C21 UNL     1      -6.323   9.106  28.409  1.00  0.00     0.029 C 
HETATM   22  C22 UNL     1      -7.461   9.737  29.163  1.00  0.00     0.029 C 
HETATM   23  C23 UNL     1      -8.075   8.659  29.992  1.00  0.00     0.237 C 
ENDBRANCH  17  18
ENDBRANCH  13  17
ENDBRANCH   1  13
BRANCH  10  24
HETATM   24  C8  UNL     1      -1.734   4.498  24.454  1.00  0.00     0.224 C 
HETATM   25  O1  UNL     1      -0.569   3.967  24.574  1.00  0.00    -0.273 OA
HETATM   26  N6  UNL     1      -2.080   4.921  23.153  1.00  0.00    -0.349 N 
HETATM   27  C9  UNL     1      -1.135   4.771  22.039  1.00  0.00     0.154 C 
HETATM   28  C17 UNL     1      -3.344   5.504  22.780  1.00  0.00     0.154 C 
HETATM   29  C10 UNL     1      -1.955   4.337  20.842  1.00  0.00     0.257 C 
HETATM   30  N7  UNL     1      -2.814   5.419  20.388  1.00  0.00    -0.063 N 
HETATM   31  C11 UNL     1      -4.023   4.929  19.788  1.00  0.00     0.273 C 
HETATM   32  C16 UNL     1      -3.164   6.309  21.480  1.00  0.00     0.257 C 
BRANCH  30  33
HETATM   33  C12 UNL     1      -2.079   6.187  19.413  1.00  0.00     0.295 C 
BRANCH  33  34
HETATM   34  C13 UNL     1      -2.310   7.628  19.524  1.00  0.00     0.051 A 
HETATM   35  C14 UNL     1      -1.379   8.610  19.758  1.00  0.00     0.115 A 
HETATM   36  N8  UNL     1      -1.998   9.812  19.788  1.00  0.00    -0.360 N 
HETATM   37  C15 UNL     1      -3.304   9.581  19.574  1.00  0.00     0.180 A 
ATOM     38  H8  UNL     1      -1.558  10.718  19.943  1.00  0.00     0.166 HD
HETATM   39  N9  UNL     1      -3.493   8.247  19.413  1.00  0.00    -0.353 N 
ATOM     40  H9  UNL     1      -4.388   7.791  19.236  1.00  0.00     0.166 HD
ENDBRANCH  33  34
ENDBRANCH  30  33
ENDBRANCH  10  24
TORSDOF 6
ENDMDL
MODEL 5
REMARK VINA RESULT: -7.069270915      1.568      2.800
REMARK  6 active torsions:
REMARK  status: ('A' for Active; 'I' for Inactive)
REMARK    1  A    between atoms: N1_2  and  C2_3 
REMARK    2  A    between atoms: C2_3  and  C3_4 
REMARK    3  A    between atoms: C3_4  and  N3_8 
REMARK       I    between atoms: N3_8  and  C4_10 
REMARK       I    between atoms: C4_10  and  N5_14 
REMARK    4  A    between atoms: C7_17  and  C8_18 
REMARK       I    between atoms: C8_18  and  N6_20 
REMARK    5  A    between atoms: N7_23  and  C12_25 
REMARK    6  A    between atoms: C12_25  and  C13_26 
ROOT
HETATM    1  N3  UNL     1      -1.893   3.203  29.964  1.00  0.00    -0.180 N 
ATOM      2  H3  UNL     1      -1.082   2.586  30.023  1.00  0.00     0.185 HD
HETATM    3  C4  UNL     1      -2.532   3.418  28.717  1.00  0.00     0.675 C 
HETATM    4  N4  UNL     1      -3.731   3.953  28.702  1.00  0.00    -0.235 N 
ATOM      5  H41 UNL     1      -4.191   4.107  27.805  1.00  0.00     0.174 HD
ATOM      6  H42 UNL     1      -4.176   4.203  29.585  1.00  0.00     0.174 HD
HETATM    7  N5  UNL     1      -1.913   3.070  27.491  1.00  0.00    -0.218 N 
HETATM    8  C5  UNL     1      -2.611   2.347  26.470  1.00  0.00     0.142 C 
HETATM    9  C6  UNL     1      -2.627   3.221  25.228  1.00  0.00     0.034 C 
HETATM   10  C7  UNL     1      -1.249   3.724  24.961  1.00  0.00     0.081 C 
HETATM   11  C18 UNL     1      -0.206   3.021  25.822  1.00  0.00     0.034 C 
HETATM   12  C19 UNL     1      -0.536   3.457  27.260  1.00  0.00     0.142 C 
ENDROOT
BRANCH   1  13
HETATM   13  C3  UNL     1      -2.375   3.840  31.118  1.00  0.00     0.117 C 
HETATM   14  N2  UNL     1      -2.042   5.050  31.367  1.00  0.00    -0.387 N 
ATOM     15  H22 UNL     1      -2.392   5.513  32.205  1.00  0.00     0.157 HD
ATOM     16  H21 UNL     1      -1.426   5.555  30.729  1.00  0.00     0.157 HD
BRANCH  13  17
HETATM   17  C2  UNL     1      -3.261   3.114  32.034  1.00  0.00     0.313 C 
BRANCH  17  18
HETATM   18  N1  UNL     1      -2.633   2.540  33.180  1.00  0.00    -0.064 N 
HETATM   19  C1  UNL     1      -2.405   3.453  34.255  1.00  0.00     0.273 C 
HETATM   20  C20 UNL     1      -1.420   1.847  32.867  1.00  0.00     0.237 C 
HETATM   21  C21 UNL     1      -1.837   0.463  32.386  1.00  0.00     0.029 C 
HETATM   22  C22 UNL     1      -3.023   0.189  33.271  1.00  0.00     0.029 C 
HETATM   23  C23 UNL     1      -3.562   1.516  33.688  1.00  0.00     0.237 C 
ENDBRANCH  17  18
ENDBRANCH  13  17
ENDBRANCH   1  13
BRANCH  10  24
HETATM   24  C8  UNL     1      -0.853   3.747  23.537  1.00  0.00     0.224 C 
HETATM   25  O1  UNL     1       0.183   3.079  23.170  1.00  0.00    -0.273 OA
HETATM   26  N6  UNL     1      -1.518   4.452  22.513  1.00  0.00    -0.349 N 
HETATM   27  C9  UNL     1      -1.016   4.424  21.133  1.00  0.00     0.154 C 
HETATM   28  C17 UNL     1      -2.719   5.231  22.687  1.00  0.00     0.154 C 
HETATM   29  C10 UNL     1      -2.234   4.326  20.240  1.00  0.00     0.257 C 
HETATM   30  N7  UNL     1      -2.999   5.562  20.274  1.00  0.00    -0.063 N 
HETATM   31  C11 UNL     1      -4.399   5.334  20.059  1.00  0.00     0.273 C 
HETATM   32  C16 UNL     1      -2.828   6.253  21.540  1.00  0.00     0.257 C 
BRANCH  30  33
HETATM   33  C12 UNL     1      -2.493   6.423  19.233  1.00  0.00     0.295 C 
BRANCH  33  34
HETATM   34  C13 UNL     1      -2.763   7.841  19.478  1.00  0.00     0.051 A 
HETATM   35  C14 UNL     1      -1.847   8.854  19.629  1.00  0.00     0.115 A 
HETATM   36  N8  UNL     1      -2.501  10.017  19.840  1.00  0.00    -0.360 N 
HETATM   37  C15 UNL     1      -3.814   9.733  19.820  1.00  0.00     0.180 A 
ATOM     38  H8  UNL     1      -2.080  10.934  19.986  1.00  0.00     0.166 HD
HETATM   39  N9  UNL     1      -3.972   8.404  19.599  1.00  0.00    -0.353 N 
ATOM     40  H9  UNL     1      -4.864   7.914  19.535  1.00  0.00     0.166 HD
ENDBRANCH  33  34
ENDBRANCH  30  33
ENDBRANCH  10  24
TORSDOF 6
ENDMDL
