MODEL 1
REMARK VINA RESULT: -6.144545457      0.000      0.000
REMARK  2 active torsions:
REMARK  status: ('A' for Active; 'I' for Inactive)
REMARK    1  A    between atoms: C2_2  and  C3_3 
REMARK    2  A    between atoms: C10_13  and  C11_14 
ROOT
HETATM    1  C1  UNL     1    -153.816   7.645  -6.656  1.00  0.00     0.028 C 
HETATM    2  C2  UNL     1    -154.185   6.389  -7.488  1.00  0.00     0.065 C 
HETATM    3  C4  UNL     1    -153.013   6.136  -8.319  1.00  0.00    -0.026 A 
HETATM    4  C5  UNL     1    -152.711   6.634  -9.579  1.00  0.00     0.009 A 
HETATM    5  C6  UNL     1    -151.540   6.294 -10.238  1.00  0.00     0.001 A 
HETATM    6  C7  UNL     1    -150.633   5.442  -9.648  1.00  0.00     0.001 A 
HETATM    7  C8  UNL     1    -150.905   4.944  -8.416  1.00  0.00     0.019 A 
HETATM    8  C9  UNL     1    -152.071   5.300  -7.797  1.00  0.00     0.008 A 
HETATM    9  S1  UNL     1    -152.609   4.734  -6.164  1.00  0.00    -0.114 SA
HETATM   10  C10 UNL     1    -154.344   5.298  -6.494  1.00  0.00     0.178 C 
ENDROOT
BRANCH   2  11
HETATM   11  C3  UNL     1    -155.447   6.735  -8.179  1.00  0.00     0.367 C 
HETATM   12  F1  UNL     1    -156.442   6.866  -7.191  1.00  0.00    -0.213 F 
HETATM   13  F2  UNL     1    -155.461   7.973  -8.785  1.00  0.00    -0.213 F 
ENDBRANCH   2  11
BRANCH  10  14
HETATM   14  C11 UNL     1    -155.054   4.066  -6.875  1.00  0.00     0.401 C 
HETATM   15  F3  UNL     1    -154.410   2.900  -6.426  1.00  0.00    -0.170 F 
HETATM   16  F4  UNL     1    -155.491   3.950  -8.154  1.00  0.00    -0.170 F 
HETATM   17  F5  UNL     1    -156.241   4.063  -6.104  1.00  0.00    -0.170 F 
ENDBRANCH  10  14
TORSDOF 2
ENDMDL
MODEL 2
REMARK VINA RESULT: -5.622221784      2.466      4.905
REMARK  2 active torsions:
REMARK  status: ('A' for Active; 'I' for Inactive)
REMARK    1  A    between atoms: C2_2  and  C3_3 
REMARK    2  A    between atoms: C10_13  and  C11_14 
ROOT
HETATM    1  C1  UNL     1    -152.557   5.145  -4.722  1.00  0.00     0.028 C 
HETATM    2  C2  UNL     1    -152.721   4.888  -6.243  1.00  0.00     0.065 C 
HETATM    3  C4  UNL     1    -154.073   4.358  -6.386  1.00  0.00    -0.026 A 
HETATM    4  C5  UNL     1    -154.507   3.041  -6.322  1.00  0.00     0.009 A 
HETATM    5  C6  UNL     1    -155.841   2.703  -6.478  1.00  0.00     0.001 A 
HETATM    6  C7  UNL     1    -156.784   3.681  -6.703  1.00  0.00     0.001 A 
HETATM    7  C8  UNL     1    -156.385   4.975  -6.769  1.00  0.00     0.019 A 
HETATM    8  C9  UNL     1    -155.059   5.271  -6.611  1.00  0.00     0.008 A 
HETATM    9  S1  UNL     1    -154.339   6.931  -6.675  1.00  0.00    -0.114 SA
HETATM   10  C10 UNL     1    -152.634   6.229  -6.874  1.00  0.00     0.178 C 
ENDROOT
BRANCH   2  11
HETATM   11  C3  UNL     1    -151.598   3.997  -6.610  1.00  0.00     0.367 C 
HETATM   12  F1  UNL     1    -150.406   4.660  -6.257  1.00  0.00    -0.213 F 
HETATM   13  F2  UNL     1    -151.518   2.828  -5.885  1.00  0.00    -0.213 F 
ENDBRANCH   2  11
BRANCH  10  14
HETATM   14  C11 UNL     1    -152.371   6.335  -8.319  1.00  0.00     0.401 C 
HETATM   15  F3  UNL     1    -153.459   5.923  -9.107  1.00  0.00    -0.170 F 
HETATM   16  F4  UNL     1    -151.190   5.864  -8.789  1.00  0.00    -0.170 F 
HETATM   17  F5  UNL     1    -152.320   7.723  -8.589  1.00  0.00    -0.170 F 
ENDBRANCH  10  14
TORSDOF 2
ENDMDL
MODEL 3
REMARK VINA RESULT: -5.603468858      1.615      2.169
REMARK  2 active torsions:
REMARK  status: ('A' for Active; 'I' for Inactive)
REMARK    1  A    between atoms: C2_2  and  C3_3 
REMARK    2  A    between atoms: C10_13  and  C11_14 
ROOT
HETATM    1  C1  UNL     1    -156.270   6.880  -6.162  1.00  0.00     0.028 C 
HETATM    2  C2  UNL     1    -156.045   5.645  -7.074  1.00  0.00     0.065 C 
HETATM    3  C4  UNL     1    -154.616   5.660  -7.371  1.00  0.00    -0.026 A 
HETATM    4  C5  UNL     1    -153.945   6.295  -8.407  1.00  0.00     0.009 A 
HETATM    5  C6  UNL     1    -152.569   6.210  -8.546  1.00  0.00     0.001 A 
HETATM    6  C7  UNL     1    -151.822   5.483  -7.646  1.00  0.00     0.001 A 
HETATM    7  C8  UNL     1    -152.455   4.854  -6.625  1.00  0.00     0.019 A 
HETATM    8  C9  UNL     1    -153.815   4.959  -6.519  1.00  0.00     0.008 A 
HETATM    9  S1  UNL     1    -154.832   4.187  -5.236  1.00  0.00    -0.114 SA
HETATM   10  C10 UNL     1    -156.373   4.472  -6.227  1.00  0.00     0.178 C 
ENDROOT
BRANCH   2  11
HETATM   11  C3  UNL     1    -156.977   5.824  -8.209  1.00  0.00     0.367 C 
HETATM   12  F1  UNL     1    -158.284   5.682  -7.702  1.00  0.00    -0.213 F 
HETATM   13  F2  UNL     1    -157.001   7.090  -8.753  1.00  0.00    -0.213 F 
ENDBRANCH   2  11
BRANCH  10  14
HETATM   14  C11 UNL     1    -156.635   3.169  -6.861  1.00  0.00     0.401 C 
HETATM   15  F3  UNL     1    -155.883   2.967  -8.031  1.00  0.00    -0.170 F 
HETATM   16  F4  UNL     1    -157.925   2.778  -7.007  1.00  0.00    -0.170 F 
HETATM   17  F5  UNL     1    -156.080   2.207  -5.984  1.00  0.00    -0.170 F 
ENDBRANCH  10  14
TORSDOF 2
ENDMDL
MODEL 4
REMARK VINA RESULT: -5.510205273      2.259      3.978
REMARK  2 active torsions:
REMARK  status: ('A' for Active; 'I' for Inactive)
REMARK    1  A    between atoms: C2_2  and  C3_3 
REMARK    2  A    between atoms: C10_13  and  C11_14 
ROOT
HETATM    1  C1  UNL     1    -155.763   3.585  -7.758  1.00  0.00     0.028 C 
HETATM    2  C2  UNL     1    -155.655   4.921  -6.978  1.00  0.00     0.065 C 
HETATM    3  C4  UNL     1    -154.394   4.825  -6.250  1.00  0.00    -0.026 A 
HETATM    4  C5  UNL     1    -154.151   4.301  -4.987  1.00  0.00     0.009 A 
HETATM    5  C6  UNL     1    -152.880   4.283  -4.436  1.00  0.00     0.001 A 
HETATM    6  C7  UNL     1    -151.810   4.790  -5.139  1.00  0.00     0.001 A 
HETATM    7  C8  UNL     1    -152.022   5.307  -6.375  1.00  0.00     0.019 A 
HETATM    8  C9  UNL     1    -153.291   5.309  -6.887  1.00  0.00     0.008 A 
HETATM    9  S1  UNL     1    -153.768   5.959  -8.507  1.00  0.00    -0.114 SA
HETATM   10  C10 UNL     1    -155.558   5.972  -8.021  1.00  0.00     0.178 C 
ENDROOT
BRANCH   2  11
HETATM   11  C3  UNL     1    -156.897   5.007  -6.178  1.00  0.00     0.367 C 
HETATM   12  F1  UNL     1    -157.975   5.041  -7.084  1.00  0.00    -0.213 F 
HETATM   13  F2  UNL     1    -157.180   3.894  -5.416  1.00  0.00    -0.213 F 
ENDBRANCH   2  11
BRANCH  10  14
HETATM   14  C11 UNL     1    -155.819   7.376  -7.663  1.00  0.00     0.401 C 
HETATM   15  F3  UNL     1    -155.152   7.778  -6.493  1.00  0.00    -0.170 F 
HETATM   16  F4  UNL     1    -157.102   7.816  -7.699  1.00  0.00    -0.170 F 
HETATM   17  F5  UNL     1    -155.164   8.145  -8.655  1.00  0.00    -0.170 F 
ENDBRANCH  10  14
TORSDOF 2
ENDMDL
MODEL 5
REMARK VINA RESULT: -5.277902063      1.794      2.290
REMARK  2 active torsions:
REMARK  status: ('A' for Active; 'I' for Inactive)
REMARK    1  A    between atoms: C2_2  and  C3_3 
REMARK    2  A    between atoms: C10_13  and  C11_14 
ROOT
HETATM    1  C1  UNL     1    -156.202   6.634  -6.051  1.00  0.00     0.028 C 
HETATM    2  C2  UNL     1    -155.895   5.376  -6.905  1.00  0.00     0.065 C 
HETATM    3  C4  UNL     1    -154.440   5.342  -7.005  1.00  0.00    -0.026 A 
HETATM    4  C5  UNL     1    -153.614   5.936  -7.949  1.00  0.00     0.009 A 
HETATM    5  C6  UNL     1    -152.236   5.808  -7.899  1.00  0.00     0.001 A 
HETATM    6  C7  UNL     1    -151.642   5.076  -6.894  1.00  0.00     0.001 A 
HETATM    7  C8  UNL     1    -152.427   4.486  -5.960  1.00  0.00     0.019 A 
HETATM    8  C9  UNL     1    -153.785   4.634  -6.042  1.00  0.00     0.008 A 
HETATM    9  S1  UNL     1    -154.990   3.919  -4.897  1.00  0.00    -0.114 SA
HETATM   10  C10 UNL     1    -156.373   4.230  -6.092  1.00  0.00     0.178 C 
ENDROOT
BRANCH   2  11
HETATM   11  C3  UNL     1    -156.659   5.560  -8.159  1.00  0.00     0.367 C 
HETATM   12  F1  UNL     1    -158.027   5.507  -7.826  1.00  0.00    -0.213 F 
HETATM   13  F2  UNL     1    -156.540   6.804  -8.739  1.00  0.00    -0.213 F 
ENDBRANCH   2  11
BRANCH  10  14
HETATM   14  C11 UNL     1    -156.589   2.924  -6.736  1.00  0.00     0.401 C 
HETATM   15  F3  UNL     1    -156.347   1.840  -5.875  1.00  0.00    -0.170 F 
HETATM   16  F4  UNL     1    -156.062   2.725  -7.970  1.00  0.00    -0.170 F 
HETATM   17  F5  UNL     1    -157.987   2.832  -6.940  1.00  0.00    -0.170 F 
ENDBRANCH  10  14
TORSDOF 2
ENDMDL
