MODEL 1
REMARK VINA RESULT: -6.410816204      0.000      0.000
REMARK  2 active torsions:
REMARK  status: ('A' for Active; 'I' for Inactive)
REMARK    1  A    between atoms: C1_2  and  C2_5 
REMARK    2  A    between atoms: C9_13  and  C10_14 
ROOT
HETATM    1  C2  UNL     1    -151.232   6.918 -11.034  1.00  0.00     0.274 C 
HETATM    2  F4  UNL     1    -150.291   7.937 -10.939  1.00  0.00    -0.209 F 
HETATM    3  C3  UNL     1    -152.517   7.442 -10.485  1.00  0.00     0.081 C 
HETATM    4  C4  UNL     1    -152.539   7.565  -8.991  1.00  0.00     0.000 C 
HETATM    5  C5  UNL     1    -154.003   7.709  -8.577  1.00  0.00     0.005 C 
HETATM    6  C6  UNL     1    -154.420   6.238  -8.461  1.00  0.00     0.001 C 
HETATM    7  C7  UNL     1    -153.241   5.623  -7.748  1.00  0.00     0.011 C 
HETATM    8  C8  UNL     1    -152.033   6.346  -8.279  1.00  0.00     0.036 C 
HETATM    9  C9  UNL     1    -151.145   5.505  -9.103  1.00  0.00     0.003 C 
HETATM   10  N1  UNL     1    -150.802   5.762 -10.301  1.00  0.00    -0.353 N 
ATOM     11  H1  UNL     1    -150.181   5.103 -10.771  1.00  0.00     0.162 HD
ENDROOT
BRANCH   1  12
HETATM   12  C1  UNL     1    -151.444   6.586 -12.493  1.00  0.00     0.442 C 
HETATM   13  F1  UNL     1    -151.550   7.785 -13.179  1.00  0.00    -0.166 F 
HETATM   14  F2  UNL     1    -150.417   5.813 -12.986  1.00  0.00    -0.166 F 
HETATM   15  F3  UNL     1    -152.673   5.965 -12.591  1.00  0.00    -0.166 F 
ENDBRANCH   1  12
BRANCH   9  16
HETATM   16  C10 UNL     1    -150.606   4.260  -8.486  1.00  0.00     0.167 C 
HETATM   17 CL1  UNL     1    -150.439   4.416  -6.730  1.00  0.00    -0.124 Cl
ENDBRANCH   9  16
TORSDOF 2
ENDMDL
MODEL 2
REMARK VINA RESULT: -6.279809194      3.883      5.139
REMARK  2 active torsions:
REMARK  status: ('A' for Active; 'I' for Inactive)
REMARK    1  A    between atoms: C1_2  and  C2_5 
REMARK    2  A    between atoms: C9_13  and  C10_14 
ROOT
HETATM    1  C2  UNL     1    -154.805   5.910  -7.374  1.00  0.00     0.274 C 
HETATM    2  F4  UNL     1    -155.118   7.197  -6.949  1.00  0.00    -0.209 F 
HETATM    3  C3  UNL     1    -154.312   5.153  -6.187  1.00  0.00     0.081 C 
HETATM    4  C4  UNL     1    -152.930   5.535  -5.749  1.00  0.00     0.000 C 
HETATM    5  C5  UNL     1    -152.431   4.424  -4.825  1.00  0.00     0.005 C 
HETATM    6  C6  UNL     1    -151.837   3.443  -5.843  1.00  0.00     0.001 C 
HETATM    7  C7  UNL     1    -151.095   4.362  -6.783  1.00  0.00     0.011 C 
HETATM    8  C8  UNL     1    -151.940   5.604  -6.873  1.00  0.00     0.036 C 
HETATM    9  C9  UNL     1    -152.559   5.814  -8.195  1.00  0.00     0.003 C 
HETATM   10  N1  UNL     1    -153.806   5.946  -8.404  1.00  0.00    -0.353 N 
ATOM     11  H1  UNL     1    -154.117   6.086  -9.365  1.00  0.00     0.162 HD
ENDROOT
BRANCH   1  12
HETATM   12  C1  UNL     1    -156.068   5.242  -7.867  1.00  0.00     0.442 C 
HETATM   13  F1  UNL     1    -156.764   4.798  -6.754  1.00  0.00    -0.166 F 
HETATM   14  F2  UNL     1    -156.828   6.103  -8.626  1.00  0.00    -0.166 F 
HETATM   15  F3  UNL     1    -155.681   4.115  -8.565  1.00  0.00    -0.166 F 
ENDBRANCH   1  12
BRANCH   9  16
HETATM   16  C10 UNL     1    -151.654   5.878  -9.378  1.00  0.00     0.167 C 
HETATM   17 CL1  UNL     1    -152.120   7.174 -10.492  1.00  0.00    -0.124 Cl
ENDBRANCH   9  16
TORSDOF 2
ENDMDL
MODEL 3
REMARK VINA RESULT: -6.260951859      3.471      4.622
REMARK  2 active torsions:
REMARK  status: ('A' for Active; 'I' for Inactive)
REMARK    1  A    between atoms: C1_2  and  C2_5 
REMARK    2  A    between atoms: C9_13  and  C10_14 
ROOT
HETATM    1  C2  UNL     1    -153.494   6.414  -7.142  1.00  0.00     0.274 C 
HETATM    2  F4  UNL     1    -153.188   7.660  -6.607  1.00  0.00    -0.209 F 
HETATM    3  C3  UNL     1    -153.663   5.466  -6.003  1.00  0.00     0.081 C 
HETATM    4  C4  UNL     1    -152.376   5.064  -5.346  1.00  0.00     0.000 C 
HETATM    5  C5  UNL     1    -152.672   3.820  -4.508  1.00  0.00     0.005 C 
HETATM    6  C6  UNL     1    -152.483   2.713  -5.553  1.00  0.00     0.001 C 
HETATM    7  C7  UNL     1    -151.230   3.154  -6.269  1.00  0.00     0.011 C 
HETATM    8  C8  UNL     1    -151.307   4.657  -6.315  1.00  0.00     0.036 C 
HETATM    9  C9  UNL     1    -151.496   5.206  -7.671  1.00  0.00     0.003 C 
HETATM   10  N1  UNL     1    -152.451   5.970  -8.022  1.00  0.00    -0.353 N 
ATOM     11  H1  UNL     1    -152.476   6.287  -8.991  1.00  0.00     0.162 HD
ENDROOT
BRANCH   1  12
HETATM   12  C1  UNL     1    -154.814   6.510  -7.873  1.00  0.00     0.442 C 
HETATM   13  F1  UNL     1    -154.730   7.587  -8.740  1.00  0.00    -0.166 F 
HETATM   14  F2  UNL     1    -155.102   5.344  -8.545  1.00  0.00    -0.166 F 
HETATM   15  F3  UNL     1    -155.772   6.834  -6.934  1.00  0.00    -0.166 F 
ENDBRANCH   1  12
BRANCH   9  16
HETATM   16  C10 UNL     1    -150.492   4.841  -8.710  1.00  0.00     0.167 C 
HETATM   17 CL1  UNL     1    -150.805   5.667 -10.245  1.00  0.00    -0.124 Cl
ENDBRANCH   9  16
TORSDOF 2
ENDMDL
MODEL 4
REMARK VINA RESULT: -6.170457704      3.322      4.886
REMARK  2 active torsions:
REMARK  status: ('A' for Active; 'I' for Inactive)
REMARK    1  A    between atoms: C1_2  and  C2_5 
REMARK    2  A    between atoms: C9_13  and  C10_14 
ROOT
HETATM    1  C2  UNL     1    -152.850   5.844  -7.289  1.00  0.00     0.274 C 
HETATM    2  F4  UNL     1    -152.555   7.035  -6.634  1.00  0.00    -0.209 F 
HETATM    3  C3  UNL     1    -152.464   4.726  -6.380  1.00  0.00     0.081 C 
HETATM    4  C4  UNL     1    -150.984   4.506  -6.274  1.00  0.00     0.000 C 
HETATM    5  C5  UNL     1    -150.780   3.120  -5.665  1.00  0.00     0.005 C 
HETATM    6  C6  UNL     1    -150.820   2.241  -6.920  1.00  0.00     0.001 C 
HETATM    7  C7  UNL     1    -149.981   3.030  -7.895  1.00  0.00     0.011 C 
HETATM    8  C8  UNL     1    -150.284   4.475  -7.600  1.00  0.00     0.036 C 
HETATM    9  C9  UNL     1    -151.020   5.166  -8.675  1.00  0.00     0.003 C 
HETATM   10  N1  UNL     1    -152.136   5.759  -8.531  1.00  0.00    -0.353 N 
ATOM     11  H1  UNL     1    -152.550   6.202  -9.351  1.00  0.00     0.162 HD
ENDROOT
BRANCH   1  12
HETATM   12  C1  UNL     1    -154.342   5.772  -7.516  1.00  0.00     0.442 C 
HETATM   13  F1  UNL     1    -154.720   4.447  -7.371  1.00  0.00    -0.166 F 
HETATM   14  F2  UNL     1    -155.023   6.588  -6.640  1.00  0.00    -0.166 F 
HETATM   15  F3  UNL     1    -154.565   6.104  -8.837  1.00  0.00    -0.166 F 
ENDBRANCH   1  12
BRANCH   9  16
HETATM   16  C10 UNL     1    -150.410   5.171 -10.035  1.00  0.00     0.167 C 
HETATM   17 CL1  UNL     1    -151.375   6.114 -11.183  1.00  0.00    -0.124 Cl
ENDBRANCH   9  16
TORSDOF 2
ENDMDL
MODEL 5
REMARK VINA RESULT: -5.981183113      4.136      5.661
REMARK  2 active torsions:
REMARK  status: ('A' for Active; 'I' for Inactive)
REMARK    1  A    between atoms: C1_2  and  C2_5 
REMARK    2  A    between atoms: C9_13  and  C10_14 
ROOT
HETATM    1  C2  UNL     1    -154.774   4.736  -6.875  1.00  0.00     0.274 C 
HETATM    2  F4  UNL     1    -155.374   5.646  -6.012  1.00  0.00    -0.209 F 
HETATM    3  C3  UNL     1    -153.789   3.947  -6.081  1.00  0.00     0.081 C 
HETATM    4  C4  UNL     1    -152.543   4.702  -5.726  1.00  0.00     0.000 C 
HETATM    5  C5  UNL     1    -151.502   3.669  -5.295  1.00  0.00     0.005 C 
HETATM    6  C6  UNL     1    -150.887   3.293  -6.648  1.00  0.00     0.001 C 
HETATM    7  C7  UNL     1    -150.736   4.635  -7.320  1.00  0.00     0.011 C 
HETATM    8  C8  UNL     1    -151.933   5.435  -6.883  1.00  0.00     0.036 C 
HETATM    9  C9  UNL     1    -152.888   5.727  -7.968  1.00  0.00     0.003 C 
HETATM   10  N1  UNL     1    -154.122   5.419  -7.957  1.00  0.00    -0.353 N 
ATOM     11  H1  UNL     1    -154.686   5.674  -8.768  1.00  0.00     0.162 HD
ENDROOT
BRANCH   1  12
HETATM   12  C1  UNL     1    -155.830   3.787  -7.392  1.00  0.00     0.442 C 
HETATM   13  F1  UNL     1    -155.395   2.499  -7.129  1.00  0.00    -0.166 F 
HETATM   14  F2  UNL     1    -157.054   4.034  -6.811  1.00  0.00    -0.166 F 
HETATM   15  F3  UNL     1    -155.856   3.922  -8.766  1.00  0.00    -0.166 F 
ENDBRANCH   1  12
BRANCH   9  16
HETATM   16  C10 UNL     1    -152.369   6.438  -9.171  1.00  0.00     0.167 C 
HETATM   17 CL1  UNL     1    -153.020   8.081  -9.294  1.00  0.00    -0.124 Cl
ENDBRANCH   9  16
TORSDOF 2
ENDMDL
