MODEL 1
REMARK VINA RESULT: -6.007623407      0.000      0.000
REMARK  1 active torsions:
REMARK  status: ('A' for Active; 'I' for Inactive)
REMARK    1  A    between atoms: C8_9  and  C9_10 
ROOT
HETATM    1  C1  UNL     1    -153.809   7.862  -8.402  1.00  0.00     0.015 C 
HETATM    2  C2  UNL     1    -154.651   7.016  -7.873  1.00  0.00    -0.079 C 
HETATM    3  C3  UNL     1    -155.796   7.509  -7.091  1.00  0.00     0.037 C 
HETATM    4  C4  UNL     1    -156.467   6.455  -6.277  1.00  0.00     0.050 C 
HETATM    5  C5  UNL     1    -156.542   5.099  -6.870  1.00  0.00     0.129 C 
HETATM    6  F1  UNL     1    -157.865   4.665  -7.042  1.00  0.00    -0.240 F 
HETATM    7  C6  UNL     1    -155.910   5.027  -8.242  1.00  0.00     0.061 C 
HETATM    8  C7  UNL     1    -154.480   5.558  -8.054  1.00  0.00     0.071 C 
HETATM    9  C8  UNL     1    -153.828   4.856  -6.949  1.00  0.00     0.098 C 
HETATM   10  N1  UNL     1    -154.458   4.200  -6.085  1.00  0.00    -0.377 N 
ATOM     11  H1  UNL     1    -153.913   3.745  -5.353  1.00  0.00     0.160 HD
HETATM   12  C10 UNL     1    -155.855   4.038  -6.044  1.00  0.00     0.059 C 
HETATM   13  C11 UNL     1    -156.222   2.686  -6.632  1.00  0.00     0.041 C 
HETATM   14  C12 UNL     1    -156.320   4.029  -4.609  1.00  0.00     0.041 C 
ENDROOT
BRANCH   9  15
HETATM   15  C9  UNL     1    -152.337   4.913  -6.835  1.00  0.00     0.429 C 
HETATM   16  F2  UNL     1    -151.934   5.828  -5.904  1.00  0.00    -0.165 F 
HETATM   17  F3  UNL     1    -151.810   3.682  -6.460  1.00  0.00    -0.165 F 
HETATM   18  F4  UNL     1    -151.812   5.197  -8.077  1.00  0.00    -0.165 F 
ENDBRANCH   9  15
TORSDOF 1
ENDMDL
MODEL 2
REMARK VINA RESULT: -5.741402131      2.155      4.009
REMARK  1 active torsions:
REMARK  status: ('A' for Active; 'I' for Inactive)
REMARK    1  A    between atoms: C8_9  and  C9_10 
ROOT
HETATM    1  C1  UNL     1    -150.549   2.072  -5.807  1.00  0.00     0.015 C 
HETATM    2  C2  UNL     1    -151.629   2.803  -5.871  1.00  0.00    -0.079 C 
HETATM    3  C3  UNL     1    -152.953   2.167  -5.782  1.00  0.00     0.037 C 
HETATM    4  C4  UNL     1    -154.076   3.055  -6.204  1.00  0.00     0.050 C 
HETATM    5  C5  UNL     1    -153.954   4.493  -5.868  1.00  0.00     0.129 C 
HETATM    6  F1  UNL     1    -154.991   4.935  -5.033  1.00  0.00    -0.240 F 
HETATM    7  C6  UNL     1    -152.673   4.812  -5.128  1.00  0.00     0.061 C 
HETATM    8  C7  UNL     1    -151.547   4.271  -6.023  1.00  0.00     0.071 C 
HETATM    9  C8  UNL     1    -151.707   4.776  -7.386  1.00  0.00     0.098 C 
HETATM   10  N1  UNL     1    -152.781   5.264  -7.816  1.00  0.00    -0.377 N 
ATOM     11  H1  UNL     1    -152.793   5.588  -8.783  1.00  0.00     0.160 HD
HETATM   12  C10 UNL     1    -153.968   5.399  -7.075  1.00  0.00     0.059 C 
HETATM   13  C11 UNL     1    -154.088   6.830  -6.575  1.00  0.00     0.041 C 
HETATM   14  C12 UNL     1    -155.155   5.151  -7.971  1.00  0.00     0.041 C 
ENDROOT
BRANCH   9  15
HETATM   15  C9  UNL     1    -150.541   4.716  -8.322  1.00  0.00     0.429 C 
HETATM   16  F2  UNL     1    -149.358   4.938  -7.674  1.00  0.00    -0.165 F 
HETATM   17  F3  UNL     1    -150.448   3.471  -8.935  1.00  0.00    -0.165 F 
HETATM   18  F4  UNL     1    -150.739   5.632  -9.332  1.00  0.00    -0.165 F 
ENDBRANCH   9  15
TORSDOF 1
ENDMDL
MODEL 3
REMARK VINA RESULT: -5.735911638      2.163      3.622
REMARK  1 active torsions:
REMARK  status: ('A' for Active; 'I' for Inactive)
REMARK    1  A    between atoms: C8_9  and  C9_10 
ROOT
HETATM    1  C1  UNL     1    -150.508   4.634  -6.677  1.00  0.00     0.015 C 
HETATM    2  C2  UNL     1    -151.795   4.854  -6.651  1.00  0.00    -0.079 C 
HETATM    3  C3  UNL     1    -152.706   3.829  -6.118  1.00  0.00     0.037 C 
HETATM    4  C4  UNL     1    -154.140   4.064  -6.456  1.00  0.00     0.050 C 
HETATM    5  C5  UNL     1    -154.597   5.473  -6.490  1.00  0.00     0.129 C 
HETATM    6  F1  UNL     1    -155.615   5.725  -5.558  1.00  0.00    -0.240 F 
HETATM    7  C6  UNL     1    -153.492   6.452  -6.158  1.00  0.00     0.061 C 
HETATM    8  C7  UNL     1    -152.359   6.129  -7.144  1.00  0.00     0.071 C 
HETATM    9  C8  UNL     1    -152.880   6.104  -8.511  1.00  0.00     0.098 C 
HETATM   10  N1  UNL     1    -154.102   6.003  -8.779  1.00  0.00    -0.377 N 
ATOM     11  H1  UNL     1    -154.366   5.993  -9.764  1.00  0.00     0.160 HD
HETATM   12  C10 UNL     1    -155.137   5.902  -7.832  1.00  0.00     0.059 C 
HETATM   13  C11 UNL     1    -155.788   7.263  -7.653  1.00  0.00     0.041 C 
HETATM   14  C12 UNL     1    -156.206   4.973  -8.350  1.00  0.00     0.041 C 
ENDROOT
BRANCH   9  15
HETATM   15  C9  UNL     1    -151.918   6.205  -9.653  1.00  0.00     0.429 C 
HETATM   16  F2  UNL     1    -151.033   5.164  -9.666  1.00  0.00    -0.165 F 
HETATM   17  F3  UNL     1    -152.582   6.197 -10.876  1.00  0.00    -0.165 F 
HETATM   18  F4  UNL     1    -151.267   7.417  -9.574  1.00  0.00    -0.165 F 
ENDBRANCH   9  15
TORSDOF 1
ENDMDL
MODEL 4
REMARK VINA RESULT: -5.655119320      1.665      2.295
REMARK  1 active torsions:
REMARK  status: ('A' for Active; 'I' for Inactive)
REMARK    1  A    between atoms: C8_9  and  C9_10 
ROOT
HETATM    1  C1  UNL     1    -156.984   7.186  -8.479  1.00  0.00     0.015 C 
HETATM    2  C2  UNL     1    -156.770   6.116  -7.762  1.00  0.00    -0.079 C 
HETATM    3  C3  UNL     1    -157.772   5.678  -6.777  1.00  0.00     0.037 C 
HETATM    4  C4  UNL     1    -157.261   4.664  -5.810  1.00  0.00     0.050 C 
HETATM    5  C5  UNL     1    -156.296   3.669  -6.331  1.00  0.00     0.129 C 
HETATM    6  F1  UNL     1    -156.770   2.354  -6.214  1.00  0.00    -0.240 F 
HETATM    7  C6  UNL     1    -155.997   3.863  -7.802  1.00  0.00     0.061 C 
HETATM    8  C7  UNL     1    -155.534   5.323  -7.929  1.00  0.00     0.071 C 
HETATM    9  C8  UNL     1    -154.472   5.595  -6.960  1.00  0.00     0.098 C 
HETATM   10  N1  UNL     1    -154.246   4.865  -5.965  1.00  0.00    -0.377 N 
ATOM     11  H1  UNL     1    -153.483   5.140  -5.346  1.00  0.00     0.160 HD
HETATM   12  C10 UNL     1    -154.958   3.699  -5.632  1.00  0.00     0.059 C 
HETATM   13  C11 UNL     1    -154.171   2.482  -6.090  1.00  0.00     0.041 C 
HETATM   14  C12 UNL     1    -155.086   3.595  -4.133  1.00  0.00     0.041 C 
ENDROOT
BRANCH   9  15
HETATM   15  C9  UNL     1    -153.605   6.799  -7.157  1.00  0.00     0.429 C 
HETATM   16  F2  UNL     1    -152.334   6.589  -6.703  1.00  0.00    -0.165 F 
HETATM   17  F3  UNL     1    -153.512   7.141  -8.502  1.00  0.00    -0.165 F 
HETATM   18  F4  UNL     1    -154.193   7.873  -6.525  1.00  0.00    -0.165 F 
ENDBRANCH   9  15
TORSDOF 1
ENDMDL
MODEL 5
REMARK VINA RESULT: -5.628582652      1.402      1.725
REMARK  1 active torsions:
REMARK  status: ('A' for Active; 'I' for Inactive)
REMARK    1  A    between atoms: C8_9  and  C9_10 
ROOT
HETATM    1  C1  UNL     1    -152.608   6.822  -7.533  1.00  0.00     0.015 C 
HETATM    2  C2  UNL     1    -153.864   6.515  -7.352  1.00  0.00    -0.079 C 
HETATM    3  C3  UNL     1    -154.863   7.580  -7.164  1.00  0.00     0.037 C 
HETATM    4  C4  UNL     1    -156.171   7.092  -6.639  1.00  0.00     0.050 C 
HETATM    5  C5  UNL     1    -156.628   5.764  -7.111  1.00  0.00     0.129 C 
HETATM    6  F1  UNL     1    -157.851   5.834  -7.795  1.00  0.00    -0.240 F 
HETATM    7  C6  UNL     1    -155.657   5.124  -8.078  1.00  0.00     0.061 C 
HETATM    8  C7  UNL     1    -154.309   5.105  -7.341  1.00  0.00     0.071 C 
HETATM    9  C8  UNL     1    -154.472   4.503  -6.017  1.00  0.00     0.098 C 
HETATM   10  N1  UNL     1    -155.587   4.368  -5.458  1.00  0.00    -0.377 N 
ATOM     11  H1  UNL     1    -155.597   3.937  -4.533  1.00  0.00     0.160 HD
HETATM   12  C10 UNL     1    -156.824   4.761  -6.000  1.00  0.00     0.059 C 
HETATM   13  C11 UNL     1    -157.522   3.548  -6.592  1.00  0.00     0.041 C 
HETATM   14  C12 UNL     1    -157.715   5.282  -4.900  1.00  0.00     0.041 C 
ENDROOT
BRANCH   9  15
HETATM   15  C9  UNL     1    -153.258   4.020  -5.288  1.00  0.00     0.429 C 
HETATM   16  F2  UNL     1    -153.530   2.922  -4.522  1.00  0.00    -0.165 F 
HETATM   17  F3  UNL     1    -152.244   3.666  -6.172  1.00  0.00    -0.165 F 
HETATM   18  F4  UNL     1    -152.763   5.055  -4.524  1.00  0.00    -0.165 F 
ENDBRANCH   9  15
TORSDOF 1
ENDMDL
