MODEL 1
REMARK VINA RESULT: -6.445772829      0.000      0.000
REMARK  2 active torsions:
REMARK  status: ('A' for Active; 'I' for Inactive)
REMARK    1  A    between atoms: O1_1  and  C1_3 
REMARK    2  A    between atoms: C1_3  and  C2_4 
ROOT
HETATM    1  C1  UNL     1    -154.687   5.760  -7.698  1.00  0.00     0.186 C 
HETATM    2  C3  UNL     1    -153.215   5.600  -7.899  1.00  0.00     0.050 C 
HETATM    3  C4  UNL     1    -152.283   5.951  -6.826  1.00  0.00     0.003 C 
HETATM    4  C5  UNL     1    -151.235   4.864  -6.467  1.00  0.00     0.000 C 
HETATM    5  C6  UNL     1    -152.076   3.746  -6.004  1.00  0.00     0.000 C 
HETATM    6  C7  UNL     1    -151.586   2.506  -5.409  1.00  0.00     0.000 C 
HETATM    7  C8  UNL     1    -152.866   1.820  -4.876  1.00  0.00     0.000 C 
HETATM    8  C9  UNL     1    -154.029   1.855  -5.802  1.00  0.00     0.000 C 
HETATM    9  C10 UNL     1    -155.133   2.812  -5.494  1.00  0.00     0.003 C 
HETATM   10  C11 UNL     1    -155.630   3.622  -6.701  1.00  0.00     0.041 C 
HETATM   11  C12 UNL     1    -155.350   5.081  -6.583  1.00  0.00     0.213 C 
HETATM   12  F4  UNL     1    -156.602   5.675  -6.383  1.00  0.00    -0.246 F 
ENDROOT
BRANCH   1  13
HETATM   13  O1  UNL     1    -155.276   5.212  -8.875  1.00  0.00    -0.378 OA
ATOM     14  H1  UNL     1    -155.342   4.282  -8.693  1.00  0.00     0.211 HD
ENDBRANCH   1  13
BRANCH   1  15
HETATM   15  C2  UNL     1    -154.987   7.241  -7.784  1.00  0.00     0.421 C 
HETATM   16  F1  UNL     1    -154.061   7.870  -8.632  1.00  0.00    -0.168 F 
HETATM   17  F2  UNL     1    -156.208   7.561  -8.269  1.00  0.00    -0.168 F 
HETATM   18  F3  UNL     1    -154.854   7.881  -6.566  1.00  0.00    -0.168 F 
ENDBRANCH   1  15
TORSDOF 2
ENDMDL
MODEL 2
REMARK VINA RESULT: -6.362673634      1.761      3.324
REMARK  2 active torsions:
REMARK  status: ('A' for Active; 'I' for Inactive)
REMARK    1  A    between atoms: O1_1  and  C1_3 
REMARK    2  A    between atoms: C1_3  and  C2_4 
ROOT
HETATM    1  C1  UNL     1    -153.058   6.358  -7.644  1.00  0.00     0.186 C 
HETATM    2  C3  UNL     1    -154.448   6.042  -7.194  1.00  0.00     0.050 C 
HETATM    3  C4  UNL     1    -155.230   5.016  -7.886  1.00  0.00     0.003 C 
HETATM    4  C5  UNL     1    -155.873   3.936  -6.974  1.00  0.00     0.000 C 
HETATM    5  C6  UNL     1    -154.698   3.290  -6.362  1.00  0.00     0.000 C 
HETATM    6  C7  UNL     1    -154.730   2.101  -5.516  1.00  0.00     0.000 C 
HETATM    7  C8  UNL     1    -153.240   1.709  -5.373  1.00  0.00     0.000 C 
HETATM    8  C9  UNL     1    -152.314   2.844  -5.118  1.00  0.00     0.000 C 
HETATM    9  C10 UNL     1    -151.463   3.314  -6.253  1.00  0.00     0.003 C 
HETATM   10  C11 UNL     1    -151.423   4.839  -6.430  1.00  0.00     0.041 C 
HETATM   11  C12 UNL     1    -152.050   5.297  -7.702  1.00  0.00     0.213 C 
HETATM   12  F4  UNL     1    -150.984   5.742  -8.492  1.00  0.00    -0.246 F 
ENDROOT
BRANCH   1  13
HETATM   13  O1  UNL     1    -152.569   7.290  -6.682  1.00  0.00    -0.378 OA
ATOM     14  H1  UNL     1    -151.979   6.779  -6.139  1.00  0.00     0.211 HD
ENDBRANCH   1  13
BRANCH   1  15
HETATM   15  C2  UNL     1    -153.178   7.165  -8.918  1.00  0.00     0.421 C 
HETATM   16  F1  UNL     1    -152.202   8.175  -8.941  1.00  0.00    -0.168 F 
HETATM   17  F2  UNL     1    -153.018   6.470 -10.066  1.00  0.00    -0.168 F 
HETATM   18  F3  UNL     1    -154.386   7.831  -9.012  1.00  0.00    -0.168 F 
ENDBRANCH   1  15
TORSDOF 2
ENDMDL
MODEL 3
REMARK VINA RESULT: -6.116988260      3.819      5.462
REMARK  2 active torsions:
REMARK  status: ('A' for Active; 'I' for Inactive)
REMARK    1  A    between atoms: O1_1  and  C1_3 
REMARK    2  A    between atoms: C1_3  and  C2_4 
ROOT
HETATM    1  C1  UNL     1    -151.027   3.973  -6.541  1.00  0.00     0.186 C 
HETATM    2  C3  UNL     1    -150.289   4.647  -7.652  1.00  0.00     0.050 C 
HETATM    3  C4  UNL     1    -150.700   4.441  -9.042  1.00  0.00     0.003 C 
HETATM    4  C5  UNL     1    -150.909   5.733  -9.877  1.00  0.00     0.000 C 
HETATM    5  C6  UNL     1    -152.009   6.404  -9.162  1.00  0.00     0.000 C 
HETATM    6  C7  UNL     1    -152.701   7.609  -9.610  1.00  0.00     0.000 C 
HETATM    7  C8  UNL     1    -153.907   7.723  -8.650  1.00  0.00     0.000 C 
HETATM    8  C9  UNL     1    -153.595   7.469  -7.218  1.00  0.00     0.000 C 
HETATM    9  C10 UNL     1    -154.019   6.159  -6.637  1.00  0.00     0.003 C 
HETATM   10  C11 UNL     1    -152.945   5.460  -5.791  1.00  0.00     0.041 C 
HETATM   11  C12 UNL     1    -152.468   4.182  -6.390  1.00  0.00     0.213 C 
HETATM   12  F4  UNL     1    -152.976   3.179  -5.555  1.00  0.00    -0.246 F 
ENDROOT
BRANCH   1  13
HETATM   13  O1  UNL     1    -150.444   4.494  -5.350  1.00  0.00    -0.378 OA
ATOM     14  H1  UNL     1    -151.174   4.882  -4.881  1.00  0.00     0.211 HD
ENDBRANCH   1  13
BRANCH   1  15
HETATM   15  C2  UNL     1    -150.612   2.518  -6.554  1.00  0.00     0.421 C 
HETATM   16  F1  UNL     1    -150.029   2.173  -5.324  1.00  0.00    -0.168 F 
HETATM   17  F2  UNL     1    -151.611   1.628  -6.751  1.00  0.00    -0.168 F 
HETATM   18  F3  UNL     1    -149.640   2.251  -7.500  1.00  0.00    -0.168 F 
ENDBRANCH   1  15
TORSDOF 2
ENDMDL
MODEL 4
REMARK VINA RESULT: -6.025942887      3.476      5.235
REMARK  2 active torsions:
REMARK  status: ('A' for Active; 'I' for Inactive)
REMARK    1  A    between atoms: O1_1  and  C1_3 
REMARK    2  A    between atoms: C1_3  and  C2_4 
ROOT
HETATM    1  C1  UNL     1    -151.731   4.363  -6.179  1.00  0.00     0.186 C 
HETATM    2  C3  UNL     1    -150.573   4.606  -7.092  1.00  0.00     0.050 C 
HETATM    3  C4  UNL     1    -150.560   4.022  -8.435  1.00  0.00     0.003 C 
HETATM    4  C5  UNL     1    -150.260   5.013  -9.592  1.00  0.00     0.000 C 
HETATM    5  C6  UNL     1    -151.387   5.958  -9.508  1.00  0.00     0.000 C 
HETATM    6  C7  UNL     1    -151.674   7.022 -10.464  1.00  0.00     0.000 C 
HETATM    7  C8  UNL     1    -153.079   7.521 -10.053  1.00  0.00     0.000 C 
HETATM    8  C9  UNL     1    -153.283   7.688  -8.590  1.00  0.00     0.000 C 
HETATM    9  C10 UNL     1    -154.096   6.656  -7.880  1.00  0.00     0.003 C 
HETATM   10  C11 UNL     1    -153.486   6.160  -6.561  1.00  0.00     0.041 C 
HETATM   11  C12 UNL     1    -153.085   4.726  -6.603  1.00  0.00     0.213 C 
HETATM   12  F4  UNL     1    -154.001   4.069  -5.773  1.00  0.00    -0.246 F 
ENDROOT
BRANCH   1  13
HETATM   13  O1  UNL     1    -151.467   5.172  -5.035  1.00  0.00    -0.378 OA
ATOM     14  H1  UNL     1    -152.300   5.216  -4.581  1.00  0.00     0.211 HD
ENDBRANCH   1  13
BRANCH   1  15
HETATM   15  C2  UNL     1    -151.604   2.944  -5.671  1.00  0.00     0.421 C 
HETATM   16  F1  UNL     1    -152.073   2.862  -4.349  1.00  0.00    -0.168 F 
HETATM   17  F2  UNL     1    -152.293   2.011  -6.365  1.00  0.00    -0.168 F 
HETATM   18  F3  UNL     1    -150.290   2.517  -5.612  1.00  0.00    -0.168 F 
ENDBRANCH   1  15
TORSDOF 2
ENDMDL
MODEL 5
REMARK VINA RESULT: -6.006382181      2.509      4.857
REMARK  2 active torsions:
REMARK  status: ('A' for Active; 'I' for Inactive)
REMARK    1  A    between atoms: O1_1  and  C1_3 
REMARK    2  A    between atoms: C1_3  and  C2_4 
ROOT
HETATM    1  C1  UNL     1    -154.407   5.524  -7.300  1.00  0.00     0.186 C 
HETATM    2  C3  UNL     1    -155.075   4.187  -7.302  1.00  0.00     0.050 C 
HETATM    3  C4  UNL     1    -155.735   3.693  -6.092  1.00  0.00     0.003 C 
HETATM    4  C5  UNL     1    -157.192   3.191  -6.282  1.00  0.00     0.000 C 
HETATM    5  C6  UNL     1    -157.895   4.406  -6.732  1.00  0.00     0.000 C 
HETATM    6  C7  UNL     1    -159.337   4.528  -6.923  1.00  0.00     0.000 C 
HETATM    7  C8  UNL     1    -159.555   6.045  -7.135  1.00  0.00     0.000 C 
HETATM    8  C9  UNL     1    -158.572   6.700  -8.038  1.00  0.00     0.000 C 
HETATM    9  C10 UNL     1    -157.512   7.547  -7.413  1.00  0.00     0.003 C 
HETATM   10  C11 UNL     1    -156.097   7.302  -7.958  1.00  0.00     0.041 C 
HETATM   11  C12 UNL     1    -155.170   6.722  -6.946  1.00  0.00     0.213 C 
HETATM   12  F4  UNL     1    -154.269   7.750  -6.648  1.00  0.00    -0.246 F 
ENDROOT
BRANCH   1  13
HETATM   13  O1  UNL     1    -153.995   5.725  -8.650  1.00  0.00    -0.378 OA
ATOM     14  H1  UNL     1    -154.751   6.120  -9.069  1.00  0.00     0.211 HD
ENDBRANCH   1  13
BRANCH   1  15
HETATM   15  C2  UNL     1    -153.111   5.370  -6.534  1.00  0.00     0.421 C 
HETATM   16  F1  UNL     1    -152.162   6.291  -7.005  1.00  0.00    -0.168 F 
HETATM   17  F2  UNL     1    -153.194   5.574  -5.200  1.00  0.00    -0.168 F 
HETATM   18  F3  UNL     1    -152.530   4.129  -6.718  1.00  0.00    -0.168 F 
ENDBRANCH   1  15
TORSDOF 2
ENDMDL
