MODEL 1
REMARK VINA RESULT: -7.665164234      0.000      0.000
REMARK  6 active torsions:
REMARK  status: ('A' for Active; 'I' for Inactive)
REMARK    1  A    between atoms: C6_7  and  C7_8 
REMARK    2  A    between atoms: C7_8  and  C8_9 
REMARK    3  A    between atoms: C8_9  and  N2_10 
REMARK    4  A    between atoms: N2_10  and  C9_12 
REMARK    5  A    between atoms: C9_12  and  C10_13 
REMARK    6  A    between atoms: C13_16  and  N3_17 
ROOT
HETATM    1  N2  UNL     1      58.457   1.954  30.557  1.00  0.00    -0.398 N 
ATOM      2  H2  UNL     1      58.642   0.952  30.513  1.00  0.00     0.158 HD
ENDROOT
BRANCH   1   3
HETATM    3  C8  UNL     1      59.006   2.741  31.606  1.00  0.00     0.125 C 
BRANCH   3   4
HETATM    4  C7  UNL     1      60.487   2.663  31.756  1.00  0.00     0.076 C 
BRANCH   4   5
HETATM    5  C6  UNL     1      61.115   3.765  31.015  1.00  0.00     0.012 A 
HETATM    6  N1  UNL     1      62.249   3.603  30.361  1.00  0.00    -0.364 N 
HETATM    7  C1  UNL     1      63.006   2.396  30.277  1.00  0.00     0.155 C 
HETATM    8  C2  UNL     1      62.767   4.679  29.697  1.00  0.00     0.090 A 
HETATM    9  C3  UNL     1      62.143   5.913  29.692  1.00  0.00     0.017 A 
HETATM   10  C4  UNL     1      60.959   6.070  30.379  1.00  0.00     0.003 A 
HETATM   11  C5  UNL     1      60.450   4.996  31.037  1.00  0.00     0.025 A 
ENDBRANCH   4   5
ENDBRANCH   3   4
ENDBRANCH   1   3
BRANCH   1  12
HETATM   12  C9  UNL     1      57.654   2.575  29.580  1.00  0.00     0.096 C 
BRANCH  12  13
HETATM   13  C10 UNL     1      56.278   2.725  30.181  1.00  0.00     0.001 A 
HETATM   14  C11 UNL     1      55.488   1.656  30.515  1.00  0.00     0.019 A 
HETATM   15  C12 UNL     1      54.222   1.831  31.083  1.00  0.00     0.057 A 
HETATM   16  C13 UNL     1      53.823   3.135  31.283  1.00  0.00     0.140 A 
HETATM   17  O1  UNL     1      54.579   4.165  30.964  1.00  0.00    -0.305 OA
HETATM   18  C14 UNL     1      55.765   3.996  30.432  1.00  0.00     0.157 A 
BRANCH  16  19
HETATM   19  N3  UNL     1      52.659   3.352  31.807  1.00  0.00    -0.380 N 
ATOM     20  H32 UNL     1      52.381   2.818  32.631  1.00  0.00     0.158 HD
ATOM     21  H31 UNL     1      52.055   4.052  31.377  1.00  0.00     0.158 HD
ENDBRANCH  16  19
ENDBRANCH  12  13
ENDBRANCH   1  12
TORSDOF 6
ENDMDL
MODEL 2
REMARK VINA RESULT: -7.377665472      1.186      1.756
REMARK  6 active torsions:
REMARK  status: ('A' for Active; 'I' for Inactive)
REMARK    1  A    between atoms: C6_7  and  C7_8 
REMARK    2  A    between atoms: C7_8  and  C8_9 
REMARK    3  A    between atoms: C8_9  and  N2_10 
REMARK    4  A    between atoms: N2_10  and  C9_12 
REMARK    5  A    between atoms: C9_12  and  C10_13 
REMARK    6  A    between atoms: C13_16  and  N3_17 
ROOT
HETATM    1  N2  UNL     1      58.266   1.800  30.223  1.00  0.00    -0.398 N 
ATOM      2  H2  UNL     1      58.580   0.840  30.369  1.00  0.00     0.158 HD
ENDROOT
BRANCH   1   3
HETATM    3  C8  UNL     1      58.790   2.856  31.016  1.00  0.00     0.125 C 
BRANCH   3   4
HETATM    4  C7  UNL     1      59.410   3.980  30.256  1.00  0.00     0.076 C 
BRANCH   4   5
HETATM    5  C6  UNL     1      60.867   3.800  30.214  1.00  0.00     0.012 A 
HETATM    6  N1  UNL     1      61.630   4.079  31.254  1.00  0.00    -0.364 N 
HETATM    7  C1  UNL     1      61.182   4.576  32.514  1.00  0.00     0.155 C 
HETATM    8  C2  UNL     1      62.977   3.884  31.134  1.00  0.00     0.090 A 
HETATM    9  C3  UNL     1      63.551   3.409  29.970  1.00  0.00     0.017 A 
HETATM   10  C4  UNL     1      62.745   3.121  28.891  1.00  0.00     0.003 A 
HETATM   11  C5  UNL     1      61.406   3.317  29.017  1.00  0.00     0.025 A 
ENDBRANCH   4   5
ENDBRANCH   3   4
ENDBRANCH   1   3
BRANCH   1  12
HETATM   12  C9  UNL     1      57.309   2.094  29.232  1.00  0.00     0.096 C 
BRANCH  12  13
HETATM   13  C10 UNL     1      56.019   2.400  29.953  1.00  0.00     0.001 A 
HETATM   14  C11 UNL     1      55.328   1.466  30.679  1.00  0.00     0.019 A 
HETATM   15  C12 UNL     1      54.142   1.788  31.347  1.00  0.00     0.057 A 
HETATM   16  C13 UNL     1      53.716   3.094  31.228  1.00  0.00     0.140 A 
HETATM   17  O1  UNL     1      54.377   3.995  30.531  1.00  0.00    -0.305 OA
HETATM   18  C14 UNL     1      55.488   3.689  29.908  1.00  0.00     0.157 A 
BRANCH  16  19
HETATM   19  N3  UNL     1      52.623   3.444  31.827  1.00  0.00    -0.380 N 
ATOM     20  H32 UNL     1      52.580   3.393  32.845  1.00  0.00     0.158 HD
ATOM     21  H31 UNL     1      51.837   3.759  31.259  1.00  0.00     0.158 HD
ENDBRANCH  16  19
ENDBRANCH  12  13
ENDBRANCH   1  12
TORSDOF 6
ENDMDL
MODEL 3
REMARK VINA RESULT: -7.373019440      1.739      2.496
REMARK  6 active torsions:
REMARK  status: ('A' for Active; 'I' for Inactive)
REMARK    1  A    between atoms: C6_7  and  C7_8 
REMARK    2  A    between atoms: C7_8  and  C8_9 
REMARK    3  A    between atoms: C8_9  and  N2_10 
REMARK    4  A    between atoms: N2_10  and  C9_12 
REMARK    5  A    between atoms: C9_12  and  C10_13 
REMARK    6  A    between atoms: C13_16  and  N3_17 
ROOT
HETATM    1  N2  UNL     1      58.996   4.296  29.974  1.00  0.00    -0.398 N 
ATOM      2  H2  UNL     1      58.260   4.972  30.178  1.00  0.00     0.158 HD
ENDROOT
BRANCH   1   3
HETATM    3  C8  UNL     1      60.315   4.735  29.682  1.00  0.00     0.125 C 
BRANCH   3   4
HETATM    4  C7  UNL     1      60.932   5.630  30.703  1.00  0.00     0.076 C 
BRANCH   4   5
HETATM    5  C6  UNL     1      61.377   4.830  31.852  1.00  0.00     0.012 A 
HETATM    6  N1  UNL     1      62.549   4.223  31.862  1.00  0.00    -0.364 N 
HETATM    7  C1  UNL     1      63.515   4.245  30.812  1.00  0.00     0.155 C 
HETATM    8  C2  UNL     1      62.887   3.498  32.970  1.00  0.00     0.090 A 
HETATM    9  C3  UNL     1      62.048   3.387  34.062  1.00  0.00     0.017 A 
HETATM   10  C4  UNL     1      60.828   4.025  34.040  1.00  0.00     0.003 A 
HETATM   11  C5  UNL     1      60.497   4.744  32.936  1.00  0.00     0.025 A 
ENDBRANCH   4   5
ENDBRANCH   3   4
ENDBRANCH   1   3
BRANCH   1  12
HETATM   12  C9  UNL     1      58.717   2.915  29.979  1.00  0.00     0.096 C 
BRANCH  12  13
HETATM   13  C10 UNL     1      57.261   2.768  30.349  1.00  0.00     0.001 A 
HETATM   14  C11 UNL     1      56.270   2.576  29.422  1.00  0.00     0.019 A 
HETATM   15  C12 UNL     1      54.932   2.430  29.800  1.00  0.00     0.057 A 
HETATM   16  C13 UNL     1      54.675   2.493  31.153  1.00  0.00     0.140 A 
HETATM   17  O1  UNL     1      55.625   2.678  32.048  1.00  0.00    -0.305 OA
HETATM   18  C14 UNL     1      56.877   2.814  31.688  1.00  0.00     0.157 A 
BRANCH  16  19
HETATM   19  N3  UNL     1      53.452   2.363  31.556  1.00  0.00    -0.380 N 
ATOM     20  H32 UNL     1      52.781   1.888  30.953  1.00  0.00     0.158 HD
ATOM     21  H31 UNL     1      53.198   2.743  32.468  1.00  0.00     0.158 HD
ENDBRANCH  16  19
ENDBRANCH  12  13
ENDBRANCH   1  12
TORSDOF 6
ENDMDL
MODEL 4
REMARK VINA RESULT: -7.370354464      1.653      2.419
REMARK  6 active torsions:
REMARK  status: ('A' for Active; 'I' for Inactive)
REMARK    1  A    between atoms: C6_7  and  C7_8 
REMARK    2  A    between atoms: C7_8  and  C8_9 
REMARK    3  A    between atoms: C8_9  and  N2_10 
REMARK    4  A    between atoms: N2_10  and  C9_12 
REMARK    5  A    between atoms: C9_12  and  C10_13 
REMARK    6  A    between atoms: C13_16  and  N3_17 
ROOT
HETATM    1  N2  UNL     1      59.193   2.205  30.213  1.00  0.00    -0.398 N 
ATOM      2  H2  UNL     1      59.181   1.755  31.128  1.00  0.00     0.158 HD
ENDROOT
BRANCH   1   3
HETATM    3  C8  UNL     1      60.261   3.069  29.850  1.00  0.00     0.125 C 
BRANCH   3   4
HETATM    4  C7  UNL     1      60.385   4.311  30.665  1.00  0.00     0.076 C 
BRANCH   4   5
HETATM    5  C6  UNL     1      61.023   3.994  31.950  1.00  0.00     0.012 A 
HETATM    6  N1  UNL     1      62.336   3.975  32.085  1.00  0.00    -0.364 N 
HETATM    7  C1  UNL     1      63.290   4.244  31.060  1.00  0.00     0.155 C 
HETATM    8  C2  UNL     1      62.850   3.670  33.314  1.00  0.00     0.090 A 
HETATM    9  C3  UNL     1      62.044   3.385  34.401  1.00  0.00     0.017 A 
HETATM   10  C4  UNL     1      60.676   3.407  34.246  1.00  0.00     0.003 A 
HETATM   11  C5  UNL     1      60.170   3.711  33.022  1.00  0.00     0.025 A 
ENDBRANCH   4   5
ENDBRANCH   3   4
ENDBRANCH   1   3
BRANCH   1  12
HETATM   12  C9  UNL     1      58.150   1.978  29.294  1.00  0.00     0.096 C 
BRANCH  12  13
HETATM   13  C10 UNL     1      56.872   2.405  29.974  1.00  0.00     0.001 A 
HETATM   14  C11 UNL     1      56.814   2.778  31.291  1.00  0.00     0.019 A 
HETATM   15  C12 UNL     1      55.615   3.182  31.886  1.00  0.00     0.057 A 
HETATM   16  C13 UNL     1      54.504   3.180  31.070  1.00  0.00     0.140 A 
HETATM   17  O1  UNL     1      54.554   2.823  29.804  1.00  0.00    -0.305 OA
HETATM   18  C14 UNL     1      55.680   2.445  29.251  1.00  0.00     0.157 A 
BRANCH  16  19
HETATM   19  N3  UNL     1      53.368   3.546  31.573  1.00  0.00    -0.380 N 
ATOM     20  H32 UNL     1      52.510   3.318  31.071  1.00  0.00     0.158 HD
ATOM     21  H31 UNL     1      53.369   4.053  32.458  1.00  0.00     0.158 HD
ENDBRANCH  16  19
ENDBRANCH  12  13
ENDBRANCH   1  12
TORSDOF 6
ENDMDL
MODEL 5
REMARK VINA RESULT: -7.319942479      1.331      2.140
REMARK  6 active torsions:
REMARK  status: ('A' for Active; 'I' for Inactive)
REMARK    1  A    between atoms: C6_7  and  C7_8 
REMARK    2  A    between atoms: C7_8  and  C8_9 
REMARK    3  A    between atoms: C8_9  and  N2_10 
REMARK    4  A    between atoms: N2_10  and  C9_12 
REMARK    5  A    between atoms: C9_12  and  C10_13 
REMARK    6  A    between atoms: C13_16  and  N3_17 
ROOT
HETATM    1  N2  UNL     1      59.155   3.164  30.535  1.00  0.00    -0.398 N 
ATOM      2  H2  UNL     1      59.655   2.857  31.370  1.00  0.00     0.158 HD
ENDROOT
BRANCH   1   3
HETATM    3  C8  UNL     1      59.250   4.513  30.097  1.00  0.00     0.125 C 
BRANCH   3   4
HETATM    4  C7  UNL     1      60.532   5.202  30.421  1.00  0.00     0.076 C 
BRANCH   4   5
HETATM    5  C6  UNL     1      61.657   4.290  30.175  1.00  0.00     0.012 A 
HETATM    6  N1  UNL     1      62.348   3.759  31.166  1.00  0.00    -0.364 N 
HETATM    7  C1  UNL     1      62.124   3.978  32.558  1.00  0.00     0.155 C 
HETATM    8  C2  UNL     1      63.380   2.920  30.852  1.00  0.00     0.090 A 
HETATM    9  C3  UNL     1      63.712   2.618  29.544  1.00  0.00     0.017 A 
HETATM   10  C4  UNL     1      62.983   3.179  28.519  1.00  0.00     0.003 A 
HETATM   11  C5  UNL     1      61.958   4.012  28.838  1.00  0.00     0.025 A 
ENDBRANCH   4   5
ENDBRANCH   3   4
ENDBRANCH   1   3
BRANCH   1  12
HETATM   12  C9  UNL     1      58.364   2.258  29.803  1.00  0.00     0.096 C 
BRANCH  12  13
HETATM   13  C10 UNL     1      56.934   2.494  30.224  1.00  0.00     0.001 A 
HETATM   14  C11 UNL     1      55.891   2.538  29.337  1.00  0.00     0.019 A 
HETATM   15  C12 UNL     1      54.575   2.745  29.763  1.00  0.00     0.057 A 
HETATM   16  C13 UNL     1      54.396   2.901  31.121  1.00  0.00     0.140 A 
HETATM   17  O1  UNL     1      55.395   2.858  31.977  1.00  0.00    -0.305 OA
HETATM   18  C14 UNL     1      56.626   2.664  31.573  1.00  0.00     0.157 A 
BRANCH  16  19
HETATM   19  N3  UNL     1      53.196   3.095  31.567  1.00  0.00    -0.380 N 
ATOM     20  H32 UNL     1      52.963   3.998  31.979  1.00  0.00     0.158 HD
ATOM     21  H31 UNL     1      52.521   2.334  31.493  1.00  0.00     0.158 HD
ENDBRANCH  16  19
ENDBRANCH  12  13
ENDBRANCH   1  12
TORSDOF 6
ENDMDL
