MODEL 1
REMARK VINA RESULT: -6.054881943      0.000      0.000
REMARK  5 active torsions:
REMARK  status: ('A' for Active; 'I' for Inactive)
REMARK       I    between atoms: C1_2  and  N5_15 
REMARK       I    between atoms: N2_3  and  C2_5 
REMARK       I    between atoms: C2_5  and  N3_7 
REMARK    1  A    between atoms: N3_7  and  N4_9 
REMARK       I    between atoms: N4_9  and  C3_11 
REMARK    2  A    between atoms: C3_11  and  C4_13 
REMARK    3  A    between atoms: N5_15  and  N6_17 
REMARK    4  A    between atoms: C5_19  and  C6_20 
REMARK    5  A    between atoms: C9_23  and  O4_24 
ROOT
HETATM    1  N1  UNL     1      55.462  67.621  24.359  1.00  0.00    -0.062 NA
HETATM    2  C1  UNL     1      56.110  67.508  23.120  1.00  0.00     0.211 C 
HETATM    3  N2  UNL     1      56.976  66.589  22.925  1.00  0.00    -0.280 N 
ATOM      4  H2  UNL     1      57.434  66.526  22.016  1.00  0.00     0.173 HD
HETATM    5  C2  UNL     1      57.318  65.662  23.923  1.00  0.00     0.341 C 
HETATM    6  O1  UNL     1      56.976  65.840  25.106  1.00  0.00    -0.245 OA
HETATM    7  N3  UNL     1      58.061  64.504  23.587  1.00  0.00    -0.248 N 
ATOM      8  H3  UNL     1      58.337  64.372  22.614  1.00  0.00     0.192 HD
HETATM    9  N5  UNL     1      55.753  68.436  22.108  1.00  0.00    -0.274 N 
ATOM     10  H5  UNL     1      55.109  68.120  21.384  1.00  0.00     0.189 HD
ENDROOT
BRANCH   9  11
HETATM   11  N6  UNL     1      56.208  69.723  22.030  1.00  0.00    -0.309 N 
HETATM   12  C5  UNL     1      57.305  70.175  22.500  1.00  0.00     0.118 C 
ATOM     13  H6  UNL     1      55.609  70.391  21.545  1.00  0.00     0.186 HD
BRANCH  12  14
HETATM   14  C6  UNL     1      57.684  71.570  22.358  1.00  0.00    -0.019 A 
HETATM   15  C7  UNL     1      58.950  72.022  22.672  1.00  0.00     0.015 A 
HETATM   16  C8  UNL     1      59.304  73.346  22.520  1.00  0.00     0.037 A 
HETATM   17  C9  UNL     1      58.404  74.305  22.041  1.00  0.00     0.065 A 
HETATM   18  C10 UNL     1      57.142  73.844  21.731  1.00  0.00     0.037 A 
HETATM   19  C11 UNL     1      56.791  72.522  21.883  1.00  0.00     0.015 A 
BRANCH  17  20
HETATM   20  O4  UNL     1      58.777  75.630  21.895  1.00  0.00    -0.361 OA
ATOM     21  H4  UNL     1      58.464  76.152  21.167  1.00  0.00     0.217 HD
ENDBRANCH  17  20
ENDBRANCH  12  14
ENDBRANCH   9  11
BRANCH   7  22
HETATM   22  N4  UNL     1      58.433  63.537  24.515  1.00  0.00    -0.260 N 
HETATM   23  C3  UNL     1      59.692  63.672  25.187  1.00  0.00     0.297 C 
HETATM   24  O2  UNL     1      60.439  64.661  24.926  1.00  0.00    -0.263 OA
ATOM     25  H4  UNL     1      57.822  62.746  24.714  1.00  0.00     0.190 HD
BRANCH  23  26
HETATM   26  C4  UNL     1      60.136  62.710  26.160  1.00  0.00     0.334 C 
HETATM   27  O3  UNL     1      60.171  62.977  27.386  1.00  0.00    -0.296 OA
ENDBRANCH  23  26
ENDBRANCH   7  22
TORSDOF 5
ENDMDL
MODEL 2
REMARK VINA RESULT: -6.036315450      0.177      1.042
REMARK  5 active torsions:
REMARK  status: ('A' for Active; 'I' for Inactive)
REMARK       I    between atoms: C1_2  and  N5_15 
REMARK       I    between atoms: N2_3  and  C2_5 
REMARK       I    between atoms: C2_5  and  N3_7 
REMARK    1  A    between atoms: N3_7  and  N4_9 
REMARK       I    between atoms: N4_9  and  C3_11 
REMARK    2  A    between atoms: C3_11  and  C4_13 
REMARK    3  A    between atoms: N5_15  and  N6_17 
REMARK    4  A    between atoms: C5_19  and  C6_20 
REMARK    5  A    between atoms: C9_23  and  O4_24 
ROOT
HETATM    1  N1  UNL     1      55.473  67.591  24.370  1.00  0.00    -0.062 NA
HETATM    2  C1  UNL     1      56.095  67.473  23.118  1.00  0.00     0.211 C 
HETATM    3  N2  UNL     1      56.961  66.556  22.910  1.00  0.00    -0.280 N 
ATOM      4  H2  UNL     1      57.399  66.490  21.992  1.00  0.00     0.173 HD
HETATM    5  C2  UNL     1      57.328  65.638  23.906  1.00  0.00     0.341 C 
HETATM    6  O1  UNL     1      57.010  65.822  25.095  1.00  0.00    -0.245 OA
HETATM    7  N3  UNL     1      58.068  64.481  23.562  1.00  0.00    -0.248 N 
ATOM      8  H3  UNL     1      58.324  64.344  22.584  1.00  0.00     0.192 HD
HETATM    9  N5  UNL     1      55.712  68.393  22.107  1.00  0.00    -0.274 N 
ATOM     10  H5  UNL     1      55.053  68.069  21.399  1.00  0.00     0.189 HD
ENDROOT
BRANCH   9  11
HETATM   11  N6  UNL     1      56.159  69.681  22.011  1.00  0.00    -0.309 N 
HETATM   12  C5  UNL     1      57.249  70.148  22.482  1.00  0.00     0.118 C 
ATOM     13  H6  UNL     1      55.559  70.337  21.511  1.00  0.00     0.186 HD
BRANCH  12  14
HETATM   14  C6  UNL     1      57.620  71.543  22.319  1.00  0.00    -0.019 A 
HETATM   15  C7  UNL     1      56.725  72.493  21.870  1.00  0.00     0.015 A 
HETATM   16  C8  UNL     1      57.083  73.817  21.732  1.00  0.00     0.037 A 
HETATM   17  C9  UNL     1      58.371  74.274  22.037  1.00  0.00     0.065 A 
HETATM   18  C10 UNL     1      59.257  73.317  22.484  1.00  0.00     0.037 A 
HETATM   19  C11 UNL     1      58.898  71.997  22.621  1.00  0.00     0.015 A 
BRANCH  17  20
HETATM   20  O4  UNL     1      58.712  75.608  21.893  1.00  0.00    -0.361 OA
ATOM     21  H4  UNL     1      59.266  75.900  21.179  1.00  0.00     0.217 HD
ENDBRANCH  17  20
ENDBRANCH  12  14
ENDBRANCH   9  11
BRANCH   7  22
HETATM   22  N4  UNL     1      58.465  63.522  24.488  1.00  0.00    -0.260 N 
HETATM   23  C3  UNL     1      59.740  63.664  25.128  1.00  0.00     0.297 C 
HETATM   24  O2  UNL     1      60.478  64.652  24.841  1.00  0.00    -0.263 OA
ATOM     25  H4  UNL     1      57.860  62.731  24.708  1.00  0.00     0.190 HD
BRANCH  23  26
HETATM   26  C4  UNL     1      60.209  62.710  26.097  1.00  0.00     0.334 C 
HETATM   27  O3  UNL     1      60.871  63.061  27.104  1.00  0.00    -0.296 OA
ENDBRANCH  23  26
ENDBRANCH   7  22
TORSDOF 5
ENDMDL
MODEL 3
REMARK VINA RESULT: -5.980475832      3.620      4.217
REMARK  5 active torsions:
REMARK  status: ('A' for Active; 'I' for Inactive)
REMARK       I    between atoms: C1_2  and  N5_15 
REMARK       I    between atoms: N2_3  and  C2_5 
REMARK       I    between atoms: C2_5  and  N3_7 
REMARK    1  A    between atoms: N3_7  and  N4_9 
REMARK       I    between atoms: N4_9  and  C3_11 
REMARK    2  A    between atoms: C3_11  and  C4_13 
REMARK    3  A    between atoms: N5_15  and  N6_17 
REMARK    4  A    between atoms: C5_19  and  C6_20 
REMARK    5  A    between atoms: C9_23  and  O4_24 
ROOT
HETATM    1  N1  UNL     1      57.453  66.518  23.455  1.00  0.00    -0.062 NA
HETATM    2  C1  UNL     1      56.412  67.015  22.657  1.00  0.00     0.211 C 
HETATM    3  N2  UNL     1      56.156  66.484  21.523  1.00  0.00    -0.280 N 
ATOM      4  H2  UNL     1      55.395  66.862  20.961  1.00  0.00     0.173 HD
HETATM    5  C2  UNL     1      56.891  65.395  21.028  1.00  0.00     0.341 C 
HETATM    6  O1  UNL     1      57.967  65.055  21.553  1.00  0.00    -0.245 OA
HETATM    7  N3  UNL     1      56.407  64.664  19.915  1.00  0.00    -0.248 N 
ATOM      8  H3  UNL     1      55.525  64.954  19.493  1.00  0.00     0.192 HD
HETATM    9  N5  UNL     1      55.661  68.107  23.166  1.00  0.00    -0.274 N 
ATOM     10  H5  UNL     1      54.752  67.902  23.578  1.00  0.00     0.189 HD
ENDROOT
BRANCH   9  11
HETATM   11  N6  UNL     1      56.065  69.413  23.144  1.00  0.00    -0.309 N 
HETATM   12  C5  UNL     1      56.897  69.941  22.334  1.00  0.00     0.118 C 
ATOM     13  H6  UNL     1      55.660  70.028  23.849  1.00  0.00     0.186 HD
BRANCH  12  14
HETATM   14  C6  UNL     1      57.254  71.348  22.409  1.00  0.00    -0.019 A 
HETATM   15  C7  UNL     1      58.269  71.804  23.227  1.00  0.00     0.015 A 
HETATM   16  C8  UNL     1      58.608  73.139  23.280  1.00  0.00     0.037 A 
HETATM   17  C9  UNL     1      57.947  74.106  22.513  1.00  0.00     0.065 A 
HETATM   18  C10 UNL     1      56.935  73.640  21.702  1.00  0.00     0.037 A 
HETATM   19  C11 UNL     1      56.598  72.307  21.649  1.00  0.00     0.015 A 
BRANCH  17  20
HETATM   20  O4  UNL     1      58.303  75.442  22.580  1.00  0.00    -0.361 OA
ATOM     21  H4  UNL     1      58.894  75.826  21.945  1.00  0.00     0.217 HD
ENDBRANCH  17  20
ENDBRANCH  12  14
ENDBRANCH   9  11
BRANCH   7  22
HETATM   22  N4  UNL     1      57.072  63.571  19.369  1.00  0.00    -0.260 N 
HETATM   23  C3  UNL     1      58.057  63.798  18.353  1.00  0.00     0.297 C 
HETATM   24  O2  UNL     1      58.303  64.980  17.972  1.00  0.00    -0.263 OA
ATOM     25  H4  UNL     1      56.862  62.624  19.686  1.00  0.00     0.190 HD
BRANCH  23  26
HETATM   26  C4  UNL     1      58.782  62.712  17.749  1.00  0.00     0.334 C 
HETATM   27  O3  UNL     1      59.410  62.855  16.671  1.00  0.00    -0.296 OA
ENDBRANCH  23  26
ENDBRANCH   7  22
TORSDOF 5
ENDMDL
MODEL 4
REMARK VINA RESULT: -5.857343726      1.355      1.524
REMARK  5 active torsions:
REMARK  status: ('A' for Active; 'I' for Inactive)
REMARK       I    between atoms: C1_2  and  N5_15 
REMARK       I    between atoms: N2_3  and  C2_5 
REMARK       I    between atoms: C2_5  and  N3_7 
REMARK    1  A    between atoms: N3_7  and  N4_9 
REMARK       I    between atoms: N4_9  and  C3_11 
REMARK    2  A    between atoms: C3_11  and  C4_13 
REMARK    3  A    between atoms: N5_15  and  N6_17 
REMARK    4  A    between atoms: C5_19  and  C6_20 
REMARK    5  A    between atoms: C9_23  and  O4_24 
ROOT
HETATM    1  N1  UNL     1      56.106  66.453  24.661  1.00  0.00    -0.062 NA
HETATM    2  C1  UNL     1      56.672  66.382  23.379  1.00  0.00     0.211 C 
HETATM    3  N2  UNL     1      57.725  65.686  23.175  1.00  0.00    -0.280 N 
ATOM      4  H2  UNL     1      58.118  65.649  22.235  1.00  0.00     0.173 HD
HETATM    5  C2  UNL     1      58.357  64.971  24.204  1.00  0.00     0.341 C 
HETATM    6  O1  UNL     1      58.066  65.173  25.397  1.00  0.00    -0.245 OA
HETATM    7  N3  UNL     1      59.340  64.001  23.890  1.00  0.00    -0.248 N 
ATOM      8  H3  UNL     1      59.571  63.847  22.908  1.00  0.00     0.192 HD
HETATM    9  N5  UNL     1      56.023  67.094  22.337  1.00  0.00    -0.274 N 
ATOM     10  H5  UNL     1      55.429  66.562  21.702  1.00  0.00     0.189 HD
ENDROOT
BRANCH   9  11
HETATM   11  N6  UNL     1      56.136  68.439  22.120  1.00  0.00    -0.309 N 
HETATM   12  C5  UNL     1      56.907  69.250  22.734  1.00  0.00     0.118 C 
ATOM     13  H6  UNL     1      55.541  68.835  21.393  1.00  0.00     0.186 HD
BRANCH  12  14
HETATM   14  C6  UNL     1      56.938  70.667  22.417  1.00  0.00    -0.019 A 
HETATM   15  C7  UNL     1      57.775  71.547  23.074  1.00  0.00     0.015 A 
HETATM   16  C8  UNL     1      57.807  72.888  22.756  1.00  0.00     0.037 A 
HETATM   17  C9  UNL     1      56.996  73.434  21.754  1.00  0.00     0.065 A 
HETATM   18  C10 UNL     1      56.163  72.547  21.106  1.00  0.00     0.037 A 
HETATM   19  C11 UNL     1      56.133  71.209  21.424  1.00  0.00     0.015 A 
BRANCH  17  20
HETATM   20  O4  UNL     1      57.042  74.784  21.449  1.00  0.00    -0.361 OA
ATOM     21  H4  UNL     1      57.850  75.197  21.169  1.00  0.00     0.217 HD
ENDBRANCH  17  20
ENDBRANCH  12  14
ENDBRANCH   9  11
BRANCH   7  22
HETATM   22  N4  UNL     1      60.007  63.247  24.850  1.00  0.00    -0.260 N 
HETATM   23  C3  UNL     1      61.273  63.712  25.336  1.00  0.00     0.297 C 
HETATM   24  O2  UNL     1      61.760  64.791  24.886  1.00  0.00    -0.263 OA
ATOM     25  H4  UNL     1      59.604  62.379  25.201  1.00  0.00     0.190 HD
BRANCH  23  26
HETATM   26  C4  UNL     1      62.014  62.982  26.330  1.00  0.00     0.334 C 
HETATM   27  O3  UNL     1      62.437  63.533  27.376  1.00  0.00    -0.296 OA
ENDBRANCH  23  26
ENDBRANCH   7  22
TORSDOF 5
ENDMDL
MODEL 5
REMARK VINA RESULT: -5.850283040      1.359      1.799
REMARK  5 active torsions:
REMARK  status: ('A' for Active; 'I' for Inactive)
REMARK       I    between atoms: C1_2  and  N5_15 
REMARK       I    between atoms: N2_3  and  C2_5 
REMARK       I    between atoms: C2_5  and  N3_7 
REMARK    1  A    between atoms: N3_7  and  N4_9 
REMARK       I    between atoms: N4_9  and  C3_11 
REMARK    2  A    between atoms: C3_11  and  C4_13 
REMARK    3  A    between atoms: N5_15  and  N6_17 
REMARK    4  A    between atoms: C5_19  and  C6_20 
REMARK    5  A    between atoms: C9_23  and  O4_24 
ROOT
HETATM    1  N1  UNL     1      56.140  66.451  24.672  1.00  0.00    -0.062 NA
HETATM    2  C1  UNL     1      56.679  66.369  23.380  1.00  0.00     0.211 C 
HETATM    3  N2  UNL     1      57.720  65.662  23.157  1.00  0.00    -0.280 N 
ATOM      4  H2  UNL     1      58.094  65.617  22.210  1.00  0.00     0.173 HD
HETATM    5  C2  UNL     1      58.366  64.945  24.177  1.00  0.00     0.341 C 
HETATM    6  O1  UNL     1      58.101  65.155  25.375  1.00  0.00    -0.245 OA
HETATM    7  N3  UNL     1      59.333  63.963  23.848  1.00  0.00    -0.248 N 
ATOM      8  H3  UNL     1      59.542  63.803  22.862  1.00  0.00     0.192 HD
HETATM    9  N5  UNL     1      56.017  67.083  22.347  1.00  0.00    -0.274 N 
ATOM     10  H5  UNL     1      55.405  66.555  21.726  1.00  0.00     0.189 HD
ENDROOT
BRANCH   9  11
HETATM   11  N6  UNL     1      56.138  68.426  22.122  1.00  0.00    -0.309 N 
HETATM   12  C5  UNL     1      56.917  69.235  22.728  1.00  0.00     0.118 C 
ATOM     13  H6  UNL     1      55.544  68.822  21.394  1.00  0.00     0.186 HD
BRANCH  12  14
HETATM   14  C6  UNL     1      56.958  70.650  22.403  1.00  0.00    -0.019 A 
HETATM   15  C7  UNL     1      56.142  71.204  21.437  1.00  0.00     0.015 A 
HETATM   16  C8  UNL     1      56.178  72.551  21.147  1.00  0.00     0.037 A 
HETATM   17  C9  UNL     1      57.042  73.432  21.809  1.00  0.00     0.065 A 
HETATM   18  C10 UNL     1      57.853  72.868  22.770  1.00  0.00     0.037 A 
HETATM   19  C11 UNL     1      57.815  71.523  23.059  1.00  0.00     0.015 A 
BRANCH  17  20
HETATM   20  O4  UNL     1      57.064  74.782  21.503  1.00  0.00    -0.361 OA
ATOM     21  H4  UNL     1      57.063  75.441  22.186  1.00  0.00     0.217 HD
ENDBRANCH  17  20
ENDBRANCH  12  14
ENDBRANCH   9  11
BRANCH   7  22
HETATM   22  N4  UNL     1      60.011  63.207  24.797  1.00  0.00    -0.260 N 
HETATM   23  C3  UNL     1      61.290  63.662  25.258  1.00  0.00     0.297 C 
HETATM   24  O2  UNL     1      61.778  64.736  24.796  1.00  0.00    -0.263 OA
ATOM     25  H4  UNL     1      59.607  62.344  25.160  1.00  0.00     0.190 HD
BRANCH  23  26
HETATM   26  C4  UNL     1      62.043  62.929  26.241  1.00  0.00     0.334 C 
HETATM   27  O3  UNL     1      62.515  63.487  27.263  1.00  0.00    -0.296 OA
ENDBRANCH  23  26
ENDBRANCH   7  22
TORSDOF 5
ENDMDL
