MODEL 1
REMARK VINA RESULT: -6.594874024      0.000      0.000
REMARK  7 active torsions:
REMARK  status: ('A' for Active; 'I' for Inactive)
REMARK    1  A    between atoms: C2_2  and  O1_4 
REMARK    2  A    between atoms: C2_2  and  C4_6 
REMARK    3  A    between atoms: C4_6  and  O3_8 
REMARK    4  A    between atoms: O3_8  and  C5_9 
REMARK    5  A    between atoms: C5_9  and  C6_10 
REMARK       I    between atoms: C6_10  and  N1_12 
REMARK    6  A    between atoms: N1_12  and  N2_14 
REMARK       I    between atoms: N2_14  and  C7_16 
REMARK       I    between atoms: C7_16  and  N3_18 
REMARK    7  A    between atoms: N3_18  and  C8_20 
ROOT
HETATM    1  N2  UNL     1      56.821  71.671  22.393  1.00  0.00    -0.249 N 
ATOM      2  H2  UNL     1      57.372  71.838  23.235  1.00  0.00     0.192 HD
HETATM    3  C7  UNL     1      56.337  70.359  22.131  1.00  0.00     0.335 C 
HETATM    4  O5  UNL     1      55.660  70.146  21.076  1.00  0.00    -0.246 OA
HETATM    5  N3  UNL     1      56.599  69.294  23.030  1.00  0.00    -0.337 N 
ATOM      6  H3  UNL     1      57.144  69.469  23.875  1.00  0.00     0.164 HD
ENDROOT
BRANCH   1   7
HETATM    7  N1  UNL     1      56.563  72.735  21.528  1.00  0.00    -0.264 N 
HETATM    8  C6  UNL     1      57.558  73.129  20.612  1.00  0.00     0.260 C 
HETATM    9  O4  UNL     1      58.683  72.512  20.575  1.00  0.00    -0.269 OA
ATOM     10  H1  UNL     1      55.666  73.220  21.558  1.00  0.00     0.190 HD
BRANCH   8  11
HETATM   11  C5  UNL     1      57.288  74.266  19.698  1.00  0.00     0.283 C 
BRANCH  11  12
HETATM   12  O3  UNL     1      56.085  74.921  20.072  1.00  0.00    -0.310 OA
BRANCH  12  13
HETATM   13  C4  UNL     1      55.014  74.856  19.201  1.00  0.00     0.293 C 
HETATM   14  O2  UNL     1      55.211  74.543  18.007  1.00  0.00    -0.262 OA
BRANCH  13  15
HETATM   15  C2  UNL     1      53.635  75.160  19.704  1.00  0.00     0.138 C 
HETATM   16  C1  UNL     1      53.474  74.516  21.052  1.00  0.00     0.056 C 
HETATM   17  C3  UNL     1      52.654  74.612  18.709  1.00  0.00     0.056 C 
BRANCH  15  18
HETATM   18  O1  UNL     1      53.455  76.547  19.788  1.00  0.00    -0.380 OA
ATOM     19  H1  UNL     1      54.013  76.921  20.459  1.00  0.00     0.211 HD
ENDBRANCH  15  18
ENDBRANCH  13  15
ENDBRANCH  12  13
ENDBRANCH  11  12
ENDBRANCH   8  11
ENDBRANCH   1   7
BRANCH   5  20
HETATM   20  C8  UNL     1      56.095  67.937  22.760  1.00  0.00     0.089 C 
HETATM   21  C9  UNL     1      55.660  67.422  24.134  1.00  0.00     0.052 C 
HETATM   22  C10 UNL     1      55.284  65.961  23.986  1.00  0.00     0.234 C 
HETATM   23  N4  UNL     1      56.536  65.261  23.722  1.00  0.00    -0.075 N 
HETATM   24  C11 UNL     1      57.047  65.628  22.440  1.00  0.00     0.234 C 
ATOM     25  H42 UNL     1      57.221  65.414  24.462  1.00  0.00     0.277 HD
ATOM     26  H41 UNL     1      56.435  64.250  23.816  1.00  0.00     0.277 HD
HETATM   27  C12 UNL     1      57.205  67.112  22.221  1.00  0.00     0.052 C 
ENDBRANCH   5  20
TORSDOF 7
ENDMDL
MODEL 2
REMARK VINA RESULT: -6.457415755      1.264      1.361
REMARK  7 active torsions:
REMARK  status: ('A' for Active; 'I' for Inactive)
REMARK    1  A    between atoms: C2_2  and  O1_4 
REMARK    2  A    between atoms: C2_2  and  C4_6 
REMARK    3  A    between atoms: C4_6  and  O3_8 
REMARK    4  A    between atoms: O3_8  and  C5_9 
REMARK    5  A    between atoms: C5_9  and  C6_10 
REMARK       I    between atoms: C6_10  and  N1_12 
REMARK    6  A    between atoms: N1_12  and  N2_14 
REMARK       I    between atoms: N2_14  and  C7_16 
REMARK       I    between atoms: C7_16  and  N3_18 
REMARK    7  A    between atoms: N3_18  and  C8_20 
ROOT
HETATM    1  N2  UNL     1      57.133  70.643  22.085  1.00  0.00    -0.249 N 
ATOM      2  H2  UNL     1      58.140  70.629  21.924  1.00  0.00     0.192 HD
HETATM    3  C7  UNL     1      56.468  69.432  22.418  1.00  0.00     0.335 C 
HETATM    4  O5  UNL     1      55.210  69.445  22.609  1.00  0.00    -0.246 OA
HETATM    5  N3  UNL     1      57.188  68.216  22.542  1.00  0.00    -0.337 N 
ATOM      6  H3  UNL     1      58.197  68.209  22.387  1.00  0.00     0.164 HD
ENDROOT
BRANCH   1   7
HETATM    7  N1  UNL     1      56.444  71.851  21.972  1.00  0.00    -0.264 N 
HETATM    8  C6  UNL     1      56.995  72.882  21.184  1.00  0.00     0.260 C 
HETATM    9  O4  UNL     1      58.112  72.705  20.578  1.00  0.00    -0.269 OA
ATOM     10  H1  UNL     1      55.555  71.987  22.452  1.00  0.00     0.190 HD
BRANCH   8  11
HETATM   11  C5  UNL     1      56.268  74.170  21.070  1.00  0.00     0.283 C 
BRANCH  11  12
HETATM   12  O3  UNL     1      55.004  73.967  20.455  1.00  0.00    -0.310 OA
BRANCH  12  13
HETATM   13  C4  UNL     1      54.768  74.585  19.242  1.00  0.00     0.293 C 
HETATM   14  O2  UNL     1      55.641  74.538  18.348  1.00  0.00    -0.262 OA
BRANCH  13  15
HETATM   15  C2  UNL     1      53.468  75.297  19.017  1.00  0.00     0.138 C 
HETATM   16  C1  UNL     1      53.141  76.078  20.258  1.00  0.00     0.056 C 
HETATM   17  C3  UNL     1      52.423  74.260  18.726  1.00  0.00     0.056 C 
BRANCH  15  18
HETATM   18  O1  UNL     1      53.576  76.142  17.906  1.00  0.00    -0.380 OA
ATOM     19  H1  UNL     1      53.479  75.654  17.097  1.00  0.00     0.211 HD
ENDBRANCH  15  18
ENDBRANCH  13  15
ENDBRANCH  12  13
ENDBRANCH  11  12
ENDBRANCH   8  11
ENDBRANCH   1   7
BRANCH   5  20
HETATM   20  C8  UNL     1      56.499  66.962  22.891  1.00  0.00     0.089 C 
HETATM   21  C9  UNL     1      57.498  66.226  23.786  1.00  0.00     0.052 C 
HETATM   22  C10 UNL     1      56.947  64.840  24.058  1.00  0.00     0.234 C 
HETATM   23  N4  UNL     1      57.021  64.134  22.784  1.00  0.00    -0.075 N 
HETATM   24  C11 UNL     1      56.104  64.704  21.849  1.00  0.00     0.234 C 
ATOM     25  H42 UNL     1      57.972  64.109  22.417  1.00  0.00     0.277 HD
ATOM     26  H41 UNL     1      56.876  63.130  22.895  1.00  0.00     0.277 HD
HETATM   27  C12 UNL     1      56.247  66.192  21.647  1.00  0.00     0.052 C 
ENDBRANCH   5  20
TORSDOF 7
ENDMDL
MODEL 3
REMARK VINA RESULT: -6.256540867      1.670      2.225
REMARK  7 active torsions:
REMARK  status: ('A' for Active; 'I' for Inactive)
REMARK    1  A    between atoms: C2_2  and  O1_4 
REMARK    2  A    between atoms: C2_2  and  C4_6 
REMARK    3  A    between atoms: C4_6  and  O3_8 
REMARK    4  A    between atoms: O3_8  and  C5_9 
REMARK    5  A    between atoms: C5_9  and  C6_10 
REMARK       I    between atoms: C6_10  and  N1_12 
REMARK    6  A    between atoms: N1_12  and  N2_14 
REMARK       I    between atoms: N2_14  and  C7_16 
REMARK       I    between atoms: C7_16  and  N3_18 
REMARK    7  A    between atoms: N3_18  and  C8_20 
ROOT
HETATM    1  N2  UNL     1      57.565  70.122  22.907  1.00  0.00    -0.249 N 
ATOM      2  H2  UNL     1      58.431  69.920  23.407  1.00  0.00     0.192 HD
HETATM    3  C7  UNL     1      56.730  69.044  22.504  1.00  0.00     0.335 C 
HETATM    4  O5  UNL     1      55.655  69.293  21.871  1.00  0.00    -0.246 OA
HETATM    5  N3  UNL     1      57.080  67.701  22.801  1.00  0.00    -0.337 N 
ATOM      6  H3  UNL     1      57.944  67.506  23.308  1.00  0.00     0.164 HD
ENDROOT
BRANCH   1   7
HETATM    7  N1  UNL     1      57.231  71.449  22.637  1.00  0.00    -0.264 N 
HETATM    8  C6  UNL     1      58.178  72.459  22.898  1.00  0.00     0.260 C 
HETATM    9  O4  UNL     1      59.331  72.157  23.374  1.00  0.00    -0.269 OA
ATOM     10  H1  UNL     1      56.315  71.685  22.256  1.00  0.00     0.190 HD
BRANCH   8  11
HETATM   11  C5  UNL     1      57.821  73.873  22.619  1.00  0.00     0.283 C 
BRANCH  11  12
HETATM   12  O3  UNL     1      56.686  73.933  21.769  1.00  0.00    -0.310 OA
BRANCH  12  13
HETATM   13  C4  UNL     1      56.899  74.101  20.414  1.00  0.00     0.293 C 
HETATM   14  O2  UNL     1      58.064  74.040  19.963  1.00  0.00    -0.262 OA
BRANCH  13  15
HETATM   15  C2  UNL     1      55.731  74.352  19.509  1.00  0.00     0.138 C 
HETATM   16  C1  UNL     1      54.499  74.486  20.359  1.00  0.00     0.056 C 
HETATM   17  C3  UNL     1      55.626  73.191  18.565  1.00  0.00     0.056 C 
BRANCH  15  18
HETATM   18  O1  UNL     1      55.951  75.515  18.761  1.00  0.00    -0.380 OA
ATOM     19  H1  UNL     1      55.925  76.285  19.316  1.00  0.00     0.211 HD
ENDBRANCH  15  18
ENDBRANCH  13  15
ENDBRANCH  12  13
ENDBRANCH  11  12
ENDBRANCH   8  11
ENDBRANCH   1   7
BRANCH   5  20
HETATM   20  C8  UNL     1      56.213  66.586  22.387  1.00  0.00     0.089 C 
HETATM   21  C9  UNL     1      56.217  65.644  23.592  1.00  0.00     0.052 C 
HETATM   22  C10 UNL     1      55.488  64.376  23.195  1.00  0.00     0.234 C 
HETATM   23  N4  UNL     1      56.352  63.716  22.224  1.00  0.00    -0.075 N 
HETATM   24  C11 UNL     1      56.416  64.481  21.020  1.00  0.00     0.234 C 
ATOM     25  H42 UNL     1      57.279  63.528  22.605  1.00  0.00     0.277 HD
ATOM     26  H41 UNL     1      56.063  62.753  22.049  1.00  0.00     0.277 HD
HETATM   27  C12 UNL     1      56.819  65.923  21.205  1.00  0.00     0.052 C 
ENDBRANCH   5  20
TORSDOF 7
ENDMDL
MODEL 4
REMARK VINA RESULT: -6.128086696      1.472      2.084
REMARK  7 active torsions:
REMARK  status: ('A' for Active; 'I' for Inactive)
REMARK    1  A    between atoms: C2_2  and  O1_4 
REMARK    2  A    between atoms: C2_2  and  C4_6 
REMARK    3  A    between atoms: C4_6  and  O3_8 
REMARK    4  A    between atoms: O3_8  and  C5_9 
REMARK    5  A    between atoms: C5_9  and  C6_10 
REMARK       I    between atoms: C6_10  and  N1_12 
REMARK    6  A    between atoms: N1_12  and  N2_14 
REMARK       I    between atoms: N2_14  and  C7_16 
REMARK       I    between atoms: C7_16  and  N3_18 
REMARK    7  A    between atoms: N3_18  and  C8_20 
ROOT
HETATM    1  N2  UNL     1      57.152  70.068  22.797  1.00  0.00    -0.249 N 
ATOM      2  H2  UNL     1      58.057  69.982  23.259  1.00  0.00     0.192 HD
HETATM    3  C7  UNL     1      56.463  68.889  22.398  1.00  0.00     0.335 C 
HETATM    4  O5  UNL     1      55.339  68.994  21.813  1.00  0.00    -0.246 OA
HETATM    5  N3  UNL     1      57.014  67.605  22.647  1.00  0.00    -0.337 N 
ATOM      6  H3  UNL     1      57.916  67.526  23.115  1.00  0.00     0.164 HD
ENDROOT
BRANCH   1   7
HETATM    7  N1  UNL     1      56.621  71.339  22.575  1.00  0.00    -0.264 N 
HETATM    8  C6  UNL     1      57.371  72.273  21.833  1.00  0.00     0.260 C 
HETATM    9  O4  UNL     1      58.524  71.953  21.368  1.00  0.00    -0.269 OA
ATOM     10  H1  UNL     1      55.703  71.588  22.943  1.00  0.00     0.190 HD
BRANCH   8  11
HETATM   11  C5  UNL     1      56.811  73.628  21.603  1.00  0.00     0.283 C 
BRANCH  11  12
HETATM   12  O3  UNL     1      55.428  73.541  21.296  1.00  0.00    -0.310 OA
BRANCH  12  13
HETATM   13  C4  UNL     1      54.875  74.535  20.510  1.00  0.00     0.293 C 
HETATM   14  O2  UNL     1      54.170  75.419  21.043  1.00  0.00    -0.262 OA
BRANCH  13  15
HETATM   15  C2  UNL     1      55.133  74.536  19.033  1.00  0.00     0.138 C 
HETATM   16  C1  UNL     1      53.835  74.819  18.331  1.00  0.00     0.056 C 
HETATM   17  C3  UNL     1      55.678  73.188  18.664  1.00  0.00     0.056 C 
BRANCH  15  18
HETATM   18  O1  UNL     1      56.093  75.506  18.720  1.00  0.00    -0.380 OA
ATOM     19  H1  UNL     1      56.049  75.742  17.801  1.00  0.00     0.211 HD
ENDBRANCH  15  18
ENDBRANCH  13  15
ENDBRANCH  12  13
ENDBRANCH  11  12
ENDBRANCH   8  11
ENDBRANCH   1   7
BRANCH   5  20
HETATM   20  C8  UNL     1      56.298  66.386  22.236  1.00  0.00     0.089 C 
HETATM   21  C9  UNL     1      56.217  65.553  23.517  1.00  0.00     0.052 C 
HETATM   22  C10 UNL     1      55.647  64.196  23.156  1.00  0.00     0.234 C 
HETATM   23  N4  UNL     1      56.681  63.536  22.367  1.00  0.00    -0.075 N 
HETATM   24  C11 UNL     1      56.844  64.199  21.112  1.00  0.00     0.234 C 
ATOM     25  H42 UNL     1      57.562  63.465  22.876  1.00  0.00     0.277 HD
ATOM     26  H41 UNL     1      56.494  62.540  22.250  1.00  0.00     0.277 HD
HETATM   27  C12 UNL     1      57.105  65.682  21.207  1.00  0.00     0.052 C 
ENDBRANCH   5  20
TORSDOF 7
ENDMDL
MODEL 5
REMARK VINA RESULT: -6.050681230      1.674      2.209
REMARK  7 active torsions:
REMARK  status: ('A' for Active; 'I' for Inactive)
REMARK    1  A    between atoms: C2_2  and  O1_4 
REMARK    2  A    between atoms: C2_2  and  C4_6 
REMARK    3  A    between atoms: C4_6  and  O3_8 
REMARK    4  A    between atoms: O3_8  and  C5_9 
REMARK    5  A    between atoms: C5_9  and  C6_10 
REMARK       I    between atoms: C6_10  and  N1_12 
REMARK    6  A    between atoms: N1_12  and  N2_14 
REMARK       I    between atoms: N2_14  and  C7_16 
REMARK       I    between atoms: C7_16  and  N3_18 
REMARK    7  A    between atoms: N3_18  and  C8_20 
ROOT
HETATM    1  N2  UNL     1      56.316  70.331  21.730  1.00  0.00    -0.249 N 
ATOM      2  H2  UNL     1      56.363  70.125  20.731  1.00  0.00     0.192 HD
HETATM    3  C7  UNL     1      56.209  69.256  22.654  1.00  0.00     0.335 C 
HETATM    4  O5  UNL     1      56.139  69.511  23.898  1.00  0.00    -0.246 OA
HETATM    5  N3  UNL     1      56.182  67.910  22.206  1.00  0.00    -0.337 N 
ATOM      6  H3  UNL     1      56.237  67.710  21.207  1.00  0.00     0.164 HD
ENDROOT
BRANCH   1   7
HETATM    7  N1  UNL     1      56.358  71.660  22.151  1.00  0.00    -0.264 N 
HETATM    8  C6  UNL     1      57.607  72.302  22.265  1.00  0.00     0.260 C 
HETATM    9  O4  UNL     1      58.687  71.670  21.978  1.00  0.00    -0.269 OA
ATOM     10  H1  UNL     1      55.498  72.160  22.374  1.00  0.00     0.190 HD
BRANCH   8  11
HETATM   11  C5  UNL     1      57.654  73.714  22.722  1.00  0.00     0.283 C 
BRANCH  11  12
HETATM   12  O3  UNL     1      56.859  74.530  21.874  1.00  0.00    -0.310 OA
BRANCH  12  13
HETATM   13  C4  UNL     1      57.000  74.377  20.508  1.00  0.00     0.293 C 
HETATM   14  O2  UNL     1      58.145  74.264  20.018  1.00  0.00    -0.262 OA
BRANCH  13  15
HETATM   15  C2  UNL     1      55.779  74.348  19.639  1.00  0.00     0.138 C 
HETATM   16  C1  UNL     1      54.569  74.398  20.528  1.00  0.00     0.056 C 
HETATM   17  C3  UNL     1      55.821  73.082  18.834  1.00  0.00     0.056 C 
BRANCH  15  18
HETATM   18  O1  UNL     1      55.799  75.436  18.758  1.00  0.00    -0.380 OA
ATOM     19  H1  UNL     1      56.076  76.228  19.203  1.00  0.00     0.211 HD
ENDBRANCH  15  18
ENDBRANCH  13  15
ENDBRANCH  12  13
ENDBRANCH  11  12
ENDBRANCH   8  11
ENDBRANCH   1   7
BRANCH   5  20
HETATM   20  C8  UNL     1      56.075  66.797  23.164  1.00  0.00     0.089 C 
HETATM   21  C9  UNL     1      57.469  66.709  23.789  1.00  0.00     0.052 C 
HETATM   22  C10 UNL     1      57.509  65.475  24.668  1.00  0.00     0.234 C 
HETATM   23  N4  UNL     1      57.455  64.342  23.752  1.00  0.00    -0.075 N 
HETATM   24  C11 UNL     1      56.180  64.282  23.113  1.00  0.00     0.234 C 
ATOM     25  H42 UNL     1      58.219  64.362  23.076  1.00  0.00     0.277 HD
ATOM     26  H41 UNL     1      57.690  63.464  24.217  1.00  0.00     0.277 HD
HETATM   27  C12 UNL     1      55.758  65.553  22.419  1.00  0.00     0.052 C 
ENDBRANCH   5  20
TORSDOF 7
ENDMDL
