MODEL 1
REMARK VINA RESULT: -6.953624099      0.000      0.000
REMARK  3 active torsions:
REMARK  status: ('A' for Active; 'I' for Inactive)
REMARK       I    between atoms: N1_2  and  C2_4 
REMARK       I    between atoms: C2_4  and  N2_6 
REMARK    1  A    between atoms: N2_6  and  N3_8 
REMARK    2  A    between atoms: N4_17  and  N5_19 
REMARK       I    between atoms: N5_19  and  C10_21 
REMARK    3  A    between atoms: C10_21  and  C11_23 
ROOT
HETATM    1  N3  UNL     1      56.561  74.418  20.306  1.00  0.00    -0.285 N 
ATOM      2  H3  UNL     1      57.214  75.079  19.884  1.00  0.00     0.188 HD
HETATM    3  C3  UNL     1      57.025  73.345  20.878  1.00  0.00     0.097 C 
HETATM    4  C4  UNL     1      58.509  73.215  20.843  1.00  0.00     0.082 C 
HETATM    5  C5  UNL     1      58.928  72.912  22.286  1.00  0.00    -0.011 C 
HETATM    6  C6  UNL     1      60.370  73.375  22.405  1.00  0.00     0.010 C 
HETATM    7  C7  UNL     1      58.869  71.471  22.603  1.00  0.00     0.012 C 
HETATM    8  C8  UNL     1      57.570  70.948  23.089  1.00  0.00     0.078 C 
HETATM    9  C9  UNL     1      56.386  71.358  22.340  1.00  0.00     0.097 C 
HETATM   10  N4  UNL     1      55.370  70.574  22.505  1.00  0.00    -0.286 N 
ATOM     11  H4  UNL     1      54.501  70.789  22.017  1.00  0.00     0.188 HD
HETATM   12  N7  UNL     1      56.096  72.438  21.460  1.00  0.00    -0.333 N 
ATOM     13  H7  UNL     1      55.114  72.577  21.219  1.00  0.00     0.168 HD
ENDROOT
BRANCH   1  14
HETATM   14  N2  UNL     1      55.203  74.686  20.255  1.00  0.00    -0.250 N 
HETATM   15  C2  UNL     1      54.451  74.761  19.065  1.00  0.00     0.334 C 
HETATM   16  N1  UNL     1      53.060  75.041  19.086  1.00  0.00    -0.346 N 
HETATM   17  O1  UNL     1      55.031  74.575  17.969  1.00  0.00    -0.246 OA
HETATM   18  C1  UNL     1      52.297  75.115  17.861  1.00  0.00     0.151 C 
ATOM     19  H1  UNL     1      52.591  75.193  19.979  1.00  0.00     0.163 HD
ATOM     20  H2  UNL     1      54.714  74.840  21.137  1.00  0.00     0.192 HD
ENDBRANCH   1  14
BRANCH  10  21
HETATM   21  N5  UNL     1      55.416  69.438  23.332  1.00  0.00    -0.261 N 
HETATM   22  C10 UNL     1      55.772  68.160  22.855  1.00  0.00     0.325 C 
HETATM   23  O2  UNL     1      56.075  67.972  21.629  1.00  0.00    -0.261 OA
ATOM     24  H5  UNL     1      55.183  69.542  24.319  1.00  0.00     0.190 HD
BRANCH  22  25
HETATM   25  C11 UNL     1      55.806  67.018  23.744  1.00  0.00     0.324 C 
HETATM   26  N6  UNL     1      55.805  65.675  23.226  1.00  0.00    -0.053 NA
HETATM   27  O3  UNL     1      55.837  67.221  24.984  1.00  0.00    -0.266 OA
ENDBRANCH  22  25
ENDBRANCH  10  21
TORSDOF 3
ENDMDL
MODEL 2
REMARK VINA RESULT: -6.364995952      1.013      1.013
REMARK  3 active torsions:
REMARK  status: ('A' for Active; 'I' for Inactive)
REMARK       I    between atoms: N1_2  and  C2_4 
REMARK       I    between atoms: C2_4  and  N2_6 
REMARK    1  A    between atoms: N2_6  and  N3_8 
REMARK    2  A    between atoms: N4_17  and  N5_19 
REMARK       I    between atoms: N5_19  and  C10_21 
REMARK    3  A    between atoms: C10_21  and  C11_23 
ROOT
HETATM    1  N3  UNL     1      57.112  73.564  18.942  1.00  0.00    -0.285 N 
ATOM      2  H3  UNL     1      57.783  74.244  18.585  1.00  0.00     0.188 HD
HETATM    3  C3  UNL     1      57.446  72.812  19.950  1.00  0.00     0.097 C 
HETATM    4  C4  UNL     1      58.820  73.050  20.474  1.00  0.00     0.082 C 
HETATM    5  C5  UNL     1      58.657  73.219  21.990  1.00  0.00    -0.011 C 
HETATM    6  C6  UNL     1      59.850  74.041  22.445  1.00  0.00     0.010 C 
HETATM    7  C7  UNL     1      58.671  71.930  22.709  1.00  0.00     0.012 C 
HETATM    8  C8  UNL     1      57.371  71.233  22.855  1.00  0.00     0.078 C 
HETATM    9  C9  UNL     1      56.547  71.142  21.653  1.00  0.00     0.097 C 
HETATM   10  N4  UNL     1      55.668  70.194  21.697  1.00  0.00    -0.286 N 
ATOM     11  H4  UNL     1      55.050  70.061  20.897  1.00  0.00     0.188 HD
HETATM   12  N7  UNL     1      56.494  71.870  20.431  1.00  0.00    -0.333 N 
ATOM     13  H7  UNL     1      55.684  71.697  19.835  1.00  0.00     0.168 HD
ENDROOT
BRANCH   1  14
HETATM   14  N2  UNL     1      55.868  73.465  18.341  1.00  0.00    -0.250 N 
HETATM   15  C2  UNL     1      54.831  74.405  18.499  1.00  0.00     0.334 C 
HETATM   16  N1  UNL     1      53.577  74.240  17.853  1.00  0.00    -0.346 N 
HETATM   17  O1  UNL     1      55.025  75.405  19.229  1.00  0.00    -0.246 OA
HETATM   18  C1  UNL     1      52.519  75.210  18.021  1.00  0.00     0.151 C 
ATOM     19  H1  UNL     1      53.421  73.425  17.260  1.00  0.00     0.163 HD
ATOM     20  H2  UNL     1      55.691  72.657  17.742  1.00  0.00     0.192 HD
ENDBRANCH   1  14
BRANCH  10  21
HETATM   21  N5  UNL     1      55.530  69.340  22.806  1.00  0.00    -0.261 N 
HETATM   22  C10 UNL     1      55.891  67.978  22.770  1.00  0.00     0.325 C 
HETATM   23  O2  UNL     1      56.369  67.448  21.711  1.00  0.00    -0.261 OA
ATOM     24  H5  UNL     1      55.153  69.722  23.673  1.00  0.00     0.190 HD
BRANCH  22  25
HETATM   25  C11 UNL     1      55.731  67.135  23.936  1.00  0.00     0.324 C 
HETATM   26  N6  UNL     1      56.034  65.729  23.883  1.00  0.00    -0.053 NA
HETATM   27  O3  UNL     1      55.320  67.658  25.004  1.00  0.00    -0.266 OA
ENDBRANCH  22  25
ENDBRANCH  10  21
TORSDOF 3
ENDMDL
MODEL 3
REMARK VINA RESULT: -5.738948234      7.257      9.915
REMARK  3 active torsions:
REMARK  status: ('A' for Active; 'I' for Inactive)
REMARK       I    between atoms: N1_2  and  C2_4 
REMARK       I    between atoms: C2_4  and  N2_6 
REMARK    1  A    between atoms: N2_6  and  N3_8 
REMARK    2  A    between atoms: N4_17  and  N5_19 
REMARK       I    between atoms: N5_19  and  C10_21 
REMARK    3  A    between atoms: C10_21  and  C11_23 
ROOT
HETATM    1  N3  UNL     1      58.093  65.409  25.530  1.00  0.00    -0.285 N 
ATOM      2  H3  UNL     1      57.631  65.978  26.240  1.00  0.00     0.188 HD
HETATM    3  C3  UNL     1      57.581  65.347  24.335  1.00  0.00     0.097 C 
HETATM    4  C4  UNL     1      56.337  66.146  24.150  1.00  0.00     0.082 C 
HETATM    5  C5  UNL     1      56.569  66.976  22.881  1.00  0.00    -0.011 C 
HETATM    6  C6  UNL     1      55.659  68.186  23.007  1.00  0.00     0.010 C 
HETATM    7  C7  UNL     1      56.209  66.243  21.651  1.00  0.00     0.012 C 
HETATM    8  C8  UNL     1      57.267  65.401  21.044  1.00  0.00     0.078 C 
HETATM    9  C9  UNL     1      58.011  64.539  21.957  1.00  0.00     0.097 C 
HETATM   10  N4  UNL     1      58.593  63.542  21.371  1.00  0.00    -0.286 N 
ATOM     11  H4  UNL     1      59.135  62.889  21.937  1.00  0.00     0.188 HD
HETATM   12  N7  UNL     1      58.243  64.548  23.361  1.00  0.00    -0.333 N 
ATOM     13  H7  UNL     1      58.962  63.912  23.707  1.00  0.00     0.168 HD
ENDROOT
BRANCH   1  14
HETATM   14  N2  UNL     1      59.250  64.723  25.863  1.00  0.00    -0.250 N 
HETATM   15  C2  UNL     1      60.129  65.101  26.897  1.00  0.00     0.334 C 
HETATM   16  N1  UNL     1      61.299  64.351  27.184  1.00  0.00    -0.346 N 
HETATM   17  O1  UNL     1      59.866  66.124  27.573  1.00  0.00    -0.246 OA
HETATM   18  C1  UNL     1      62.195  64.746  28.247  1.00  0.00     0.151 C 
ATOM     19  H1  UNL     1      61.511  63.520  26.632  1.00  0.00     0.163 HD
ATOM     20  H2  UNL     1      59.480  63.888  25.325  1.00  0.00     0.192 HD
ENDBRANCH   1  14
BRANCH  10  21
HETATM   21  N5  UNL     1      58.508  63.324  19.984  1.00  0.00    -0.261 N 
HETATM   22  C10 UNL     1      59.638  63.069  19.181  1.00  0.00     0.325 C 
HETATM   23  O2  UNL     1      60.811  63.024  19.683  1.00  0.00    -0.261 OA
ATOM     24  H5  UNL     1      57.590  63.350  19.542  1.00  0.00     0.190 HD
BRANCH  22  25
HETATM   25  C11 UNL     1      59.502  62.850  17.756  1.00  0.00     0.324 C 
HETATM   26  N6  UNL     1      60.661  62.736  16.910  1.00  0.00    -0.053 NA
HETATM   27  O3  UNL     1      58.346  62.760  17.269  1.00  0.00    -0.266 OA
ENDBRANCH  22  25
ENDBRANCH  10  21
TORSDOF 3
ENDMDL
MODEL 4
REMARK VINA RESULT: -5.623938199      5.192      8.482
REMARK  3 active torsions:
REMARK  status: ('A' for Active; 'I' for Inactive)
REMARK       I    between atoms: N1_2  and  C2_4 
REMARK       I    between atoms: C2_4  and  N2_6 
REMARK    1  A    between atoms: N2_6  and  N3_8 
REMARK    2  A    between atoms: N4_17  and  N5_19 
REMARK       I    between atoms: N5_19  and  C10_21 
REMARK    3  A    between atoms: C10_21  and  C11_23 
ROOT
HETATM    1  N3  UNL     1      56.284  65.536  23.626  1.00  0.00    -0.285 N 
ATOM      2  H3  UNL     1      55.663  65.056  22.974  1.00  0.00     0.188 HD
HETATM    3  C3  UNL     1      57.408  64.972  23.962  1.00  0.00     0.097 C 
HETATM    4  C4  UNL     1      57.652  63.647  23.327  1.00  0.00     0.082 C 
HETATM    5  C5  UNL     1      59.067  63.729  22.739  1.00  0.00    -0.011 C 
HETATM    6  C6  UNL     1      59.107  62.711  21.613  1.00  0.00     0.010 C 
HETATM    7  C7  UNL     1      60.110  63.382  23.724  1.00  0.00     0.012 C 
HETATM    8  C8  UNL     1      60.621  64.486  24.571  1.00  0.00     0.078 C 
HETATM    9  C9  UNL     1      59.616  65.358  25.172  1.00  0.00     0.097 C 
HETATM   10  N4  UNL     1      60.044  66.006  26.208  1.00  0.00    -0.286 N 
ATOM     11  H4  UNL     1      59.405  66.638  26.689  1.00  0.00     0.188 HD
HETATM   12  N7  UNL     1      58.258  65.659  24.872  1.00  0.00    -0.333 N 
ATOM     13  H7  UNL     1      57.850  66.454  25.364  1.00  0.00     0.168 HD
ENDROOT
BRANCH   1  14
HETATM   14  N2  UNL     1      55.909  66.770  24.130  1.00  0.00    -0.250 N 
HETATM   15  C2  UNL     1      55.811  67.947  23.362  1.00  0.00     0.334 C 
HETATM   16  N1  UNL     1      55.421  69.181  23.945  1.00  0.00    -0.346 N 
HETATM   17  O1  UNL     1      56.077  67.896  22.137  1.00  0.00    -0.246 OA
HETATM   18  C1  UNL     1      55.323  70.383  23.148  1.00  0.00     0.151 C 
ATOM     19  H1  UNL     1      55.206  69.220  24.941  1.00  0.00     0.163 HD
ATOM     20  H2  UNL     1      55.688  66.831  25.124  1.00  0.00     0.192 HD
ENDBRANCH   1  14
BRANCH  10  21
HETATM   21  N5  UNL     1      61.356  65.872  26.697  1.00  0.00    -0.261 N 
HETATM   22  C10 UNL     1      62.185  66.978  26.973  1.00  0.00     0.325 C 
HETATM   23  O2  UNL     1      61.775  68.173  26.790  1.00  0.00    -0.261 OA
ATOM     24  H5  UNL     1      61.724  64.934  26.858  1.00  0.00     0.190 HD
BRANCH  22  25
HETATM   25  C11 UNL     1      63.530  66.792  27.475  1.00  0.00     0.324 C 
HETATM   26  N6  UNL     1      64.428  65.851  26.860  1.00  0.00    -0.053 NA
HETATM   27  O3  UNL     1      63.902  67.474  28.464  1.00  0.00    -0.266 OA
ENDBRANCH  22  25
ENDBRANCH  10  21
TORSDOF 3
ENDMDL
MODEL 5
REMARK VINA RESULT: -5.511895642      4.102      7.097
REMARK  3 active torsions:
REMARK  status: ('A' for Active; 'I' for Inactive)
REMARK       I    between atoms: N1_2  and  C2_4 
REMARK       I    between atoms: C2_4  and  N2_6 
REMARK    1  A    between atoms: N2_6  and  N3_8 
REMARK    2  A    between atoms: N4_17  and  N5_19 
REMARK       I    between atoms: N5_19  and  C10_21 
REMARK    3  A    between atoms: C10_21  and  C11_23 
ROOT
HETATM    1  N3  UNL     1      56.439  68.152  22.149  1.00  0.00    -0.285 N 
ATOM      2  H3  UNL     1      55.922  68.309  21.283  1.00  0.00     0.188 HD
HETATM    3  C3  UNL     1      56.612  66.933  22.570  1.00  0.00     0.097 C 
HETATM    4  C4  UNL     1      56.010  65.884  21.701  1.00  0.00     0.082 C 
HETATM    5  C5  UNL     1      57.125  64.857  21.466  1.00  0.00    -0.011 C 
HETATM    6  C6  UNL     1      56.778  64.159  20.163  1.00  0.00     0.010 C 
HETATM    7  C7  UNL     1      57.197  63.843  22.538  1.00  0.00     0.012 C 
HETATM    8  C8  UNL     1      58.034  64.176  23.715  1.00  0.00     0.078 C 
HETATM    9  C9  UNL     1      57.854  65.510  24.281  1.00  0.00     0.097 C 
HETATM   10  N4  UNL     1      58.250  65.610  25.509  1.00  0.00    -0.286 N 
ATOM     11  H4  UNL     1      58.160  66.510  25.980  1.00  0.00     0.188 HD
HETATM   12  N7  UNL     1      57.336  66.737  23.780  1.00  0.00    -0.333 N 
ATOM     13  H7  UNL     1      57.501  67.566  24.350  1.00  0.00     0.168 HD
ENDROOT
BRANCH   1  14
HETATM   14  N2  UNL     1      56.938  69.241  22.844  1.00  0.00    -0.250 N 
HETATM   15  C2  UNL     1      56.867  70.573  22.392  1.00  0.00     0.334 C 
HETATM   16  N1  UNL     1      57.401  71.643  23.158  1.00  0.00    -0.346 N 
HETATM   17  O1  UNL     1      56.321  70.812  21.289  1.00  0.00    -0.246 OA
HETATM   18  C1  UNL     1      57.324  73.007  22.686  1.00  0.00     0.151 C 
ATOM     19  H1  UNL     1      57.846  71.446  24.054  1.00  0.00     0.163 HD
ATOM     20  H2  UNL     1      57.385  69.067  23.744  1.00  0.00     0.192 HD
ENDBRANCH   1  14
BRANCH  10  21
HETATM   21  N5  UNL     1      58.800  64.528  26.219  1.00  0.00    -0.261 N 
HETATM   22  C10 UNL     1      59.693  64.696  27.296  1.00  0.00     0.325 C 
HETATM   23  O2  UNL     1      60.050  65.859  27.684  1.00  0.00    -0.261 OA
ATOM     24  H5  UNL     1      58.541  63.581  25.942  1.00  0.00     0.190 HD
BRANCH  22  25
HETATM   25  C11 UNL     1      60.235  63.552  27.998  1.00  0.00     0.324 C 
HETATM   26  N6  UNL     1      59.689  63.129  29.261  1.00  0.00    -0.053 NA
HETATM   27  O3  UNL     1      61.197  62.929  27.480  1.00  0.00    -0.266 OA
ENDBRANCH  22  25
ENDBRANCH  10  21
TORSDOF 3
ENDMDL
