MODEL 1
REMARK VINA RESULT: -7.078163661      0.000      0.000
REMARK  8 active torsions:
REMARK  status: ('A' for Active; 'I' for Inactive)
REMARK    1  A    between atoms: C2_2  and  O1_3 
REMARK    2  A    between atoms: C2_2  and  C3_5 
REMARK    3  A    between atoms: C4_7  and  N1_8 
REMARK    4  A    between atoms: C7_11  and  C8_12 
REMARK    5  A    between atoms: C10_16  and  O3_17 
REMARK    6  A    between atoms: O3_17  and  C11_18 
REMARK    7  A    between atoms: C11_18  and  C12_19 
REMARK    8  A    between atoms: C19_30  and  O5_31 
ROOT
HETATM    1  N1  UNL     1      60.745  57.043  48.270  1.00  0.00     0.126 N 
HETATM    2  C5  UNL     1      62.046  57.422  47.666  1.00  0.00     0.279 C 
HETATM    3  C6  UNL     1      62.718  57.069  48.992  1.00  0.00     0.071 C 
HETATM    4  C7  UNL     1      61.371  57.391  49.538  1.00  0.00     0.265 C 
ENDROOT
BRANCH   4   5
HETATM    5  C8  UNL     1      61.201  58.715  50.086  1.00  0.00     0.029 A 
HETATM    6  C9  UNL     1      61.448  59.839  49.342  1.00  0.00     0.104 A 
HETATM    7  N2  UNL     1      61.341  61.113  49.846  1.00  0.00    -0.332 N 
HETATM    8  C10 UNL     1      60.974  61.278  51.132  1.00  0.00     0.224 A 
ATOM      9  H2  UNL     1      61.536  61.921  49.255  1.00  0.00     0.168 HD
HETATM   10  N3  UNL     1      60.733  60.177  51.852  1.00  0.00    -0.312 N 
HETATM   11  C16 UNL     1      60.827  58.934  51.404  1.00  0.00     0.116 A 
ATOM     12  H3  UNL     1      60.455  60.304  52.825  1.00  0.00     0.170 HD
HETATM   13 CL1  UNL     1      60.467  57.620  52.511  1.00  0.00    -0.064 Cl
BRANCH   8  14
HETATM   14  O3  UNL     1      60.860  62.540  51.665  1.00  0.00    -0.319 OA
BRANCH  14  15
HETATM   15  C11 UNL     1      59.725  63.345  51.680  1.00  0.00     0.210 C 
BRANCH  15  16
HETATM   16  C12 UNL     1      60.013  64.741  52.132  1.00  0.00     0.145 C 
HETATM   17  C13 UNL     1      58.690  65.455  52.442  1.00  0.00     0.036 C 
HETATM   18  C14 UNL     1      58.524  65.303  53.937  1.00  0.00     0.029 C 
HETATM   19  C15 UNL     1      59.747  64.487  54.314  1.00  0.00     0.168 C 
HETATM   20  O4  UNL     1      60.701  64.741  53.353  1.00  0.00    -0.384 OA
ENDBRANCH  15  16
ENDBRANCH  14  15
ENDBRANCH   8  14
ENDBRANCH   4   5
BRANCH   1  21
HETATM   21  C4  UNL     1      60.600  55.585  48.072  1.00  0.00     0.360 C 
HETATM   22  O2  UNL     1      60.425  55.231  46.766  1.00  0.00    -0.346 OA
HETATM   23  C3  UNL     1      59.176  54.979  46.309  1.00  0.00     0.181 C 
HETATM   24  C19 UNL     1      58.238  54.282  47.242  1.00  0.00     0.149 C 
HETATM   25  C18 UNL     1      59.069  53.709  48.373  1.00  0.00     0.038 C 
HETATM   26  C17 UNL     1      59.682  54.937  49.062  1.00  0.00     0.067 C 
BRANCH  23  27
HETATM   27  C2  UNL     1      59.348  54.138  45.031  1.00  0.00     0.145 C 
HETATM   28  C1  UNL     1      60.694  54.364  44.392  1.00  0.00     0.042 C 
BRANCH  27  29
HETATM   29  O1  UNL     1      58.387  54.627  44.129  1.00  0.00    -0.393 OA
ATOM     30  H1  UNL     1      57.547  54.286  44.415  1.00  0.00     0.210 HD
ENDBRANCH  27  29
ENDBRANCH  23  27
BRANCH  24  31
HETATM   31  O5  UNL     1      57.429  53.336  46.650  1.00  0.00    -0.393 OA
ATOM     32  H5  UNL     1      56.834  53.674  45.992  1.00  0.00     0.210 HD
ENDBRANCH  24  31
ENDBRANCH   1  21
TORSDOF 8
ENDMDL
MODEL 2
REMARK VINA RESULT: -6.993159535      2.531      9.668
REMARK  8 active torsions:
REMARK  status: ('A' for Active; 'I' for Inactive)
REMARK    1  A    between atoms: C2_2  and  O1_3 
REMARK    2  A    between atoms: C2_2  and  C3_5 
REMARK    3  A    between atoms: C4_7  and  N1_8 
REMARK    4  A    between atoms: C7_11  and  C8_12 
REMARK    5  A    between atoms: C10_16  and  O3_17 
REMARK    6  A    between atoms: O3_17  and  C11_18 
REMARK    7  A    between atoms: C11_18  and  C12_19 
REMARK    8  A    between atoms: C19_30  and  O5_31 
ROOT
HETATM    1  N1  UNL     1      60.377  58.143  50.265  1.00  0.00     0.126 N 
HETATM    2  C5  UNL     1      61.012  56.875  50.700  1.00  0.00     0.279 C 
HETATM    3  C6  UNL     1      61.927  56.961  49.480  1.00  0.00     0.071 C 
HETATM    4  C7  UNL     1      60.791  57.747  48.926  1.00  0.00     0.265 C 
ENDROOT
BRANCH   4   5
HETATM    5  C8  UNL     1      59.875  57.034  48.069  1.00  0.00     0.029 A 
HETATM    6  C9  UNL     1      60.127  55.753  47.655  1.00  0.00     0.104 A 
HETATM    7  N2  UNL     1      59.300  55.062  46.803  1.00  0.00    -0.332 N 
HETATM    8  C10 UNL     1      58.182  55.662  46.347  1.00  0.00     0.224 A 
ATOM      9  H2  UNL     1      59.528  54.109  46.520  1.00  0.00     0.168 HD
HETATM   10  N3  UNL     1      57.942  56.912  46.757  1.00  0.00    -0.312 N 
HETATM   11  C16 UNL     1      58.714  57.611  47.575  1.00  0.00     0.116 A 
ATOM     12  H3  UNL     1      57.096  57.364  46.411  1.00  0.00     0.170 HD
HETATM   13 CL1  UNL     1      58.221  59.243  47.994  1.00  0.00    -0.064 Cl
BRANCH   8  14
HETATM   14  O3  UNL     1      57.336  54.997  45.492  1.00  0.00    -0.319 OA
BRANCH  14  15
HETATM   15  C11 UNL     1      57.628  53.869  44.731  1.00  0.00     0.210 C 
BRANCH  15  16
HETATM   16  C12 UNL     1      57.426  52.595  45.487  1.00  0.00     0.145 C 
HETATM   17  C13 UNL     1      56.992  51.492  44.511  1.00  0.00     0.036 C 
HETATM   18  C14 UNL     1      58.273  50.764  44.175  1.00  0.00     0.029 C 
HETATM   19  C15 UNL     1      59.305  51.550  44.962  1.00  0.00     0.168 C 
HETATM   20  O4  UNL     1      58.636  52.129  46.018  1.00  0.00    -0.384 OA
ENDBRANCH  15  16
ENDBRANCH  14  15
ENDBRANCH   8  14
ENDBRANCH   4   5
BRANCH   1  21
HETATM   21  C4  UNL     1      61.196  59.237  50.830  1.00  0.00     0.360 C 
HETATM   22  O2  UNL     1      61.268  59.211  52.192  1.00  0.00    -0.346 OA
HETATM   23  C3  UNL     1      60.463  60.025  52.914  1.00  0.00     0.181 C 
HETATM   24  C19 UNL     1      60.203  61.390  52.360  1.00  0.00     0.149 C 
HETATM   25  C18 UNL     1      61.225  61.637  51.269  1.00  0.00     0.038 C 
HETATM   26  C17 UNL     1      60.921  60.570  50.207  1.00  0.00     0.067 C 
BRANCH  23  27
HETATM   27  C2  UNL     1      61.113  60.150  54.303  1.00  0.00     0.145 C 
HETATM   28  C1  UNL     1      61.695  58.839  54.767  1.00  0.00     0.042 C 
BRANCH  27  29
HETATM   29  O1  UNL     1      60.061  60.457  55.183  1.00  0.00    -0.393 OA
ATOM     30  H1  UNL     1      60.348  61.199  55.702  1.00  0.00     0.210 HD
ENDBRANCH  27  29
ENDBRANCH  23  27
BRANCH  24  31
HETATM   31  O5  UNL     1      60.178  62.400  53.298  1.00  0.00    -0.393 OA
ATOM     32  H5  UNL     1      59.326  62.797  53.435  1.00  0.00     0.210 HD
ENDBRANCH  24  31
ENDBRANCH   1  21
TORSDOF 8
ENDMDL
MODEL 3
REMARK VINA RESULT: -6.966517795      1.366      1.930
REMARK  8 active torsions:
REMARK  status: ('A' for Active; 'I' for Inactive)
REMARK    1  A    between atoms: C2_2  and  O1_3 
REMARK    2  A    between atoms: C2_2  and  C3_5 
REMARK    3  A    between atoms: C4_7  and  N1_8 
REMARK    4  A    between atoms: C7_11  and  C8_12 
REMARK    5  A    between atoms: C10_16  and  O3_17 
REMARK    6  A    between atoms: O3_17  and  C11_18 
REMARK    7  A    between atoms: C11_18  and  C12_19 
REMARK    8  A    between atoms: C19_30  and  O5_31 
ROOT
HETATM    1  N1  UNL     1      61.669  57.117  47.667  1.00  0.00     0.126 N 
HETATM    2  C5  UNL     1      62.978  56.858  48.315  1.00  0.00     0.279 C 
HETATM    3  C6  UNL     1      62.225  56.318  49.529  1.00  0.00     0.071 C 
HETATM    4  C7  UNL     1      61.157  57.222  49.026  1.00  0.00     0.265 C 
ENDROOT
BRANCH   4   5
HETATM    5  C8  UNL     1      61.058  58.515  49.661  1.00  0.00     0.029 A 
HETATM    6  C9  UNL     1      61.387  59.668  48.998  1.00  0.00     0.104 A 
HETATM    7  N2  UNL     1      61.349  60.910  49.585  1.00  0.00    -0.332 N 
HETATM    8  C10 UNL     1      60.971  61.011  50.875  1.00  0.00     0.224 A 
ATOM      9  H2  UNL     1      61.603  61.742  49.053  1.00  0.00     0.168 HD
HETATM   10  N3  UNL     1      60.651  59.881  51.515  1.00  0.00    -0.312 N 
HETATM   11  C16 UNL     1      60.676  58.668  50.985  1.00  0.00     0.116 A 
ATOM     12  H3  UNL     1      60.364  59.960  52.491  1.00  0.00     0.170 HD
HETATM   13 CL1  UNL     1      60.217  57.307  51.996  1.00  0.00    -0.064 Cl
BRANCH   8  14
HETATM   14  O3  UNL     1      60.925  62.239  51.491  1.00  0.00    -0.319 OA
BRANCH  14  15
HETATM   15  C11 UNL     1      59.813  63.064  51.636  1.00  0.00     0.210 C 
BRANCH  15  16
HETATM   16  C12 UNL     1      60.183  64.496  51.857  1.00  0.00     0.145 C 
HETATM   17  C13 UNL     1      58.903  65.335  51.978  1.00  0.00     0.036 C 
HETATM   18  C14 UNL     1      58.672  65.455  53.466  1.00  0.00     0.029 C 
HETATM   19  C15 UNL     1      59.820  64.642  54.035  1.00  0.00     0.168 C 
HETATM   20  O4  UNL     1      60.824  64.665  53.092  1.00  0.00    -0.384 OA
ENDBRANCH  15  16
ENDBRANCH  14  15
ENDBRANCH   8  14
ENDBRANCH   4   5
BRANCH   1  21
HETATM   21  C4  UNL     1      61.280  55.859  46.993  1.00  0.00     0.360 C 
HETATM   22  O2  UNL     1      61.968  55.629  45.838  1.00  0.00    -0.346 OA
HETATM   23  C3  UNL     1      61.393  55.935  44.651  1.00  0.00     0.181 C 
HETATM   24  C19 UNL     1      59.923  55.689  44.524  1.00  0.00     0.149 C 
HETATM   25  C18 UNL     1      59.512  54.803  45.684  1.00  0.00     0.038 C 
HETATM   26  C17 UNL     1      59.799  55.648  46.935  1.00  0.00     0.067 C 
BRANCH  23  27
HETATM   27  C2  UNL     1      62.144  55.117  43.586  1.00  0.00     0.145 C 
HETATM   28  C1  UNL     1      63.549  54.788  44.024  1.00  0.00     0.042 C 
BRANCH  27  29
HETATM   29  O1  UNL     1      62.259  55.967  42.473  1.00  0.00    -0.393 OA
ATOM     30  H1  UNL     1      61.734  55.581  41.781  1.00  0.00     0.210 HD
ENDBRANCH  27  29
ENDBRANCH  23  27
BRANCH  24  31
HETATM   31  O5  UNL     1      59.524  55.181  43.306  1.00  0.00    -0.393 OA
ATOM     32  H5  UNL     1      58.727  54.665  43.331  1.00  0.00     0.210 HD
ENDBRANCH  24  31
ENDBRANCH   1  21
TORSDOF 8
ENDMDL
MODEL 4
REMARK VINA RESULT: -6.865390410      1.702      2.290
REMARK  8 active torsions:
REMARK  status: ('A' for Active; 'I' for Inactive)
REMARK    1  A    between atoms: C2_2  and  O1_3 
REMARK    2  A    between atoms: C2_2  and  C3_5 
REMARK    3  A    between atoms: C4_7  and  N1_8 
REMARK    4  A    between atoms: C7_11  and  C8_12 
REMARK    5  A    between atoms: C10_16  and  O3_17 
REMARK    6  A    between atoms: O3_17  and  C11_18 
REMARK    7  A    between atoms: C11_18  and  C12_19 
REMARK    8  A    between atoms: C19_30  and  O5_31 
ROOT
HETATM    1  N1  UNL     1      61.366  57.155  48.066  1.00  0.00     0.126 N 
HETATM    2  C5  UNL     1      62.464  56.675  48.941  1.00  0.00     0.279 C 
HETATM    3  C6  UNL     1      61.411  56.276  49.973  1.00  0.00     0.071 C 
HETATM    4  C7  UNL     1      60.629  57.351  49.306  1.00  0.00     0.265 C 
ENDROOT
BRANCH   4   5
HETATM    5  C8  UNL     1      60.632  58.642  49.951  1.00  0.00     0.029 A 
HETATM    6  C9  UNL     1      60.950  58.782  51.276  1.00  0.00     0.104 A 
HETATM    7  N2  UNL     1      60.920  59.989  51.933  1.00  0.00    -0.332 N 
HETATM    8  C10 UNL     1      60.562  61.095  51.251  1.00  0.00     0.224 A 
ATOM      9  H2  UNL     1      61.164  60.046  52.921  1.00  0.00     0.168 HD
HETATM   10  N3  UNL     1      60.254  60.950  49.957  1.00  0.00    -0.312 N 
HETATM   11  C16 UNL     1      60.270  59.806  49.290  1.00  0.00     0.116 A 
ATOM     12  H3  UNL     1      59.984  61.789  49.443  1.00  0.00     0.170 HD
HETATM   13 CL1  UNL     1      59.832  59.827  47.590  1.00  0.00    -0.064 Cl
BRANCH   8  14
HETATM   14  O3  UNL     1      60.520  62.317  51.881  1.00  0.00    -0.319 OA
BRANCH  14  15
HETATM   15  C11 UNL     1      59.463  63.222  51.885  1.00  0.00     0.210 C 
BRANCH  15  16
HETATM   16  C12 UNL     1      59.892  64.607  52.251  1.00  0.00     0.145 C 
HETATM   17  C13 UNL     1      58.651  65.455  52.558  1.00  0.00     0.036 C 
HETATM   18  C14 UNL     1      58.521  65.398  54.062  1.00  0.00     0.029 C 
HETATM   19  C15 UNL     1      59.676  64.494  54.450  1.00  0.00     0.168 C 
HETATM   20  O4  UNL     1      60.617  64.608  53.450  1.00  0.00    -0.384 OA
ENDBRANCH  15  16
ENDBRANCH  14  15
ENDBRANCH   8  14
ENDBRANCH   4   5
BRANCH   1  21
HETATM   21  C4  UNL     1      60.905  55.983  47.291  1.00  0.00     0.360 C 
HETATM   22  O2  UNL     1      61.637  55.758  46.162  1.00  0.00    -0.346 OA
HETATM   23  C3  UNL     1      61.165  56.187  44.968  1.00  0.00     0.181 C 
HETATM   24  C19 UNL     1      59.689  56.089  44.746  1.00  0.00     0.149 C 
HETATM   25  C18 UNL     1      59.130  55.180  45.822  1.00  0.00     0.038 C 
HETATM   26  C17 UNL     1      59.417  55.917  47.139  1.00  0.00     0.067 C 
BRANCH  23  27
HETATM   27  C2  UNL     1      61.901  55.366  43.895  1.00  0.00     0.145 C 
HETATM   28  C1  UNL     1      63.274  54.949  44.357  1.00  0.00     0.042 C 
BRANCH  27  29
HETATM   29  O1  UNL     1      62.091  56.247  42.815  1.00  0.00    -0.393 OA
ATOM     30  H1  UNL     1      61.234  56.395  42.432  1.00  0.00     0.210 HD
ENDBRANCH  27  29
ENDBRANCH  23  27
BRANCH  24  31
HETATM   31  O5  UNL     1      59.320  55.695  43.478  1.00  0.00    -0.393 OA
ATOM     32  H5  UNL     1      58.406  55.453  43.386  1.00  0.00     0.210 HD
ENDBRANCH  24  31
ENDBRANCH   1  21
TORSDOF 8
ENDMDL
MODEL 5
REMARK VINA RESULT: -6.837065199      2.701      3.720
REMARK  8 active torsions:
REMARK  status: ('A' for Active; 'I' for Inactive)
REMARK    1  A    between atoms: C2_2  and  O1_3 
REMARK    2  A    between atoms: C2_2  and  C3_5 
REMARK    3  A    between atoms: C4_7  and  N1_8 
REMARK    4  A    between atoms: C7_11  and  C8_12 
REMARK    5  A    between atoms: C10_16  and  O3_17 
REMARK    6  A    between atoms: O3_17  and  C11_18 
REMARK    7  A    between atoms: C11_18  and  C12_19 
REMARK    8  A    between atoms: C19_30  and  O5_31 
ROOT
HETATM    1  N1  UNL     1      61.374  56.968  46.899  1.00  0.00     0.126 N 
HETATM    2  C5  UNL     1      62.337  56.188  47.715  1.00  0.00     0.279 C 
HETATM    3  C6  UNL     1      61.170  55.748  48.597  1.00  0.00     0.071 C 
HETATM    4  C7  UNL     1      60.578  57.026  48.117  1.00  0.00     0.265 C 
ENDROOT
BRANCH   4   5
HETATM    5  C8  UNL     1      60.695  58.160  49.001  1.00  0.00     0.029 A 
HETATM    6  C9  UNL     1      61.055  58.013  50.315  1.00  0.00     0.104 A 
HETATM    7  N2  UNL     1      61.132  59.065  51.196  1.00  0.00    -0.332 N 
HETATM    8  C10 UNL     1      60.843  60.307  50.758  1.00  0.00     0.224 A 
ATOM      9  H2  UNL     1      61.404  58.908  52.166  1.00  0.00     0.168 HD
HETATM   10  N3  UNL     1      60.493  60.442  49.475  1.00  0.00    -0.312 N 
HETATM   11  C16 UNL     1      60.407  59.455  48.596  1.00  0.00     0.116 A 
ATOM     12  H3  UNL     1      60.275  61.382  49.145  1.00  0.00     0.170 HD
HETATM   13 CL1  UNL     1      59.929  59.843  46.951  1.00  0.00    -0.064 Cl
BRANCH   8  14
HETATM   14  O3  UNL     1      60.908  61.379  51.616  1.00  0.00    -0.319 OA
BRANCH  14  15
HETATM   15  C11 UNL     1      60.145  61.585  52.761  1.00  0.00     0.210 C 
BRANCH  15  16
HETATM   16  C12 UNL     1      60.898  61.286  54.018  1.00  0.00     0.145 C 
HETATM   17  C13 UNL     1      60.001  61.585  55.227  1.00  0.00     0.036 C 
HETATM   18  C14 UNL     1      59.408  60.245  55.595  1.00  0.00     0.029 C 
HETATM   19  C15 UNL     1      59.998  59.332  54.535  1.00  0.00     0.168 C 
HETATM   20  O4  UNL     1      61.175  59.916  54.124  1.00  0.00    -0.384 OA
ENDBRANCH  15  16
ENDBRANCH  14  15
ENDBRANCH   8  14
ENDBRANCH   4   5
BRANCH   1  21
HETATM   21  C4  UNL     1      60.829  56.036  45.888  1.00  0.00     0.360 C 
HETATM   22  O2  UNL     1      61.721  55.722  44.905  1.00  0.00    -0.346 OA
HETATM   23  C3  UNL     1      61.651  56.365  43.716  1.00  0.00     0.181 C 
HETATM   24  C19 UNL     1      60.287  56.689  43.197  1.00  0.00     0.149 C 
HETATM   25  C18 UNL     1      59.292  55.873  44.000  1.00  0.00     0.038 C 
HETATM   26  C17 UNL     1      59.445  56.388  45.439  1.00  0.00     0.067 C 
BRANCH  23  27
HETATM   27  C2  UNL     1      62.388  55.473  42.701  1.00  0.00     0.145 C 
HETATM   28  C1  UNL     1      63.357  54.539  43.381  1.00  0.00     0.042 C 
BRANCH  27  29
HETATM   29  O1  UNL     1      63.159  56.353  41.921  1.00  0.00    -0.393 OA
ATOM     30  H1  UNL     1      62.889  57.233  42.156  1.00  0.00     0.210 HD
ENDBRANCH  27  29
ENDBRANCH  23  27
BRANCH  24  31
HETATM   31  O5  UNL     1      60.129  56.522  41.838  1.00  0.00    -0.393 OA
ATOM     32  H5  UNL     1      60.093  57.328  41.338  1.00  0.00     0.210 HD
ENDBRANCH  24  31
ENDBRANCH   1  21
TORSDOF 8
ENDMDL
