MODEL 1
REMARK VINA RESULT: -7.652885627      0.000      0.000
REMARK  8 active torsions:
REMARK  status: ('A' for Active; 'I' for Inactive)
REMARK    1  A    between atoms: O1_2  and  C2_3 
REMARK    2  A    between atoms: C2_3  and  C3_4 
REMARK    3  A    between atoms: C5_10  and  N3_11 
REMARK    4  A    between atoms: N3_11  and  C6_13 
REMARK    5  A    between atoms: C6_13  and  C7_14 
REMARK    6  A    between atoms: C7_14  and  O2_15 
REMARK    7  A    between atoms: C7_14  and  C8_17 
REMARK    8  A    between atoms: C15_28  and  C16_29 
ROOT
HETATM    1  C3  UNL     1      60.271  58.987  53.379  1.00  0.00     0.128 A 
HETATM    2  N1  UNL     1      60.685  58.080  52.486  1.00  0.00    -0.285 N 
ATOM      3  H1  UNL     1      60.699  57.071  52.630  1.00  0.00     0.188 HD
HETATM    4  N2  UNL     1      61.070  58.694  51.401  1.00  0.00    -0.281 N 
ATOM      5  H2  UNL     1      61.429  58.226  50.570  1.00  0.00     0.188 HD
HETATM    6  C4  UNL     1      60.933  60.006  51.522  1.00  0.00     0.172 A 
HETATM    7  C5  UNL     1      61.199  61.049  50.666  1.00  0.00     0.148 A 
HETATM    8  N4  UNL     1      60.930  62.299  51.136  1.00  0.00    -0.341 N 
ATOM      9  H4  UNL     1      61.113  63.101  50.532  1.00  0.00     0.167 HD
HETATM   10  C15 UNL     1      60.434  62.515  52.359  1.00  0.00     0.031 A 
HETATM   11  C19 UNL     1      60.183  61.437  53.181  1.00  0.00     0.125 A 
HETATM   12  N5  UNL     1      60.429  60.192  52.772  1.00  0.00    -0.288 N 
ENDROOT
BRANCH   7  13
HETATM   13  N3  UNL     1      61.665  60.941  49.500  1.00  0.00    -0.371 N 
ATOM     14  H3  UNL     1      61.509  61.757  48.908  1.00  0.00     0.161 HD
BRANCH  13  15
HETATM   15  C6  UNL     1      62.364  59.888  48.867  1.00  0.00     0.154 C 
BRANCH  15  16
HETATM   16  C7  UNL     1      61.834  59.529  47.503  1.00  0.00     0.148 C 
BRANCH  16  17
HETATM   17  O2  UNL     1      60.934  60.549  47.132  1.00  0.00    -0.393 OA
ATOM     18  H2  UNL     1      60.344  60.176  46.488  1.00  0.00     0.210 HD
ENDBRANCH  16  17
BRANCH  16  19
HETATM   19  C8  UNL     1      61.089  58.227  47.497  1.00  0.00     0.027 C 
HETATM   20  C9  UNL     1      60.983  57.772  46.037  1.00  0.00     0.022 C 
HETATM   21  C10 UNL     1      61.934  57.148  48.181  1.00  0.00     0.185 C 
HETATM   22  O3  UNL     1      61.191  55.955  48.018  1.00  0.00    -0.355 OA
HETATM   23  C11 UNL     1      60.016  56.009  48.723  1.00  0.00     0.156 C 
HETATM   24  C12 UNL     1      58.855  55.368  47.959  1.00  0.00     0.078 C 
HETATM   25  C13 UNL     1      60.215  55.151  49.982  1.00  0.00     0.078 C 
HETATM   26  O4  UNL     1      59.639  57.253  49.148  1.00  0.00    -0.355 OA
HETATM   27  C14 UNL     1      59.769  58.251  48.187  1.00  0.00     0.185 C 
ENDBRANCH  16  19
ENDBRANCH  15  16
ENDBRANCH  13  15
ENDBRANCH   7  13
BRANCH  10  28
HETATM   28  C16 UNL     1      60.133  63.869  52.891  1.00  0.00     0.037 A 
HETATM   29  C17 UNL     1      59.800  63.920  54.339  1.00  0.00     0.011 A 
HETATM   30  C18 UNL     1      58.759  64.233  53.305  1.00  0.00     0.011 A 
ENDBRANCH  10  28
BRANCH   1  31
HETATM   31  C2  UNL     1      59.753  58.753  54.738  1.00  0.00     0.245 C 
BRANCH  31  32
HETATM   32  O1  UNL     1      60.572  57.974  55.511  1.00  0.00    -0.389 OA
HETATM   33  C1  UNL     1      61.881  58.355  55.596  1.00  0.00     0.202 C 
ENDBRANCH  31  32
ENDBRANCH   1  31
TORSDOF 8
ENDMDL
MODEL 2
REMARK VINA RESULT: -7.220708714      1.815      3.534
REMARK  8 active torsions:
REMARK  status: ('A' for Active; 'I' for Inactive)
REMARK    1  A    between atoms: O1_2  and  C2_3 
REMARK    2  A    between atoms: C2_3  and  C3_4 
REMARK    3  A    between atoms: C5_10  and  N3_11 
REMARK    4  A    between atoms: N3_11  and  C6_13 
REMARK    5  A    between atoms: C6_13  and  C7_14 
REMARK    6  A    between atoms: C7_14  and  O2_15 
REMARK    7  A    between atoms: C7_14  and  C8_17 
REMARK    8  A    between atoms: C15_28  and  C16_29 
ROOT
HETATM    1  C3  UNL     1      58.841  63.676  52.782  1.00  0.00     0.128 A 
HETATM    2  N1  UNL     1      58.643  64.089  51.525  1.00  0.00    -0.285 N 
ATOM      3  H1  UNL     1      58.150  64.940  51.252  1.00  0.00     0.188 HD
HETATM    4  N2  UNL     1      59.181  63.231  50.703  1.00  0.00    -0.281 N 
ATOM      5  H2  UNL     1      59.167  63.319  49.687  1.00  0.00     0.188 HD
HETATM    6  C4  UNL     1      59.747  62.231  51.361  1.00  0.00     0.172 A 
HETATM    7  C5  UNL     1      60.424  61.110  50.941  1.00  0.00     0.148 A 
HETATM    8  N4  UNL     1      60.879  60.277  51.920  1.00  0.00    -0.341 N 
ATOM      9  H4  UNL     1      61.386  59.435  51.651  1.00  0.00     0.167 HD
HETATM   10  C15 UNL     1      60.684  60.525  53.220  1.00  0.00     0.031 A 
HETATM   11  C19 UNL     1      59.999  61.662  53.592  1.00  0.00     0.125 A 
HETATM   12  N5  UNL     1      59.532  62.510  52.675  1.00  0.00    -0.288 N 
ENDROOT
BRANCH   7  13
HETATM   13  N3  UNL     1      60.655  60.797  49.742  1.00  0.00    -0.371 N 
ATOM     14  H3  UNL     1      60.009  61.209  49.069  1.00  0.00     0.161 HD
BRANCH  13  15
HETATM   15  C6  UNL     1      61.651  59.976  49.166  1.00  0.00     0.154 C 
BRANCH  15  16
HETATM   16  C7  UNL     1      61.398  59.622  47.724  1.00  0.00     0.148 C 
BRANCH  16  17
HETATM   17  O2  UNL     1      60.435  60.532  47.241  1.00  0.00    -0.393 OA
ATOM     18  H2  UNL     1      59.593  60.246  47.573  1.00  0.00     0.210 HD
ENDBRANCH  16  17
BRANCH  16  19
HETATM   19  C8  UNL     1      60.850  58.234  47.558  1.00  0.00     0.027 C 
HETATM   20  C9  UNL     1      60.937  57.889  46.067  1.00  0.00     0.022 C 
HETATM   21  C10 UNL     1      61.778  57.229  48.246  1.00  0.00     0.185 C 
HETATM   22  O3  UNL     1      61.231  55.964  47.931  1.00  0.00    -0.355 OA
HETATM   23  C11 UNL     1      60.004  55.799  48.520  1.00  0.00     0.156 C 
HETATM   24  C12 UNL     1      59.017  55.070  47.605  1.00  0.00     0.078 C 
HETATM   25  C13 UNL     1      60.214  54.878  49.731  1.00  0.00     0.078 C 
HETATM   26  O4  UNL     1      59.417  56.942  48.990  1.00  0.00    -0.355 OA
HETATM   27  C14 UNL     1      59.486  58.023  48.115  1.00  0.00     0.185 C 
ENDBRANCH  16  19
ENDBRANCH  15  16
ENDBRANCH  13  15
ENDBRANCH   7  13
BRANCH  10  28
HETATM   28  C16 UNL     1      61.171  59.631  54.303  1.00  0.00     0.037 A 
HETATM   29  C17 UNL     1      60.621  58.250  54.278  1.00  0.00     0.011 A 
HETATM   30  C18 UNL     1      60.266  59.194  55.389  1.00  0.00     0.011 A 
ENDBRANCH  10  28
BRANCH   1  31
HETATM   31  C2  UNL     1      58.410  64.326  54.032  1.00  0.00     0.245 C 
BRANCH  31  32
HETATM   32  O1  UNL     1      59.129  65.449  54.341  1.00  0.00    -0.389 OA
HETATM   33  C1  UNL     1      60.451  65.445  54.002  1.00  0.00     0.202 C 
ENDBRANCH  31  32
ENDBRANCH   1  31
TORSDOF 8
ENDMDL
MODEL 3
REMARK VINA RESULT: -7.111505483      2.147      2.871
REMARK  8 active torsions:
REMARK  status: ('A' for Active; 'I' for Inactive)
REMARK    1  A    between atoms: O1_2  and  C2_3 
REMARK    2  A    between atoms: C2_3  and  C3_4 
REMARK    3  A    between atoms: C5_10  and  N3_11 
REMARK    4  A    between atoms: N3_11  and  C6_13 
REMARK    5  A    between atoms: C6_13  and  C7_14 
REMARK    6  A    between atoms: C7_14  and  O2_15 
REMARK    7  A    between atoms: C7_14  and  C8_17 
REMARK    8  A    between atoms: C15_28  and  C16_29 
ROOT
HETATM    1  C3  UNL     1      60.560  57.896  52.114  1.00  0.00     0.128 A 
HETATM    2  N1  UNL     1      60.987  56.970  51.247  1.00  0.00    -0.285 N 
ATOM      3  H1  UNL     1      60.930  55.961  51.384  1.00  0.00     0.188 HD
HETATM    4  N2  UNL     1      61.487  57.563  50.199  1.00  0.00    -0.281 N 
ATOM      5  H2  UNL     1      61.879  57.077  49.393  1.00  0.00     0.188 HD
HETATM    6  C4  UNL     1      61.418  58.880  50.318  1.00  0.00     0.172 A 
HETATM    7  C5  UNL     1      61.808  59.909  49.492  1.00  0.00     0.148 A 
HETATM    8  N4  UNL     1      61.577  61.172  49.950  1.00  0.00    -0.341 N 
ATOM      9  H4  UNL     1      61.852  61.963  49.368  1.00  0.00     0.167 HD
HETATM   10  C15 UNL     1      61.004  61.412  51.134  1.00  0.00     0.031 A 
HETATM   11  C19 UNL     1      60.630  60.348  51.928  1.00  0.00     0.125 A 
HETATM   12  N5  UNL     1      60.833  59.092  51.528  1.00  0.00    -0.288 N 
ENDROOT
BRANCH   7  13
HETATM   13  N3  UNL     1      62.353  59.777  48.364  1.00  0.00    -0.371 N 
ATOM     14  H3  UNL     1      63.354  59.585  48.400  1.00  0.00     0.161 HD
BRANCH  13  15
HETATM   15  C6  UNL     1      61.821  59.849  47.055  1.00  0.00     0.154 C 
BRANCH  15  16
HETATM   16  C7  UNL     1      60.846  58.750  46.726  1.00  0.00     0.148 C 
BRANCH  16  17
HETATM   17  O2  UNL     1      61.182  58.274  45.443  1.00  0.00    -0.393 OA
ATOM     18  H2  UNL     1      61.821  57.582  45.562  1.00  0.00     0.210 HD
ENDBRANCH  16  17
BRANCH  16  19
HETATM   19  C8  UNL     1      59.425  59.231  46.686  1.00  0.00     0.027 C 
HETATM   20  C9  UNL     1      59.458  60.709  46.284  1.00  0.00     0.022 C 
HETATM   21  C10 UNL     1      58.678  58.533  45.545  1.00  0.00     0.185 C 
HETATM   22  O3  UNL     1      57.401  59.138  45.532  1.00  0.00    -0.355 OA
HETATM   23  C11 UNL     1      56.702  58.836  46.673  1.00  0.00     0.156 C 
HETATM   24  C12 UNL     1      55.891  60.028  47.186  1.00  0.00     0.078 C 
HETATM   25  C13 UNL     1      55.673  57.762  46.289  1.00  0.00     0.078 C 
HETATM   26  O4  UNL     1      57.444  58.324  47.701  1.00  0.00    -0.355 OA
HETATM   27  C14 UNL     1      58.643  58.993  47.931  1.00  0.00     0.185 C 
ENDBRANCH  16  19
ENDBRANCH  15  16
ENDBRANCH  13  15
ENDBRANCH   7  13
BRANCH  10  28
HETATM   28  C16 UNL     1      60.743  62.780  51.652  1.00  0.00     0.037 A 
HETATM   29  C17 UNL     1      59.834  62.849  52.827  1.00  0.00     0.011 A 
HETATM   30  C18 UNL     1      59.411  63.408  51.500  1.00  0.00     0.011 A 
ENDBRANCH  10  28
BRANCH   1  31
HETATM   31  C2  UNL     1      59.928  57.689  53.428  1.00  0.00     0.245 C 
BRANCH  31  32
HETATM   32  O1  UNL     1      60.824  57.618  54.461  1.00  0.00    -0.389 OA
HETATM   33  C1  UNL     1      60.864  58.683  55.314  1.00  0.00     0.202 C 
ENDBRANCH  31  32
ENDBRANCH   1  31
TORSDOF 8
ENDMDL
MODEL 4
REMARK VINA RESULT: -7.069336484      1.021      1.634
REMARK  8 active torsions:
REMARK  status: ('A' for Active; 'I' for Inactive)
REMARK    1  A    between atoms: O1_2  and  C2_3 
REMARK    2  A    between atoms: C2_3  and  C3_4 
REMARK    3  A    between atoms: C5_10  and  N3_11 
REMARK    4  A    between atoms: N3_11  and  C6_13 
REMARK    5  A    between atoms: C6_13  and  C7_14 
REMARK    6  A    between atoms: C7_14  and  O2_15 
REMARK    7  A    between atoms: C7_14  and  C8_17 
REMARK    8  A    between atoms: C15_28  and  C16_29 
ROOT
HETATM    1  C3  UNL     1      60.228  59.117  53.459  1.00  0.00     0.128 A 
HETATM    2  N1  UNL     1      60.618  58.188  52.578  1.00  0.00    -0.285 N 
ATOM      3  H1  UNL     1      60.610  57.181  52.739  1.00  0.00     0.188 HD
HETATM    4  N2  UNL     1      61.010  58.776  51.482  1.00  0.00    -0.281 N 
ATOM      5  H2  UNL     1      61.355  58.287  50.657  1.00  0.00     0.188 HD
HETATM    6  C4  UNL     1      60.902  60.092  51.582  1.00  0.00     0.172 A 
HETATM    7  C5  UNL     1      61.186  61.116  50.708  1.00  0.00     0.148 A 
HETATM    8  N4  UNL     1      60.946  62.379  51.159  1.00  0.00    -0.341 N 
ATOM      9  H4  UNL     1      61.143  63.166  50.542  1.00  0.00     0.167 HD
HETATM   10  C15 UNL     1      60.461  62.625  52.381  1.00  0.00     0.031 A 
HETATM   11  C19 UNL     1      60.192  61.566  53.222  1.00  0.00     0.125 A 
HETATM   12  N5  UNL     1      60.409  60.309  52.831  1.00  0.00    -0.288 N 
ENDROOT
BRANCH   7  13
HETATM   13  N3  UNL     1      61.642  60.979  49.542  1.00  0.00    -0.371 N 
ATOM     14  H3  UNL     1      61.481  61.780  48.931  1.00  0.00     0.161 HD
BRANCH  13  15
HETATM   15  C6  UNL     1      62.339  59.912  48.930  1.00  0.00     0.154 C 
BRANCH  15  16
HETATM   16  C7  UNL     1      61.942  59.658  47.500  1.00  0.00     0.148 C 
BRANCH  16  17
HETATM   17  O2  UNL     1      61.132  60.739  47.100  1.00  0.00    -0.393 OA
ATOM     18  H2  UNL     1      60.709  60.484  46.289  1.00  0.00     0.210 HD
ENDBRANCH  16  17
BRANCH  16  19
HETATM   19  C8  UNL     1      61.147  58.396  47.336  1.00  0.00     0.027 C 
HETATM   20  C9  UNL     1      59.784  58.630  47.995  1.00  0.00     0.022 C 
HETATM   21  C10 UNL     1      60.832  58.176  45.853  1.00  0.00     0.185 C 
HETATM   22  O3  UNL     1      59.995  57.036  45.831  1.00  0.00    -0.355 OA
HETATM   23  C11 UNL     1      60.679  55.917  46.235  1.00  0.00     0.156 C 
HETATM   24  C12 UNL     1      59.818  54.996  47.103  1.00  0.00     0.078 C 
HETATM   25  C13 UNL     1      61.004  55.116  44.966  1.00  0.00     0.078 C 
HETATM   26  O4  UNL     1      61.867  56.150  46.872  1.00  0.00    -0.355 OA
HETATM   27  C14 UNL     1      61.816  57.160  47.828  1.00  0.00     0.185 C 
ENDBRANCH  16  19
ENDBRANCH  15  16
ENDBRANCH  13  15
ENDBRANCH   7  13
BRANCH  10  28
HETATM   28  C16 UNL     1      60.191  63.994  52.893  1.00  0.00     0.037 A 
HETATM   29  C17 UNL     1      58.988  64.120  53.758  1.00  0.00     0.011 A 
HETATM   30  C18 UNL     1      59.029  64.770  52.406  1.00  0.00     0.011 A 
ENDBRANCH  10  28
BRANCH   1  31
HETATM   31  C2  UNL     1      59.712  58.916  54.824  1.00  0.00     0.245 C 
BRANCH  31  32
HETATM   32  O1  UNL     1      60.489  58.086  55.587  1.00  0.00    -0.389 OA
HETATM   33  C1  UNL     1      61.831  58.335  55.596  1.00  0.00     0.202 C 
ENDBRANCH  31  32
ENDBRANCH   1  31
TORSDOF 8
ENDMDL
MODEL 5
REMARK VINA RESULT: -7.031246171      2.256      4.440
REMARK  8 active torsions:
REMARK  status: ('A' for Active; 'I' for Inactive)
REMARK    1  A    between atoms: O1_2  and  C2_3 
REMARK    2  A    between atoms: C2_3  and  C3_4 
REMARK    3  A    between atoms: C5_10  and  N3_11 
REMARK    4  A    between atoms: N3_11  and  C6_13 
REMARK    5  A    between atoms: C6_13  and  C7_14 
REMARK    6  A    between atoms: C7_14  and  O2_15 
REMARK    7  A    between atoms: C7_14  and  C8_17 
REMARK    8  A    between atoms: C15_28  and  C16_29 
ROOT
HETATM    1  C3  UNL     1      61.042  61.252  50.800  1.00  0.00     0.128 A 
HETATM    2  N1  UNL     1      61.326  60.947  49.528  1.00  0.00    -0.285 N 
ATOM      3  H1  UNL     1      61.523  61.620  48.788  1.00  0.00     0.188 HD
HETATM    4  N2  UNL     1      61.311  59.650  49.386  1.00  0.00    -0.281 N 
ATOM      5  H2  UNL     1      61.497  59.164  48.509  1.00  0.00     0.188 HD
HETATM    6  C4  UNL     1      61.022  59.049  50.530  1.00  0.00     0.172 A 
HETATM    7  C5  UNL     1      60.891  57.723  50.874  1.00  0.00     0.148 A 
HETATM    8  N4  UNL     1      60.577  57.465  52.175  1.00  0.00    -0.341 N 
ATOM      9  H4  UNL     1      60.472  56.495  52.471  1.00  0.00     0.167 HD
HETATM   10  C15 UNL     1      60.404  58.437  53.077  1.00  0.00     0.031 A 
HETATM   11  C19 UNL     1      60.545  59.751  52.685  1.00  0.00     0.125 A 
HETATM   12  N5  UNL     1      60.850  60.059  51.424  1.00  0.00    -0.288 N 
ENDROOT
BRANCH   7  13
HETATM   13  N3  UNL     1      61.037  56.745  50.093  1.00  0.00    -0.371 N 
ATOM     14  H3  UNL     1      62.007  56.459  49.955  1.00  0.00     0.161 HD
BRANCH  13  15
HETATM   15  C6  UNL     1      60.095  55.973  49.376  1.00  0.00     0.154 C 
BRANCH  15  16
HETATM   16  C7  UNL     1      60.016  56.305  47.909  1.00  0.00     0.148 C 
BRANCH  16  17
HETATM   17  O2  UNL     1      59.524  57.623  47.812  1.00  0.00    -0.393 OA
ATOM     18  H2  UNL     1      58.603  57.558  47.590  1.00  0.00     0.210 HD
ENDBRANCH  16  17
BRANCH  16  19
HETATM   19  C8  UNL     1      59.079  55.403  47.161  1.00  0.00     0.027 C 
HETATM   20  C9  UNL     1      57.896  56.261  46.700  1.00  0.00     0.022 C 
HETATM   21  C10 UNL     1      59.746  54.928  45.867  1.00  0.00     0.185 C 
HETATM   22  O3  UNL     1      58.743  54.188  45.199  1.00  0.00    -0.355 OA
HETATM   23  C11 UNL     1      58.430  53.048  45.895  1.00  0.00     0.156 C 
HETATM   24  C12 UNL     1      56.930  52.745  45.861  1.00  0.00     0.078 C 
HETATM   25  C13 UNL     1      59.111  51.882  45.163  1.00  0.00     0.078 C 
HETATM   26  O4  UNL     1      58.865  53.010  47.191  1.00  0.00    -0.355 OA
HETATM   27  C14 UNL     1      58.649  54.186  47.903  1.00  0.00     0.185 C 
ENDBRANCH  16  19
ENDBRANCH  15  16
ENDBRANCH  13  15
ENDBRANCH   7  13
BRANCH  10  28
HETATM   28  C16 UNL     1      60.061  58.178  54.500  1.00  0.00     0.037 A 
HETATM   29  C17 UNL     1      59.592  59.364  55.263  1.00  0.00     0.011 A 
HETATM   30  C18 UNL     1      60.904  58.715  55.592  1.00  0.00     0.011 A 
ENDBRANCH  10  28
BRANCH   1  31
HETATM   31  C2  UNL     1      60.948  62.587  51.415  1.00  0.00     0.245 C 
BRANCH  31  32
HETATM   32  O1  UNL     1      59.672  63.081  51.460  1.00  0.00    -0.389 OA
HETATM   33  C1  UNL     1      59.538  64.440  51.454  1.00  0.00     0.202 C 
ENDBRANCH  31  32
ENDBRANCH   1  31
TORSDOF 8
ENDMDL
