MODEL 1
REMARK VINA RESULT: -7.197494626      0.000      0.000
REMARK  7 active torsions:
REMARK  status: ('A' for Active; 'I' for Inactive)
REMARK    1  A    between atoms: C4_5  and  S2_6 
REMARK    2  A    between atoms: S2_6  and  C5_7 
REMARK    3  A    between atoms: C5_7  and  C6_8 
REMARK    4  A    between atoms: C6_8  and  O1_9 
REMARK    5  A    between atoms: C6_8  and  C7_11 
REMARK    6  A    between atoms: C7_11  and  N1_12 
REMARK    7  A    between atoms: N4_23  and  C12_24 
ROOT
HETATM    1  N1  UNL     1      60.637  60.243  50.879  1.00  0.00    -0.325 N 
HETATM    2  C8  UNL     1      60.085  61.084  49.933  1.00  0.00     0.185 A 
HETATM    3  N2  UNL     1      59.615  62.163  50.522  1.00  0.00    -0.345 N 
ATOM      4  H2  UNL     1      59.159  62.941  50.046  1.00  0.00     0.167 HD
HETATM    5  C9  UNL     1      59.826  62.084  51.821  1.00  0.00     0.147 A 
HETATM    6  C10 UNL     1      59.524  62.879  52.895  1.00  0.00     0.280 A 
HETATM    7  O2  UNL     1      58.947  63.975  52.688  1.00  0.00    -0.265 OA
HETATM    8  N3  UNL     1      59.842  62.492  54.140  1.00  0.00    -0.273 N 
ATOM      9  H3  UNL     1      59.611  63.097  54.928  1.00  0.00     0.173 HD
HETATM   10  C11 UNL     1      60.462  61.317  54.369  1.00  0.00     0.331 A 
HETATM   11  O3  UNL     1      60.706  61.052  55.595  1.00  0.00    -0.246 OA
HETATM   12  N4  UNL     1      60.777  60.512  53.338  1.00  0.00    -0.278 N 
HETATM   13  C15 UNL     1      60.474  60.863  52.049  1.00  0.00     0.148 A 
ENDROOT
BRANCH   1  14
HETATM   14  C7  UNL     1      61.284  59.058  50.515  1.00  0.00     0.164 C 
BRANCH  14  15
HETATM   15  C6  UNL     1      62.090  59.189  49.221  1.00  0.00     0.145 C 
BRANCH  15  16
HETATM   16  C5  UNL     1      62.364  57.888  48.563  1.00  0.00     0.108 C 
BRANCH  16  17
HETATM   17  S2  UNL     1      61.183  57.407  47.305  1.00  0.00    -0.149 SA
BRANCH  17  18
HETATM   18  C4  UNL     1      60.727  55.672  47.400  1.00  0.00     0.131 C 
HETATM   19  S1  UNL     1      60.218  55.216  49.105  1.00  0.00    -0.147 SA
HETATM   20  C3  UNL     1      58.664  54.326  48.680  1.00  0.00     0.110 C 
HETATM   21  C2  UNL     1      58.887  54.139  47.226  1.00  0.00    -0.060 C 
HETATM   22  C1  UNL     1      58.644  53.040  46.544  1.00  0.00     0.016 C 
HETATM   23  C16 UNL     1      59.434  55.394  46.662  1.00  0.00     0.134 C 
HETATM   24 CL1  UNL     1      59.675  55.264  44.921  1.00  0.00    -0.118 Cl
ENDBRANCH  17  18
ENDBRANCH  16  17
ENDBRANCH  15  16
BRANCH  15  25
HETATM   25  O1  UNL     1      63.191  59.966  49.261  1.00  0.00    -0.393 OA
ATOM     26  H1  UNL     1      63.618  59.924  50.109  1.00  0.00     0.210 HD
ENDBRANCH  15  25
ENDBRANCH  14  15
ENDBRANCH   1  14
BRANCH  12  27
HETATM   27  C12 UNL     1      61.389  59.262  53.607  1.00  0.00     0.096 A 
HETATM   28  C13 UNL     1      61.427  58.497  54.850  1.00  0.00     0.028 A 
HETATM   29  C14 UNL     1      60.491  58.038  53.807  1.00  0.00     0.028 A 
ENDBRANCH  12  27
TORSDOF 7
ENDMDL
MODEL 2
REMARK VINA RESULT: -7.164078971      2.104      2.575
REMARK  7 active torsions:
REMARK  status: ('A' for Active; 'I' for Inactive)
REMARK    1  A    between atoms: C4_5  and  S2_6 
REMARK    2  A    between atoms: S2_6  and  C5_7 
REMARK    3  A    between atoms: C5_7  and  C6_8 
REMARK    4  A    between atoms: C6_8  and  O1_9 
REMARK    5  A    between atoms: C6_8  and  C7_11 
REMARK    6  A    between atoms: C7_11  and  N1_12 
REMARK    7  A    between atoms: N4_23  and  C12_24 
ROOT
HETATM    1  N1  UNL     1      60.770  59.848  51.066  1.00  0.00    -0.325 N 
HETATM    2  C8  UNL     1      60.312  60.542  49.964  1.00  0.00     0.185 A 
HETATM    3  N2  UNL     1      59.838  61.710  50.343  1.00  0.00    -0.345 N 
ATOM      4  H2  UNL     1      59.441  62.413  49.720  1.00  0.00     0.167 HD
HETATM    5  C9  UNL     1      59.957  61.831  51.651  1.00  0.00     0.147 A 
HETATM    6  C10 UNL     1      59.608  62.791  52.564  1.00  0.00     0.280 A 
HETATM    7  O2  UNL     1      59.082  63.853  52.147  1.00  0.00    -0.265 OA
HETATM    8  N3  UNL     1      59.828  62.597  53.874  1.00  0.00    -0.273 N 
ATOM      9  H3  UNL     1      59.563  63.323  54.539  1.00  0.00     0.173 HD
HETATM   10  C11 UNL     1      60.392  61.460  54.326  1.00  0.00     0.331 A 
HETATM   11  O3  UNL     1      60.543  61.385  55.593  1.00  0.00    -0.246 OA
HETATM   12  N4  UNL     1      60.750  60.496  53.458  1.00  0.00    -0.278 N 
HETATM   13  C15 UNL     1      60.548  60.648  52.111  1.00  0.00     0.148 A 
ENDROOT
BRANCH   1  14
HETATM   14  C7  UNL     1      61.401  58.607  50.938  1.00  0.00     0.164 C 
BRANCH  14  15
HETATM   15  C6  UNL     1      60.420  57.459  50.688  1.00  0.00     0.145 C 
BRANCH  15  16
HETATM   16  C5  UNL     1      61.063  56.248  50.122  1.00  0.00     0.108 C 
BRANCH  16  17
HETATM   17  S2  UNL     1      62.453  56.560  49.037  1.00  0.00    -0.149 SA
BRANCH  17  18
HETATM   18  C4  UNL     1      61.958  56.903  47.345  1.00  0.00     0.131 C 
HETATM   19  S1  UNL     1      60.594  55.790  46.819  1.00  0.00    -0.147 SA
HETATM   20  C3  UNL     1      59.484  57.067  46.094  1.00  0.00     0.110 C 
HETATM   21  C2  UNL     1      60.449  58.188  45.989  1.00  0.00    -0.060 C 
HETATM   22  C1  UNL     1      60.573  59.004  44.964  1.00  0.00     0.016 C 
HETATM   23  C16 UNL     1      61.257  58.240  47.228  1.00  0.00     0.134 C 
HETATM   24 CL1  UNL     1      62.394  59.588  47.197  1.00  0.00    -0.118 Cl
ENDBRANCH  17  18
ENDBRANCH  16  17
ENDBRANCH  15  16
BRANCH  15  25
HETATM   25  O1  UNL     1      59.276  57.762  50.042  1.00  0.00    -0.393 OA
ATOM     26  H1  UNL     1      58.657  58.200  50.615  1.00  0.00     0.210 HD
ENDBRANCH  15  25
ENDBRANCH  14  15
ENDBRANCH   1  14
BRANCH  12  27
HETATM   27  C12 UNL     1      61.302  59.291  53.961  1.00  0.00     0.096 A 
HETATM   28  C13 UNL     1      61.193  58.707  55.294  1.00  0.00     0.028 A 
HETATM   29  C14 UNL     1      60.359  58.115  54.232  1.00  0.00     0.028 A 
ENDBRANCH  12  27
TORSDOF 7
ENDMDL
MODEL 3
REMARK VINA RESULT: -7.154898399      1.794      3.177
REMARK  7 active torsions:
REMARK  status: ('A' for Active; 'I' for Inactive)
REMARK    1  A    between atoms: C4_5  and  S2_6 
REMARK    2  A    between atoms: S2_6  and  C5_7 
REMARK    3  A    between atoms: C5_7  and  C6_8 
REMARK    4  A    between atoms: C6_8  and  O1_9 
REMARK    5  A    between atoms: C6_8  and  C7_11 
REMARK    6  A    between atoms: C7_11  and  N1_12 
REMARK    7  A    between atoms: N4_23  and  C12_24 
ROOT
HETATM    1  N1  UNL     1      60.838  59.921  51.468  1.00  0.00    -0.325 N 
HETATM    2  C8  UNL     1      60.916  58.544  51.514  1.00  0.00     0.185 A 
HETATM    3  N2  UNL     1      60.710  58.130  52.746  1.00  0.00    -0.345 N 
ATOM      4  H2  UNL     1      60.713  57.156  53.048  1.00  0.00     0.167 HD
HETATM    5  C9  UNL     1      60.498  59.169  53.530  1.00  0.00     0.147 A 
HETATM    6  C10 UNL     1      60.272  59.332  54.871  1.00  0.00     0.280 A 
HETATM    7  O2  UNL     1      60.194  58.309  55.596  1.00  0.00    -0.265 OA
HETATM    8  N3  UNL     1      60.136  60.561  55.395  1.00  0.00    -0.273 N 
ATOM      9  H3  UNL     1      59.966  60.663  56.396  1.00  0.00     0.173 HD
HETATM   10  C11 UNL     1      60.218  61.662  54.622  1.00  0.00     0.331 A 
HETATM   11  O3  UNL     1      60.081  62.776  55.233  1.00  0.00    -0.246 OA
HETATM   12  N4  UNL     1      60.437  61.540  53.300  1.00  0.00    -0.278 N 
HETATM   13  C15 UNL     1      60.581  60.308  52.719  1.00  0.00     0.148 A 
ENDROOT
BRANCH   1  14
HETATM   14  C7  UNL     1      60.938  60.619  50.260  1.00  0.00     0.164 C 
BRANCH  14  15
HETATM   15  C6  UNL     1      60.309  59.871  49.082  1.00  0.00     0.145 C 
BRANCH  15  16
HETATM   16  C5  UNL     1      61.293  59.459  48.052  1.00  0.00     0.108 C 
BRANCH  16  17
HETATM   17  S2  UNL     1      60.625  58.478  46.711  1.00  0.00    -0.149 SA
BRANCH  17  18
HETATM   18  C4  UNL     1      60.400  56.751  47.151  1.00  0.00     0.131 C 
HETATM   19  S1  UNL     1      61.663  56.211  48.370  1.00  0.00    -0.147 SA
HETATM   20  C3  UNL     1      60.533  55.380  49.562  1.00  0.00     0.110 C 
HETATM   21  C2  UNL     1      59.326  55.271  48.707  1.00  0.00    -0.060 C 
HETATM   22  C1  UNL     1      58.542  54.219  48.612  1.00  0.00     0.016 C 
HETATM   23  C16 UNL     1      59.145  56.543  47.973  1.00  0.00     0.134 C 
HETATM   24 CL1  UNL     1      57.693  56.506  46.973  1.00  0.00    -0.118 Cl
ENDBRANCH  17  18
ENDBRANCH  16  17
ENDBRANCH  15  16
BRANCH  15  25
HETATM   25  O1  UNL     1      59.209  60.419  48.527  1.00  0.00    -0.393 OA
ATOM     26  H1  UNL     1      58.523  60.554  49.171  1.00  0.00     0.210 HD
ENDBRANCH  15  25
ENDBRANCH  14  15
ENDBRANCH   1  14
BRANCH  12  27
HETATM   27  C12 UNL     1      60.563  62.714  52.515  1.00  0.00     0.096 A 
HETATM   28  C13 UNL     1      59.674  63.238  51.483  1.00  0.00     0.028 A 
HETATM   29  C14 UNL     1      59.623  63.889  52.805  1.00  0.00     0.028 A 
ENDBRANCH  12  27
TORSDOF 7
ENDMDL
MODEL 4
REMARK VINA RESULT: -7.075553820      1.383      1.650
REMARK  7 active torsions:
REMARK  status: ('A' for Active; 'I' for Inactive)
REMARK    1  A    between atoms: C4_5  and  S2_6 
REMARK    2  A    between atoms: S2_6  and  C5_7 
REMARK    3  A    between atoms: C5_7  and  C6_8 
REMARK    4  A    between atoms: C6_8  and  O1_9 
REMARK    5  A    between atoms: C6_8  and  C7_11 
REMARK    6  A    between atoms: C7_11  and  N1_12 
REMARK    7  A    between atoms: N4_23  and  C12_24 
ROOT
HETATM    1  N1  UNL     1      60.725  59.842  50.985  1.00  0.00    -0.325 N 
HETATM    2  C8  UNL     1      60.241  60.606  49.943  1.00  0.00     0.185 A 
HETATM    3  N2  UNL     1      59.808  61.760  50.404  1.00  0.00    -0.345 N 
ATOM      4  H2  UNL     1      59.403  62.505  49.837  1.00  0.00     0.167 HD
HETATM    5  C9  UNL     1      59.979  61.804  51.711  1.00  0.00     0.147 A 
HETATM    6  C10 UNL     1      59.686  62.717  52.689  1.00  0.00     0.280 A 
HETATM    7  O2  UNL     1      59.168  63.811  52.353  1.00  0.00    -0.265 OA
HETATM    8  N3  UNL     1      59.950  62.445  53.976  1.00  0.00    -0.273 N 
ATOM      9  H3  UNL     1      59.726  63.137  54.691  1.00  0.00     0.173 HD
HETATM   10  C11 UNL     1      60.506  61.273  54.342  1.00  0.00     0.331 A 
HETATM   11  O3  UNL     1      60.703  61.123  55.596  1.00  0.00    -0.246 OA
HETATM   12  N4  UNL     1      60.809  60.353  53.408  1.00  0.00    -0.278 N 
HETATM   13  C15 UNL     1      60.560  60.585  52.081  1.00  0.00     0.148 A 
ENDROOT
BRANCH   1  14
HETATM   14  C7  UNL     1      61.323  58.597  50.763  1.00  0.00     0.164 C 
BRANCH  14  15
HETATM   15  C6  UNL     1      61.539  58.292  49.279  1.00  0.00     0.145 C 
BRANCH  15  16
HETATM   16  C5  UNL     1      60.823  57.078  48.817  1.00  0.00     0.108 C 
BRANCH  16  17
HETATM   17  S2  UNL     1      59.123  57.341  48.318  1.00  0.00    -0.149 SA
BRANCH  17  18
HETATM   18  C4  UNL     1      58.476  56.005  47.306  1.00  0.00     0.131 C 
HETATM   19  S1  UNL     1      58.657  56.386  45.517  1.00  0.00    -0.147 SA
HETATM   20  C3  UNL     1      59.383  54.781  44.984  1.00  0.00     0.110 C 
HETATM   21  C2  UNL     1      59.062  53.966  46.181  1.00  0.00    -0.060 C 
HETATM   22  C1  UNL     1      58.600  52.734  46.173  1.00  0.00     0.016 C 
HETATM   23  C16 UNL     1      59.344  54.767  47.394  1.00  0.00     0.134 C 
HETATM   24 CL1  UNL     1      59.035  53.841  48.861  1.00  0.00    -0.118 Cl
ENDBRANCH  17  18
ENDBRANCH  16  17
ENDBRANCH  15  16
BRANCH  15  25
HETATM   25  O1  UNL     1      62.809  58.322  48.826  1.00  0.00    -0.393 OA
ATOM     26  H1  UNL     1      63.433  58.378  49.540  1.00  0.00     0.210 HD
ENDBRANCH  15  25
ENDBRANCH  14  15
ENDBRANCH   1  14
BRANCH  12  27
HETATM   27  C12 UNL     1      61.353  59.110  53.821  1.00  0.00     0.096 A 
HETATM   28  C13 UNL     1      61.298  58.464  55.129  1.00  0.00     0.028 A 
HETATM   29  C14 UNL     1      60.393  57.947  54.086  1.00  0.00     0.028 A 
ENDBRANCH  12  27
TORSDOF 7
ENDMDL
MODEL 5
REMARK VINA RESULT: -7.042977097      1.698      2.375
REMARK  7 active torsions:
REMARK  status: ('A' for Active; 'I' for Inactive)
REMARK    1  A    between atoms: C4_5  and  S2_6 
REMARK    2  A    between atoms: S2_6  and  C5_7 
REMARK    3  A    between atoms: C5_7  and  C6_8 
REMARK    4  A    between atoms: C6_8  and  O1_9 
REMARK    5  A    between atoms: C6_8  and  C7_11 
REMARK    6  A    between atoms: C7_11  and  N1_12 
REMARK    7  A    between atoms: N4_23  and  C12_24 
ROOT
HETATM    1  N1  UNL     1      60.708  59.934  51.141  1.00  0.00    -0.325 N 
HETATM    2  C8  UNL     1      60.246  60.587  50.016  1.00  0.00     0.185 A 
HETATM    3  N2  UNL     1      59.804  61.781  50.348  1.00  0.00    -0.345 N 
ATOM      4  H2  UNL     1      59.411  62.464  49.700  1.00  0.00     0.167 HD
HETATM    5  C9  UNL     1      59.947  61.959  51.647  1.00  0.00     0.147 A 
HETATM    6  C10 UNL     1      59.635  62.966  52.521  1.00  0.00     0.280 A 
HETATM    7  O2  UNL     1      59.125  64.020  52.065  1.00  0.00    -0.265 OA
HETATM    8  N3  UNL     1      59.873  62.827  53.834  1.00  0.00    -0.273 N 
ATOM      9  H3  UNL     1      59.635  63.589  54.470  1.00  0.00     0.173 HD
HETATM   10  C11 UNL     1      60.420  61.699  54.329  1.00  0.00     0.331 A 
HETATM   11  O3  UNL     1      60.591  61.679  55.595  1.00  0.00    -0.246 OA
HETATM   12  N4  UNL     1      60.743  60.689  53.500  1.00  0.00    -0.278 N 
HETATM   13  C15 UNL     1      60.521  60.784  52.152  1.00  0.00     0.148 A 
ENDROOT
BRANCH   1  14
HETATM   14  C7  UNL     1      61.310  58.675  51.059  1.00  0.00     0.164 C 
BRANCH  14  15
HETATM   15  C6  UNL     1      61.579  58.231  49.619  1.00  0.00     0.145 C 
BRANCH  15  16
HETATM   16  C5  UNL     1      61.209  56.819  49.358  1.00  0.00     0.108 C 
BRANCH  16  17
HETATM   17  S2  UNL     1      59.571  56.575  48.675  1.00  0.00    -0.149 SA
BRANCH  17  18
HETATM   18  C4  UNL     1      59.431  57.134  46.974  1.00  0.00     0.131 C 
HETATM   19  S1  UNL     1      58.858  58.878  46.898  1.00  0.00    -0.147 SA
HETATM   20  C3  UNL     1      60.107  59.508  45.701  1.00  0.00     0.110 C 
HETATM   21  C2  UNL     1      60.614  58.213  45.184  1.00  0.00    -0.060 C 
HETATM   22  C1  UNL     1      60.865  57.933  43.924  1.00  0.00     0.016 C 
HETATM   23  C16 UNL     1      60.789  57.282  46.321  1.00  0.00     0.134 C 
HETATM   24 CL1  UNL     1      61.443  55.734  45.787  1.00  0.00    -0.118 Cl
ENDBRANCH  17  18
ENDBRANCH  16  17
ENDBRANCH  15  16
BRANCH  15  25
HETATM   25  O1  UNL     1      62.788  58.531  49.102  1.00  0.00    -0.393 OA
ATOM     26  H1  UNL     1      62.848  59.449  48.863  1.00  0.00     0.210 HD
ENDBRANCH  15  25
ENDBRANCH  14  15
ENDBRANCH   1  14
BRANCH  12  27
HETATM   27  C12 UNL     1      61.277  59.497  54.049  1.00  0.00     0.096 A 
HETATM   28  C13 UNL     1      61.127  58.946  55.392  1.00  0.00     0.028 A 
HETATM   29  C14 UNL     1      60.324  58.329  54.320  1.00  0.00     0.028 A 
ENDBRANCH  12  27
TORSDOF 7
ENDMDL
