MODEL 1
REMARK VINA RESULT: -6.483669646      0.000      0.000
REMARK  7 active torsions:
REMARK  status: ('A' for Active; 'I' for Inactive)
REMARK    1  A    between atoms: C2_2  and  O1_3 
REMARK    2  A    between atoms: C2_2  and  C3_5 
REMARK    3  A    between atoms: C2_2  and  C4_7 
REMARK    4  A    between atoms: C4_7  and  O3_9 
REMARK    5  A    between atoms: O3_9  and  C5_10 
REMARK    6  A    between atoms: C9_16  and  C10_18 
REMARK    7  A    between atoms: C15_25  and  C17_27 
ROOT
HETATM    1  C5  UNL     1      60.002  56.774  46.676  1.00  0.00     0.299 C 
HETATM    2  O4  UNL     1      59.593  58.096  46.833  1.00  0.00    -0.355 OA
HETATM    3  C6  UNL     1      60.676  58.894  46.544  1.00  0.00     0.211 C 
HETATM    4  C7  UNL     1      61.563  59.157  47.734  1.00  0.00     0.109 C 
HETATM    5  C8  UNL     1      62.524  60.256  47.323  1.00  0.00     0.051 C 
HETATM    6  O5  UNL     1      60.856  59.583  48.832  1.00  0.00    -0.332 OA
HETATM    7  C9  UNL     1      61.380  58.941  49.953  1.00  0.00     0.233 C 
HETATM    8  F1  UNL     1      62.579  59.628  50.221  1.00  0.00    -0.206 F 
HETATM    9  C12 UNL     1      61.759  57.604  49.474  1.00  0.00     0.107 C 
HETATM   10  C13 UNL     1      62.397  57.970  48.124  1.00  0.00     0.169 C 
HETATM   11  O6  UNL     1      62.234  56.865  47.356  1.00  0.00    -0.371 OA
HETATM   12  C14 UNL     1      60.993  56.309  47.680  1.00  0.00     0.193 C 
HETATM   13  C15 UNL     1      60.714  56.636  49.114  1.00  0.00     0.052 C 
HETATM   14  C16 UNL     1      59.310  57.011  49.418  1.00  0.00     0.026 C 
ENDROOT
BRANCH   1  15
HETATM   15  O3  UNL     1      58.917  55.889  46.503  1.00  0.00    -0.285 OA
BRANCH  15  16
HETATM   16  C4  UNL     1      59.069  54.646  45.908  1.00  0.00     0.296 C 
HETATM   17  O2  UNL     1      59.782  54.585  44.864  1.00  0.00    -0.262 OA
BRANCH  16  18
HETATM   18  C2  UNL     1      58.468  53.402  46.395  1.00  0.00     0.150 C 
HETATM   19  C1  UNL     1      58.847  52.194  45.588  1.00  0.00     0.057 C 
BRANCH  18  20
HETATM   20  O1  UNL     1      58.900  53.196  47.713  1.00  0.00    -0.379 OA
ATOM     21  H1  UNL     1      58.267  53.597  48.297  1.00  0.00     0.211 HD
ENDBRANCH  18  20
BRANCH  18  22
HETATM   22  C3  UNL     1      56.960  53.473  46.439  1.00  0.00     0.134 C 
HETATM   23  S1  UNL     1      56.171  52.513  45.149  1.00  0.00    -0.094 SA
ENDBRANCH  18  22
ENDBRANCH  16  18
ENDBRANCH  15  16
ENDBRANCH   1  15
BRANCH  13  24
HETATM   24  C17 UNL     1      60.982  55.382  49.886  1.00  0.00     0.243 C 
HETATM   25  O7  UNL     1      60.143  54.508  49.951  1.00  0.00    -0.306 OA
ENDBRANCH  13  24
BRANCH   7  26
HETATM   26  C10 UNL     1      60.565  59.044  51.141  1.00  0.00     0.058 C 
HETATM   27  C11 UNL     1      61.036  58.703  52.329  1.00  0.00     0.086 C 
HETATM   28 CL1  UNL     1      60.039  58.828  53.792  1.00  0.00    -0.097 Cl
ENDBRANCH   7  26
TORSDOF 7
ENDMDL
MODEL 2
REMARK VINA RESULT: -6.432073280      4.218      7.080
REMARK  7 active torsions:
REMARK  status: ('A' for Active; 'I' for Inactive)
REMARK    1  A    between atoms: C2_2  and  O1_3 
REMARK    2  A    between atoms: C2_2  and  C3_5 
REMARK    3  A    between atoms: C2_2  and  C4_7 
REMARK    4  A    between atoms: C4_7  and  O3_9 
REMARK    5  A    between atoms: O3_9  and  C5_10 
REMARK    6  A    between atoms: C9_16  and  C10_18 
REMARK    7  A    between atoms: C15_25  and  C17_27 
ROOT
HETATM    1  C5  UNL     1      61.201  58.195  51.299  1.00  0.00     0.299 C 
HETATM    2  O4  UNL     1      59.825  57.980  51.301  1.00  0.00    -0.355 OA
HETATM    3  C6  UNL     1      59.602  56.773  50.681  1.00  0.00     0.211 C 
HETATM    4  C7  UNL     1      59.457  56.882  49.185  1.00  0.00     0.109 C 
HETATM    5  C8  UNL     1      58.943  55.539  48.700  1.00  0.00     0.051 C 
HETATM    6  O5  UNL     1      58.561  57.854  48.813  1.00  0.00    -0.332 OA
HETATM    7  C9  UNL     1      59.097  58.536  47.723  1.00  0.00     0.233 C 
HETATM    8  F1  UNL     1      58.898  57.667  46.634  1.00  0.00    -0.206 F 
HETATM    9  C12 UNL     1      60.544  58.566  47.977  1.00  0.00     0.107 C 
HETATM   10  C13 UNL     1      60.762  57.130  48.482  1.00  0.00     0.169 C 
HETATM   11  O6  UNL     1      61.851  57.209  49.285  1.00  0.00    -0.371 OA
HETATM   12  C14 UNL     1      61.788  58.434  49.956  1.00  0.00     0.193 C 
HETATM   13  C15 UNL     1      61.075  59.401  49.063  1.00  0.00     0.052 C 
HETATM   14  C16 UNL     1      60.122  60.311  49.746  1.00  0.00     0.026 C 
ENDROOT
BRANCH   1  15
HETATM   15  O3  UNL     1      61.602  59.141  52.266  1.00  0.00    -0.285 OA
BRANCH  15  16
HETATM   16  C4  UNL     1      61.137  59.102  53.571  1.00  0.00     0.296 C 
HETATM   17  O2  UNL     1      61.201  57.993  54.178  1.00  0.00    -0.262 OA
BRANCH  16  18
HETATM   18  C2  UNL     1      60.580  60.245  54.299  1.00  0.00     0.150 C 
HETATM   19  C1  UNL     1      59.397  59.893  55.155  1.00  0.00     0.057 C 
BRANCH  18  20
HETATM   20  O1  UNL     1      61.581  60.761  55.133  1.00  0.00    -0.379 OA
ATOM     21  H1  UNL     1      61.198  61.450  55.662  1.00  0.00     0.211 HD
ENDBRANCH  18  20
BRANCH  18  22
HETATM   22  C3  UNL     1      60.163  61.365  53.375  1.00  0.00     0.134 C 
HETATM   23  S1  UNL     1      59.863  62.910  54.228  1.00  0.00    -0.094 SA
ENDBRANCH  18  22
ENDBRANCH  16  18
ENDBRANCH  15  16
ENDBRANCH   1  15
BRANCH  13  24
HETATM   24  C17 UNL     1      62.134  60.280  48.474  1.00  0.00     0.243 C 
HETATM   25  O7  UNL     1      63.023  60.723  49.169  1.00  0.00    -0.306 OA
ENDBRANCH  13  24
BRANCH   7  26
HETATM   26  C10 UNL     1      58.427  59.773  47.398  1.00  0.00     0.058 C 
HETATM   27  C11 UNL     1      57.107  59.849  47.352  1.00  0.00     0.086 C 
HETATM   28 CL1  UNL     1      56.278  61.367  46.954  1.00  0.00    -0.097 Cl
ENDBRANCH   7  26
TORSDOF 7
ENDMDL
MODEL 3
REMARK VINA RESULT: -6.307201472      4.187      6.527
REMARK  7 active torsions:
REMARK  status: ('A' for Active; 'I' for Inactive)
REMARK    1  A    between atoms: C2_2  and  O1_3 
REMARK    2  A    between atoms: C2_2  and  C3_5 
REMARK    3  A    between atoms: C2_2  and  C4_7 
REMARK    4  A    between atoms: C4_7  and  O3_9 
REMARK    5  A    between atoms: O3_9  and  C5_10 
REMARK    6  A    between atoms: C9_16  and  C10_18 
REMARK    7  A    between atoms: C15_25  and  C17_27 
ROOT
HETATM    1  C5  UNL     1      60.509  58.565  50.066  1.00  0.00     0.299 C 
HETATM    2  O4  UNL     1      61.267  59.223  49.100  1.00  0.00    -0.355 OA
HETATM    3  C6  UNL     1      60.385  59.822  48.231  1.00  0.00     0.211 C 
HETATM    4  C7  UNL     1      59.951  58.925  47.101  1.00  0.00     0.109 C 
HETATM    5  C8  UNL     1      59.226  59.807  46.102  1.00  0.00     0.051 C 
HETATM    6  O5  UNL     1      61.012  58.327  46.467  1.00  0.00    -0.332 OA
HETATM    7  C9  UNL     1      60.666  57.001  46.211  1.00  0.00     0.233 C 
HETATM    8  F1  UNL     1      59.799  57.073  45.105  1.00  0.00    -0.206 F 
HETATM    9  C12 UNL     1      59.845  56.602  47.363  1.00  0.00     0.107 C 
HETATM   10  C13 UNL     1      58.981  57.861  47.531  1.00  0.00     0.169 C 
HETATM   11  O6  UNL     1      58.644  57.875  48.844  1.00  0.00    -0.371 OA
HETATM   12  C14 UNL     1      59.743  57.396  49.563  1.00  0.00     0.193 C 
HETATM   13  C15 UNL     1      60.473  56.432  48.681  1.00  0.00     0.052 C 
HETATM   14  C16 UNL     1      61.955  56.513  48.741  1.00  0.00     0.026 C 
ENDROOT
BRANCH   1  15
HETATM   15  O3  UNL     1      61.245  58.293  51.239  1.00  0.00    -0.285 OA
BRANCH  15  16
HETATM   16  C4  UNL     1      60.642  58.214  52.485  1.00  0.00     0.296 C 
HETATM   17  O2  UNL     1      59.951  57.183  52.731  1.00  0.00    -0.262 OA
BRANCH  16  18
HETATM   18  C2  UNL     1      60.744  59.231  53.535  1.00  0.00     0.150 C 
HETATM   19  C1  UNL     1      59.793  59.015  54.675  1.00  0.00     0.057 C 
BRANCH  18  20
HETATM   20  O1  UNL     1      62.049  59.200  54.045  1.00  0.00    -0.379 OA
ATOM     21  H1  UNL     1      62.644  59.457  53.350  1.00  0.00     0.211 HD
ENDBRANCH  18  20
BRANCH  18  22
HETATM   22  C3  UNL     1      60.518  60.627  53.004  1.00  0.00     0.134 C 
HETATM   23  S1  UNL     1      60.046  61.798  54.273  1.00  0.00    -0.094 SA
ENDBRANCH  18  22
ENDBRANCH  16  18
ENDBRANCH  15  16
ENDBRANCH   1  15
BRANCH  13  24
HETATM   24  C17 UNL     1      60.115  55.065  49.174  1.00  0.00     0.243 C 
HETATM   25  O7  UNL     1      60.339  54.747  50.323  1.00  0.00    -0.306 OA
ENDBRANCH  13  24
BRANCH   7  26
HETATM   26  C10 UNL     1      61.771  56.155  45.823  1.00  0.00     0.058 C 
HETATM   27  C11 UNL     1      61.896  55.715  44.583  1.00  0.00     0.086 C 
HETATM   28 CL1  UNL     1      63.251  54.675  44.100  1.00  0.00    -0.097 Cl
ENDBRANCH   7  26
TORSDOF 7
ENDMDL
MODEL 4
REMARK VINA RESULT: -6.260912187      1.349      1.851
REMARK  7 active torsions:
REMARK  status: ('A' for Active; 'I' for Inactive)
REMARK    1  A    between atoms: C2_2  and  O1_3 
REMARK    2  A    between atoms: C2_2  and  C3_5 
REMARK    3  A    between atoms: C2_2  and  C4_7 
REMARK    4  A    between atoms: C4_7  and  O3_9 
REMARK    5  A    between atoms: O3_9  and  C5_10 
REMARK    6  A    between atoms: C9_16  and  C10_18 
REMARK    7  A    between atoms: C15_25  and  C17_27 
ROOT
HETATM    1  C5  UNL     1      60.031  56.475  46.488  1.00  0.00     0.299 C 
HETATM    2  O4  UNL     1      58.889  56.664  47.264  1.00  0.00    -0.355 OA
HETATM    3  C6  UNL     1      58.536  57.988  47.151  1.00  0.00     0.211 C 
HETATM    4  C7  UNL     1      59.216  58.881  48.155  1.00  0.00     0.109 C 
HETATM    5  C8  UNL     1      58.517  60.226  48.084  1.00  0.00     0.051 C 
HETATM    6  O5  UNL     1      59.113  58.402  49.439  1.00  0.00    -0.332 OA
HETATM    7  C9  UNL     1      60.345  58.584  50.063  1.00  0.00     0.233 C 
HETATM    8  F1  UNL     1      60.381  59.956  50.375  1.00  0.00    -0.206 F 
HETATM    9  C12 UNL     1      61.337  58.368  49.001  1.00  0.00     0.107 C 
HETATM   10  C13 UNL     1      60.665  59.124  47.844  1.00  0.00     0.169 C 
HETATM   11  O6  UNL     1      61.130  58.521  46.723  1.00  0.00    -0.371 OA
HETATM   12  C14 UNL     1      61.248  57.156  47.000  1.00  0.00     0.193 C 
HETATM   13  C15 UNL     1      61.542  57.017  48.460  1.00  0.00     0.052 C 
HETATM   14  C16 UNL     1      60.844  55.900  49.145  1.00  0.00     0.026 C 
ENDROOT
BRANCH   1  15
HETATM   15  O3  UNL     1      60.241  55.120  46.155  1.00  0.00    -0.285 OA
BRANCH  15  16
HETATM   16  C4  UNL     1      59.261  54.350  45.549  1.00  0.00     0.296 C 
HETATM   17  O2  UNL     1      58.990  54.601  44.339  1.00  0.00    -0.262 OA
BRANCH  16  18
HETATM   18  C2  UNL     1      58.517  53.270  46.203  1.00  0.00     0.150 C 
HETATM   19  C1  UNL     1      58.602  51.957  45.480  1.00  0.00     0.057 C 
BRANCH  18  20
HETATM   20  O1  UNL     1      59.046  53.094  47.489  1.00  0.00    -0.379 OA
ATOM     21  H1  UNL     1      59.277  53.948  47.832  1.00  0.00     0.211 HD
ENDBRANCH  18  20
BRANCH  18  22
HETATM   22  C3  UNL     1      57.054  53.606  46.377  1.00  0.00     0.134 C 
HETATM   23  S1  UNL     1      55.985  52.712  45.253  1.00  0.00    -0.094 SA
ENDBRANCH  18  22
ENDBRANCH  16  18
ENDBRANCH  15  16
ENDBRANCH   1  15
BRANCH  13  24
HETATM   24  C17 UNL     1      63.005  56.712  48.562  1.00  0.00     0.243 C 
HETATM   25  O7  UNL     1      63.562  56.076  47.693  1.00  0.00    -0.306 OA
ENDBRANCH  13  24
BRANCH   7  26
HETATM   26  C10 UNL     1      60.499  57.868  51.309  1.00  0.00     0.058 C 
HETATM   27  C11 UNL     1      60.620  58.509  52.459  1.00  0.00     0.086 C 
HETATM   28 CL1  UNL     1      60.809  57.635  53.993  1.00  0.00    -0.097 Cl
ENDBRANCH   7  26
TORSDOF 7
ENDMDL
MODEL 5
REMARK VINA RESULT: -6.214256072      1.561      2.240
REMARK  7 active torsions:
REMARK  status: ('A' for Active; 'I' for Inactive)
REMARK    1  A    between atoms: C2_2  and  O1_3 
REMARK    2  A    between atoms: C2_2  and  C3_5 
REMARK    3  A    between atoms: C2_2  and  C4_7 
REMARK    4  A    between atoms: C4_7  and  O3_9 
REMARK    5  A    between atoms: O3_9  and  C5_10 
REMARK    6  A    between atoms: C9_16  and  C10_18 
REMARK    7  A    between atoms: C15_25  and  C17_27 
ROOT
HETATM    1  C5  UNL     1      59.864  56.292  46.779  1.00  0.00     0.299 C 
HETATM    2  O4  UNL     1      58.778  56.567  47.605  1.00  0.00    -0.355 OA
HETATM    3  C6  UNL     1      58.457  57.893  47.426  1.00  0.00     0.211 C 
HETATM    4  C7  UNL     1      59.222  58.824  48.331  1.00  0.00     0.109 C 
HETATM    5  C8  UNL     1      58.561  60.184  48.212  1.00  0.00     0.051 C 
HETATM    6  O5  UNL     1      59.181  58.431  49.646  1.00  0.00    -0.332 OA
HETATM    7  C9  UNL     1      60.453  58.609  50.186  1.00  0.00     0.233 C 
HETATM    8  F1  UNL     1      60.549  59.997  50.405  1.00  0.00    -0.206 F 
HETATM    9  C12 UNL     1      61.374  58.294  49.084  1.00  0.00     0.107 C 
HETATM   10  C13 UNL     1      60.657  58.998  47.921  1.00  0.00     0.169 C 
HETATM   11  O6  UNL     1      61.037  58.311  46.817  1.00  0.00    -0.371 OA
HETATM   12  C14 UNL     1      61.129  56.963  47.174  1.00  0.00     0.193 C 
HETATM   13  C15 UNL     1      61.506  56.905  48.622  1.00  0.00     0.052 C 
HETATM   14  C16 UNL     1      60.816  55.858  49.417  1.00  0.00     0.026 C 
ENDROOT
BRANCH   1  15
HETATM   15  O3  UNL     1      60.014  54.912  46.522  1.00  0.00    -0.285 OA
BRANCH  15  16
HETATM   16  C4  UNL     1      58.951  54.028  46.608  1.00  0.00     0.296 C 
HETATM   17  O2  UNL     1      58.842  53.351  47.672  1.00  0.00    -0.262 OA
BRANCH  16  18
HETATM   18  C2  UNL     1      57.946  53.817  45.563  1.00  0.00     0.150 C 
HETATM   19  C1  UNL     1      56.799  52.951  45.997  1.00  0.00     0.057 C 
BRANCH  18  20
HETATM   20  O1  UNL     1      57.431  55.068  45.196  1.00  0.00    -0.379 OA
ATOM     21  H1  UNL     1      57.281  55.569  45.989  1.00  0.00     0.211 HD
ENDBRANCH  18  20
BRANCH  18  22
HETATM   22  C3  UNL     1      58.537  53.208  44.314  1.00  0.00     0.134 C 
HETATM   23  S1  UNL     1      59.169  51.551  44.567  1.00  0.00    -0.094 SA
ENDBRANCH  18  22
ENDBRANCH  16  18
ENDBRANCH  15  16
ENDBRANCH   1  15
BRANCH  13  24
HETATM   24  C17 UNL     1      62.962  56.559  48.659  1.00  0.00     0.243 C 
HETATM   25  O7  UNL     1      63.532  56.190  47.654  1.00  0.00    -0.306 OA
ENDBRANCH  13  24
BRANCH   7  26
HETATM   26  C10 UNL     1      60.660  57.969  51.464  1.00  0.00     0.058 C 
HETATM   27  C11 UNL     1      60.695  58.669  52.586  1.00  0.00     0.086 C 
HETATM   28 CL1  UNL     1      60.948  57.887  54.159  1.00  0.00    -0.097 Cl
ENDBRANCH   7  26
TORSDOF 7
ENDMDL
