MODEL 1
REMARK VINA RESULT: -7.879250852      0.000      0.000
REMARK  7 active torsions:
REMARK  status: ('A' for Active; 'I' for Inactive)
REMARK    1  A    between atoms: C2_2  and  C4_4 
REMARK    2  A    between atoms: C4_4  and  N1_5 
REMARK    3  A    between atoms: N1_5  and  C5_7 
REMARK    4  A    between atoms: C5_7  and  C6_12 
REMARK    5  A    between atoms: N2_8  and  O1_10 
REMARK    6  A    between atoms: C9_15  and  N3_16 
REMARK    7  A    between atoms: C16_25  and  N5_26 
ROOT
HETATM    1  C6  UNL     1       2.101  37.176  -2.340  1.00  0.00     0.053 A 
HETATM    2  C7  UNL     1       1.856  35.832  -2.472  1.00  0.00     0.041 A 
HETATM    3  C8  UNL     1       1.298  35.409  -3.623  1.00  0.00     0.044 A 
HETATM    4  C9  UNL     1       0.955  34.091  -3.976  1.00  0.00     0.132 A 
HETATM    5  N4  UNL     1       0.400  33.870  -5.186  1.00  0.00    -0.176 N 
ATOM      6  H4  UNL     1       0.163  32.906  -5.419  1.00  0.00     0.186 HD
HETATM    7  C16 UNL     1       0.137  34.791  -6.098  1.00  0.00     0.678 A 
HETATM    8  N6  UNL     1       0.458  36.063  -5.775  1.00  0.00    -0.185 N 
ATOM      9  H6  UNL     1       0.275  36.812  -6.443  1.00  0.00     0.185 HD
HETATM   10  C17 UNL     1       1.025  36.363  -4.564  1.00  0.00     0.105 A 
HETATM   11  S1  UNL     1       1.546  37.804  -3.824  1.00  0.00    -0.067 SA
ENDROOT
BRANCH   1  12
HETATM   12  C5  UNL     1       2.686  37.855  -1.173  1.00  0.00     0.138 C 
HETATM   13  N2  UNL     1       1.969  38.701  -0.524  1.00  0.00    -0.252 N 
ATOM     14  H2  UNL     1       2.433  39.130   0.276  1.00  0.00     0.196 HD
BRANCH  12  15
HETATM   15  N1  UNL     1       4.019  37.566  -0.780  1.00  0.00    -0.373 N 
ATOM     16  H1  UNL     1       4.793  38.098  -1.176  1.00  0.00     0.161 HD
BRANCH  15  17
HETATM   17  C4  UNL     1       4.279  36.526   0.175  1.00  0.00     0.125 C 
BRANCH  17  18
HETATM   18  C2  UNL     1       5.038  35.377  -0.503  1.00  0.00    -0.005 C 
HETATM   19  C1  UNL     1       6.245  35.049   0.355  1.00  0.00     0.011 C 
HETATM   20  C3  UNL     1       5.563  35.846  -1.836  1.00  0.00     0.011 C 
ENDBRANCH  17  18
ENDBRANCH  15  17
ENDBRANCH  12  15
BRANCH  13  21
HETATM   21  O1  UNL     1       0.717  39.106  -0.731  1.00  0.00    -0.288 OA
ATOM     22  H1  UNL     1       0.358  39.984  -0.790  1.00  0.00     0.244 HD
ENDBRANCH  13  21
ENDBRANCH   1  12
BRANCH   4  23
HETATM   23  N3  UNL     1       1.134  32.994  -3.110  1.00  0.00    -0.366 N 
HETATM   24  C10 UNL     1       2.429  32.652  -2.573  1.00  0.00     0.124 C 
HETATM   25  C11 UNL     1       2.321  32.365  -1.073  1.00  0.00     0.020 C 
HETATM   26  C12 UNL     1       1.664  30.998  -0.911  1.00  0.00     0.002 C 
HETATM   27  C13 UNL     1       0.229  31.218  -0.515  1.00  0.00     0.002 C 
HETATM   28  C14 UNL     1      -0.399  32.304  -1.329  1.00  0.00     0.020 C 
HETATM   29  C15 UNL     1      -0.087  32.246  -2.788  1.00  0.00     0.124 C 
ENDBRANCH   4  23
BRANCH   7  30
HETATM   30  N5  UNL     1      -0.397  34.485  -7.222  1.00  0.00    -0.234 N 
ATOM     31  H52 UNL     1       0.106  34.571  -8.104  1.00  0.00     0.174 HD
ATOM     32  H51 UNL     1      -1.357  34.144  -7.280  1.00  0.00     0.174 HD
ENDBRANCH   7  30
TORSDOF 7
ENDMDL
MODEL 2
REMARK VINA RESULT: -7.671382687      1.843      2.346
REMARK  7 active torsions:
REMARK  status: ('A' for Active; 'I' for Inactive)
REMARK    1  A    between atoms: C2_2  and  C4_4 
REMARK    2  A    between atoms: C4_4  and  N1_5 
REMARK    3  A    between atoms: N1_5  and  C5_7 
REMARK    4  A    between atoms: C5_7  and  C6_12 
REMARK    5  A    between atoms: N2_8  and  O1_10 
REMARK    6  A    between atoms: C9_15  and  N3_16 
REMARK    7  A    between atoms: C16_25  and  N5_26 
ROOT
HETATM    1  C6  UNL     1       3.746  36.495  -1.055  1.00  0.00     0.053 A 
HETATM    2  C7  UNL     1       2.998  35.452  -1.541  1.00  0.00     0.041 A 
HETATM    3  C8  UNL     1       2.070  35.731  -2.478  1.00  0.00     0.044 A 
HETATM    4  C9  UNL     1       1.194  34.831  -3.110  1.00  0.00     0.132 A 
HETATM    5  N4  UNL     1       0.330  35.310  -4.030  1.00  0.00    -0.176 N 
ATOM      6  H4  UNL     1      -0.294  34.638  -4.475  1.00  0.00     0.186 HD
HETATM    7  C16 UNL     1       0.220  36.573  -4.406  1.00  0.00     0.678 A 
HETATM    8  N6  UNL     1       1.053  37.452  -3.808  1.00  0.00    -0.185 N 
ATOM      9  H6  UNL     1       1.009  38.439  -4.061  1.00  0.00     0.185 HD
HETATM   10  C17 UNL     1       1.957  37.037  -2.865  1.00  0.00     0.105 A 
HETATM   11  S1  UNL     1       3.132  37.829  -1.920  1.00  0.00    -0.067 SA
ENDROOT
BRANCH   1  12
HETATM   12  C5  UNL     1       4.795  36.424  -0.026  1.00  0.00     0.138 C 
HETATM   13  N2  UNL     1       4.466  36.564   1.207  1.00  0.00    -0.252 N 
ATOM     14  H2  UNL     1       5.239  36.497   1.868  1.00  0.00     0.196 HD
BRANCH  12  15
HETATM   15  N1  UNL     1       6.144  36.198  -0.406  1.00  0.00    -0.373 N 
ATOM     16  H1  UNL     1       6.849  36.014   0.307  1.00  0.00     0.161 HD
BRANCH  15  17
HETATM   17  C4  UNL     1       6.518  36.226  -1.791  1.00  0.00     0.125 C 
BRANCH  17  18
HETATM   18  C2  UNL     1       7.829  37.006  -1.959  1.00  0.00    -0.005 C 
HETATM   19  C1  UNL     1       8.661  36.791  -0.709  1.00  0.00     0.011 C 
HETATM   20  C3  UNL     1       7.524  38.481  -2.035  1.00  0.00     0.011 C 
ENDBRANCH  17  18
ENDBRANCH  15  17
ENDBRANCH  12  15
BRANCH  13  21
HETATM   21  O1  UNL     1       3.273  36.782   1.760  1.00  0.00    -0.288 OA
ATOM     22  H1  UNL     1       3.019  37.376   2.456  1.00  0.00     0.244 HD
ENDBRANCH  13  21
ENDBRANCH   1  12
BRANCH   4  23
HETATM   23  N3  UNL     1       1.152  33.456  -2.803  1.00  0.00    -0.366 N 
HETATM   24  C10 UNL     1       2.349  32.707  -2.508  1.00  0.00     0.124 C 
HETATM   25  C11 UNL     1       2.132  31.829  -1.272  1.00  0.00     0.020 C 
HETATM   26  C12 UNL     1       1.252  30.654  -1.689  1.00  0.00     0.002 C 
HETATM   27  C13 UNL     1      -0.142  30.921  -1.190  1.00  0.00     0.002 C 
HETATM   28  C14 UNL     1      -0.547  32.338  -1.440  1.00  0.00     0.020 C 
HETATM   29  C15 UNL     1      -0.188  32.859  -2.793  1.00  0.00     0.124 C 
ENDBRANCH   4  23
BRANCH   7  30
HETATM   30  N5  UNL     1      -0.636  36.936  -5.288  1.00  0.00    -0.234 N 
ATOM     31  H52 UNL     1      -0.759  36.433  -6.166  1.00  0.00     0.174 HD
ATOM     32  H51 UNL     1      -1.232  37.751  -5.147  1.00  0.00     0.174 HD
ENDBRANCH   7  30
TORSDOF 7
ENDMDL
MODEL 3
REMARK VINA RESULT: -7.625945318      2.721      5.293
REMARK  7 active torsions:
REMARK  status: ('A' for Active; 'I' for Inactive)
REMARK    1  A    between atoms: C2_2  and  C4_4 
REMARK    2  A    between atoms: C4_4  and  N1_5 
REMARK    3  A    between atoms: N1_5  and  C5_7 
REMARK    4  A    between atoms: C5_7  and  C6_12 
REMARK    5  A    between atoms: N2_8  and  O1_10 
REMARK    6  A    between atoms: C9_15  and  N3_16 
REMARK    7  A    between atoms: C16_25  and  N5_26 
ROOT
HETATM    1  C6  UNL     1      -0.677  33.116  -4.027  1.00  0.00     0.053 A 
HETATM    2  C7  UNL     1       0.130  34.226  -4.057  1.00  0.00     0.041 A 
HETATM    3  C8  UNL     1       0.466  34.721  -5.265  1.00  0.00     0.044 A 
HETATM    4  C9  UNL     1       1.278  35.836  -5.538  1.00  0.00     0.132 A 
HETATM    5  N4  UNL     1       1.498  36.175  -6.826  1.00  0.00    -0.176 N 
ATOM      6  H4  UNL     1       2.089  36.988  -6.997  1.00  0.00     0.186 HD
HETATM    7  C16 UNL     1       1.016  35.548  -7.885  1.00  0.00     0.678 A 
HETATM    8  N6  UNL     1       0.235  34.473  -7.641  1.00  0.00    -0.185 N 
ATOM      9  H6  UNL     1      -0.162  33.953  -8.424  1.00  0.00     0.185 HD
HETATM   10  C17 UNL     1      -0.032  34.070  -6.359  1.00  0.00     0.105 A 
HETATM   11  S1  UNL     1      -0.942  32.801  -5.681  1.00  0.00    -0.067 SA
ENDROOT
BRANCH   1  12
HETATM   12  C5  UNL     1      -1.152  32.404  -2.829  1.00  0.00     0.138 C 
HETATM   13  N2  UNL     1      -2.360  32.592  -2.435  1.00  0.00    -0.252 N 
ATOM     14  H2  UNL     1      -2.627  32.065  -1.604  1.00  0.00     0.196 HD
BRANCH  12  15
HETATM   15  N1  UNL     1      -0.281  31.524  -2.136  1.00  0.00    -0.373 N 
ATOM     16  H1  UNL     1       0.050  30.674  -2.591  1.00  0.00     0.161 HD
BRANCH  15  17
HETATM   17  C4  UNL     1       0.136  31.829  -0.797  1.00  0.00     0.125 C 
BRANCH  17  18
HETATM   18  C2  UNL     1       1.636  31.546  -0.643  1.00  0.00    -0.005 C 
HETATM   19  C1  UNL     1       2.387  32.537  -1.512  1.00  0.00     0.011 C 
HETATM   20  C3  UNL     1       1.941  30.171  -1.183  1.00  0.00     0.011 C 
ENDBRANCH  17  18
ENDBRANCH  15  17
ENDBRANCH  12  15
BRANCH  13  21
HETATM   21  O1  UNL     1      -3.320  33.368  -2.939  1.00  0.00    -0.288 OA
ATOM     22  H1  UNL     1      -4.231  33.175  -3.123  1.00  0.00     0.244 HD
ENDBRANCH  13  21
ENDBRANCH   1  12
BRANCH   4  23
HETATM   23  N3  UNL     1       1.901  36.597  -4.528  1.00  0.00    -0.366 N 
HETATM   24  C10 UNL     1       1.205  37.652  -3.831  1.00  0.00     0.124 C 
HETATM   25  C11 UNL     1       1.455  37.545  -2.324  1.00  0.00     0.020 C 
HETATM   26  C12 UNL     1       2.878  38.026  -2.057  1.00  0.00     0.002 C 
HETATM   27  C13 UNL     1       3.741  36.814  -1.831  1.00  0.00     0.002 C 
HETATM   28  C14 UNL     1       3.446  35.742  -2.831  1.00  0.00     0.020 C 
HETATM   29  C15 UNL     1       3.291  36.227  -4.235  1.00  0.00     0.124 C 
ENDBRANCH   4  23
BRANCH   7  30
HETATM   30  N5  UNL     1       1.284  35.942  -9.074  1.00  0.00    -0.234 N 
ATOM     31  H52 UNL     1       1.905  36.729  -9.259  1.00  0.00     0.174 HD
ATOM     32  H51 UNL     1       0.880  35.483  -9.891  1.00  0.00     0.174 HD
ENDBRANCH   7  30
TORSDOF 7
ENDMDL
MODEL 4
REMARK VINA RESULT: -7.561583777      3.026      6.859
REMARK  7 active torsions:
REMARK  status: ('A' for Active; 'I' for Inactive)
REMARK    1  A    between atoms: C2_2  and  C4_4 
REMARK    2  A    between atoms: C4_4  and  N1_5 
REMARK    3  A    between atoms: N1_5  and  C5_7 
REMARK    4  A    between atoms: C5_7  and  C6_12 
REMARK    5  A    between atoms: N2_8  and  O1_10 
REMARK    6  A    between atoms: C9_15  and  N3_16 
REMARK    7  A    between atoms: C16_25  and  N5_26 
ROOT
HETATM    1  C6  UNL     1       0.016  33.317  -2.944  1.00  0.00     0.053 A 
HETATM    2  C7  UNL     1       0.456  34.600  -3.151  1.00  0.00     0.041 A 
HETATM    3  C8  UNL     1       1.735  34.881  -2.835  1.00  0.00     0.044 A 
HETATM    4  C9  UNL     1       2.397  36.116  -2.956  1.00  0.00     0.132 A 
HETATM    5  N4  UNL     1       3.691  36.194  -2.582  1.00  0.00    -0.176 N 
ATOM      6  H4  UNL     1       4.149  37.100  -2.681  1.00  0.00     0.186 HD
HETATM    7  C16 UNL     1       4.420  35.202  -2.098  1.00  0.00     0.678 A 
HETATM    8  N6  UNL     1       3.800  34.009  -1.973  1.00  0.00    -0.185 N 
ATOM      9  H6  UNL     1       4.316  33.210  -1.605  1.00  0.00     0.185 HD
HETATM   10  C17 UNL     1       2.487  33.854  -2.333  1.00  0.00     0.105 A 
HETATM   11  S1  UNL     1       1.399  32.544  -2.317  1.00  0.00    -0.067 SA
ENDROOT
BRANCH   1  12
HETATM   12  C5  UNL     1      -1.336  32.796  -3.203  1.00  0.00     0.138 C 
HETATM   13  N2  UNL     1      -1.670  32.511  -4.409  1.00  0.00    -0.252 N 
ATOM     14  H2  UNL     1      -2.618  32.149  -4.518  1.00  0.00     0.196 HD
BRANCH  12  15
HETATM   15  N1  UNL     1      -2.242  32.611  -2.126  1.00  0.00    -0.373 N 
ATOM     16  H1  UNL     1      -2.956  33.314  -1.935  1.00  0.00     0.161 HD
BRANCH  15  17
HETATM   17  C4  UNL     1      -2.156  31.437  -1.304  1.00  0.00     0.125 C 
BRANCH  17  18
HETATM   18  C2  UNL     1      -2.075  31.842   0.174  1.00  0.00    -0.005 C 
HETATM   19  C1  UNL     1      -0.637  31.672   0.624  1.00  0.00     0.011 C 
HETATM   20  C3  UNL     1      -2.908  30.892   0.996  1.00  0.00     0.011 C 
ENDBRANCH  17  18
ENDBRANCH  15  17
ENDBRANCH  12  15
BRANCH  13  21
HETATM   21  O1  UNL     1      -0.976  32.614  -5.542  1.00  0.00    -0.288 OA
ATOM     22  H1  UNL     1      -1.267  32.584  -6.446  1.00  0.00     0.244 HD
ENDBRANCH  13  21
ENDBRANCH   1  12
BRANCH   4  23
HETATM   23  N3  UNL     1       1.761  37.285  -3.419  1.00  0.00    -0.366 N 
HETATM   24  C10 UNL     1       1.094  38.195  -2.520  1.00  0.00     0.124 C 
HETATM   25  C11 UNL     1       1.479  39.640  -2.847  1.00  0.00     0.020 C 
HETATM   26  C12 UNL     1       0.744  40.037  -4.123  1.00  0.00     0.002 C 
HETATM   27  C13 UNL     1       1.730  39.991  -5.259  1.00  0.00     0.002 C 
HETATM   28  C14 UNL     1       2.583  38.765  -5.188  1.00  0.00     0.020 C 
HETATM   29  C15 UNL     1       1.842  37.509  -4.867  1.00  0.00     0.124 C 
ENDBRANCH   4  23
BRANCH   7  30
HETATM   30  N5  UNL     1       5.645  35.373  -1.765  1.00  0.00    -0.234 N 
ATOM     31  H52 UNL     1       6.105  36.281  -1.831  1.00  0.00     0.174 HD
ATOM     32  H51 UNL     1       6.216  34.602  -1.421  1.00  0.00     0.174 HD
ENDBRANCH   7  30
TORSDOF 7
ENDMDL
MODEL 5
REMARK VINA RESULT: -7.558564836      1.201      1.650
REMARK  7 active torsions:
REMARK  status: ('A' for Active; 'I' for Inactive)
REMARK    1  A    between atoms: C2_2  and  C4_4 
REMARK    2  A    between atoms: C4_4  and  N1_5 
REMARK    3  A    between atoms: N1_5  and  C5_7 
REMARK    4  A    between atoms: C5_7  and  C6_12 
REMARK    5  A    between atoms: N2_8  and  O1_10 
REMARK    6  A    between atoms: C9_15  and  N3_16 
REMARK    7  A    between atoms: C16_25  and  N5_26 
ROOT
HETATM    1  C6  UNL     1       2.316  37.066  -2.437  1.00  0.00     0.053 A 
HETATM    2  C7  UNL     1       1.997  35.733  -2.523  1.00  0.00     0.041 A 
HETATM    3  C8  UNL     1       1.394  35.306  -3.650  1.00  0.00     0.044 A 
HETATM    4  C9  UNL     1       0.975  33.999  -3.955  1.00  0.00     0.132 A 
HETATM    5  N4  UNL     1       0.385  33.772  -5.147  1.00  0.00    -0.176 N 
ATOM      6  H4  UNL     1       0.092  32.815  -5.345  1.00  0.00     0.186 HD
HETATM    7  C16 UNL     1       0.153  34.678  -6.082  1.00  0.00     0.678 A 
HETATM    8  N6  UNL     1       0.547  35.940  -5.805  1.00  0.00    -0.185 N 
ATOM      9  H6  UNL     1       0.391  36.677  -6.492  1.00  0.00     0.185 HD
HETATM   10  C17 UNL     1       1.154  36.245  -4.615  1.00  0.00     0.105 A 
HETATM   11  S1  UNL     1       1.766  37.678  -3.929  1.00  0.00    -0.067 SA
ENDROOT
BRANCH   1  12
HETATM   12  C5  UNL     1       2.959  37.747  -1.302  1.00  0.00     0.138 C 
HETATM   13  N2  UNL     1       2.264  38.561  -0.592  1.00  0.00    -0.252 N 
ATOM     14  H2  UNL     1       2.768  38.994   0.181  1.00  0.00     0.196 HD
BRANCH  12  15
HETATM   15  N1  UNL     1       4.324  37.494  -1.006  1.00  0.00    -0.373 N 
ATOM     16  H1  UNL     1       4.639  37.469  -0.037  1.00  0.00     0.161 HD
BRANCH  15  17
HETATM   17  C4  UNL     1       5.263  37.274  -2.069  1.00  0.00     0.125 C 
BRANCH  17  18
HETATM   18  C2  UNL     1       5.626  38.611  -2.728  1.00  0.00    -0.005 C 
HETATM   19  C1  UNL     1       5.658  38.396  -4.229  1.00  0.00     0.011 C 
HETATM   20  C3  UNL     1       7.020  39.008  -2.312  1.00  0.00     0.011 C 
ENDBRANCH  17  18
ENDBRANCH  15  17
ENDBRANCH  12  15
BRANCH  13  21
HETATM   21  O1  UNL     1       0.988  38.929  -0.706  1.00  0.00    -0.288 OA
ATOM     22  H1  UNL     1       0.611  39.762  -0.961  1.00  0.00     0.244 HD
ENDBRANCH  13  21
ENDBRANCH   1  12
BRANCH   4  23
HETATM   23  N3  UNL     1       1.113  32.920  -3.059  1.00  0.00    -0.366 N 
HETATM   24  C10 UNL     1       2.393  32.550  -2.505  1.00  0.00     0.124 C 
HETATM   25  C11 UNL     1       2.268  32.307  -0.998  1.00  0.00     0.020 C 
HETATM   26  C12 UNL     1       1.565  30.967  -0.804  1.00  0.00     0.002 C 
HETATM   27  C13 UNL     1       0.136  31.246  -0.422  1.00  0.00     0.002 C 
HETATM   28  C14 UNL     1      -0.451  32.329  -1.269  1.00  0.00     0.020 C 
HETATM   29  C15 UNL     1      -0.134  32.222  -2.725  1.00  0.00     0.124 C 
ENDBRANCH   4  23
BRANCH   7  30
HETATM   30  N5  UNL     1      -0.419  34.368  -7.186  1.00  0.00    -0.234 N 
ATOM     31  H52 UNL     1      -0.016  33.695  -7.837  1.00  0.00     0.174 HD
ATOM     32  H51 UNL     1      -1.306  34.788  -7.461  1.00  0.00     0.174 HD
ENDBRANCH   7  30
TORSDOF 7
ENDMDL
